@<TRIPOS>MOLECULE
tmp/5igzA00.pdb
 196 186 0 0 0
SMALL
GASTEIGER

@<TRIPOS>ATOM
      1  N          6.8870   11.3130  -16.1450 N.3    27  ASN27      -0.1240
      2  CA         5.8110   12.0980  -16.7130 C.3    27  ASN27       0.1653
      3  C          4.9840   12.5250  -15.5150 C.2    27  ASN27       0.2266
      4  O          4.4210   11.6710  -14.7990 O.2    27  ASN27      -0.2867
      5  CB         4.9980   11.2500  -17.6790 C.3    27  ASN27       0.1155
      6  CG         3.8310   12.0010  -18.2850 C.2    27  ASN27       0.2627
      7  OD1        3.1310   12.7310  -17.5780 O.2    27  ASN27      -0.2716
      8  ND2        3.5890   11.7950  -19.5830 N.am   27  ASN27      -0.0877
      9  N          2.3220   14.7670  -15.6060 N.3    29  SER29      -0.1202
     10  CA         1.0870   15.4460  -16.0280 C.3    29  SER29       0.2020
     11  C         -0.1390   15.1580  -15.1800 C.2    29  SER29       0.2619
     12  O         -1.0650   15.9750  -15.1590 O.2    29  SER29      -0.2717
     13  CB         0.7910   15.1350  -17.5060 C.3    29  SER29       0.2103
     14  OG         0.5640   13.7400  -17.6880 O.3    29  SER29      -0.2182
     15  N         -0.1550   14.0250  -14.4760 N.am   30  GLY30      -0.1942
     16  CA        -1.2870   13.5980  -13.6810 C.3    30  GLY30       0.2014
     17  C         -1.3060   14.2090  -12.2780 C.2    30  GLY30       0.2639
     18  O         -0.2790   14.3300  -11.6300 O.2    30  GLY30      -0.2714
     19  N         -2.4990   14.6080  -11.8460 N.am   31  LEU31      -0.1963
     20  CA        -2.7010   15.1480  -10.5160 C.3    31  LEU31       0.1728
     21  C         -2.8110   14.0650   -9.4640 C.2    31  LEU31       0.2616
     22  O         -2.6110   14.3380   -8.2870 O.2    31  LEU31      -0.2715
     23  CB        -3.9790   15.9790  -10.4750 C.3    31  LEU31       0.0311
     24  CG        -4.0080   17.1410  -11.4740 C.3    31  LEU31       0.0022
     25  CD1       -5.3280   17.8370  -11.4160 C.3    31  LEU31       0.0001
     26  CD2       -2.8560   18.0730  -11.1490 C.3    31  LEU31       0.0001
     27  N         -3.1490   12.8360   -9.8650 N.am   32  ASP32      -0.1957
     28  CA        -3.3330   11.7660   -8.8960 C.3    32  ASP32       0.1840
     29  C         -2.1340   10.8250   -8.8680 C.2    32  ASP32       0.2622
     30  O         -1.8420   10.2290   -7.8320 O.2    32  ASP32      -0.2715
     31  CB        -4.5910   10.9490   -9.2520 C.3    32  ASP32       0.1450
     32  CG        -5.8980   11.7070   -9.0190 C.2    32  ASP32       0.3671
     33  OD1       -5.9190   12.4810   -8.0740 O.co2  32  ASP32      -0.2456
     34  OD2       -6.9310   11.5070   -9.7460 O.co2  32  ASP32      -0.2456
     35  N         -1.5630   10.5590  -10.0440 N.am   33  PHE33      -0.1974
     36  CA        -0.4390    9.6230  -10.1620 C.3    33  PHE33       0.1639
     37  C          0.7740   10.2610  -10.8280 C.2    33  PHE33       0.2290
     38  O          0.6340   10.9730  -11.8260 O.2    33  PHE33      -0.2864
     39  CB        -0.7920    8.4150  -11.0320 C.3    33  PHE33       0.0560
     40  CG        -1.8380    7.5030  -10.4360 C.ar   33  PHE33      -0.0200
     41  CD1       -1.4610    6.4710   -9.5870 C.ar   33  PHE33      -0.0042
     42  CD2       -3.1820    7.6710  -10.7070 C.ar   33  PHE33      -0.0042
     43  CE1       -2.4140    5.5980   -9.0690 C.ar   33  PHE33      -0.0003
     44  CE2       -4.1470    6.8160  -10.1490 C.ar   33  PHE33      -0.0003
     45  CZ        -3.7420    5.7920   -9.3440 C.ar   33  PHE33      -0.0000
     46  N          3.7390    9.2420  -13.2300 N.3    35  ALA35      -0.1245
     47  CA         3.9290    8.1630  -14.1880 C.3    35  ALA35       0.1562
     48  C          5.4020    8.0490  -14.5390 C.2    35  ALA35       0.2260
     49  O          6.1430    9.0540  -14.6080 O.2    35  ALA35      -0.2867
     50  CB         3.0950    8.3380  -15.4530 C.3    35  ALA35       0.0290
     51  N          8.0020    5.7800  -17.3170 N.3    37  PHE37      -0.1241
     52  CA         8.1390    4.8500  -18.4010 C.3    37  PHE37       0.1605
     53  C          9.5440    4.2750  -18.2210 C.2    37  PHE37       0.2264
     54  O         10.4960    5.0270  -17.9650 O.2    37  PHE37      -0.2867
     55  CB         8.0830    5.5660  -19.7500 C.3    37  PHE37       0.0534
     56  CG         6.7900    6.2930  -19.9770 C.ar   37  PHE37      -0.0203
     57  CD1        5.6510    5.5970  -20.1790 C.ar   37  PHE37      -0.0042
     58  CD2        6.7510    7.6640  -20.0230 C.ar   37  PHE37      -0.0042
     59  CE1        4.4620    6.2500  -20.3740 C.ar   37  PHE37      -0.0003
     60  CE2        5.5630    8.3200  -20.2330 C.ar   37  PHE37      -0.0003
     61  CZ         4.4180    7.5940  -20.3940 C.ar   37  PHE37      -0.0000
     62  N          4.7010    1.0250  -18.1980 N.3    47  VAL47      -0.1245
     63  CA         4.1960    2.2520  -17.5600 C.3    47  VAL47       0.1561
     64  C          3.9850    1.9400  -16.0780 C.2    47  VAL47       0.2260
     65  O          3.3270    0.9280  -15.7320 O.2    47  VAL47      -0.2867
     66  CB         2.8110    2.7360  -18.1320 C.3    47  VAL47       0.0252
     67  CG1        2.4170    4.0150  -17.4510 C.3    47  VAL47       0.0019
     68  CG2        2.9270    2.9890  -19.6270 C.3    47  VAL47       0.0019
     69  N          2.5380    3.5060  -12.5560 N.3    49  ARG49      -0.1245
     70  CA         1.6400    4.5220  -12.0580 C.3    49  ARG49       0.1563
     71  C          1.7410    4.5410  -10.5570 C.2    49  ARG49       0.2260
     72  O          1.3700    3.5460   -9.8960 O.2    49  ARG49      -0.2867
     73  CB         0.2410    4.0900  -12.4490 C.3    49  ARG49       0.0307
     74  CG        -0.6790    5.1610  -12.8390 C.3    49  ARG49       0.0489
     75  CD        -2.0130    4.5290  -13.1050 C.3    49  ARG49       0.2205
     76  NE        -3.0670    5.4640  -13.4050 N.pl3  49  ARG49      -0.0865
     77  CZ        -4.3450    5.2300  -13.1560 C.cat  49  ARG49       0.5346
     78  NH1       -4.7490    4.1480  -12.5320 N.pl3  49  ARG49       0.1354
     79  NH2       -5.2520    6.1250  -13.5040 N.pl3  49  ARG49       0.1354
     80  N          1.4250   -1.4080  -16.3280 N.3    92  TYR92      -0.1241
     81  CA         0.9040   -2.0000  -17.5450 C.3    92  TYR92       0.1605
     82  C          1.7400   -1.6260  -18.7420 C.2    92  TYR92       0.2264
     83  O          2.5760   -0.7340  -18.6640 O.2    92  TYR92      -0.2867
     84  CB        -0.5460   -1.5610  -17.7500 C.3    92  TYR92       0.0534
     85  CG        -0.7610   -0.0310  -17.7400 C.ar   92  TYR92      -0.0201
     86  CD1       -0.6290    0.7400  -18.8920 C.ar   92  TYR92      -0.0009
     87  CD2       -1.1500    0.6030  -16.5850 C.ar   92  TYR92      -0.0009
     88  CE1       -0.8730    2.1270  -18.8820 C.ar   92  TYR92       0.0417
     89  CE2       -1.4080    1.9760  -16.5520 C.ar   92  TYR92       0.0417
     90  CZ        -1.2830    2.7450  -17.6960 C.ar   92  TYR92       0.1957
     91  OH        -1.5360    4.1220  -17.6270 O.3    92  TYR92      -0.2866
     92  N          2.4630    0.1570  -22.1690 N.3    94  LYS94      -0.1231
     93  CA         2.0800    1.4180  -22.7740 C.3    94  LYS94       0.1693
     94  C          1.1740    1.1890  -23.9690 C.2    94  LYS94       0.2591
     95  O          1.3850    0.2700  -24.7590 O.2    94  LYS94      -0.2718
     96  CB         3.3600    2.1720  -23.2140 C.3    94  LYS94       0.0285
     97  CG         3.1680    3.6650  -23.5100 C.3    94  LYS94       0.0035
     98  CD         4.4760    4.3220  -24.0820 C.3    94  LYS94       0.0206
     99  CE         4.2550    5.7520  -24.5430 C.3    94  LYS94       0.1093
    100  NZ         5.4850    6.3680  -25.1410 N.3    94  LYS94      -0.1314
    101  N          0.1370    2.0040  -24.0850 N.am   95  LEU95      -0.1980
    102  CA        -0.7350    1.9470  -25.2450 C.3    95  LEU95       0.1596
    103  C         -0.0120    2.4180  -26.5090 C.2    95  LEU95       0.2287
    104  O          1.0290    3.0850  -26.4380 O.2    95  LEU95      -0.2864
    105  CB        -1.9880    2.7980  -25.0050 C.3    95  LEU95       0.0297
    106  CG        -3.1070    2.1170  -24.2010 C.3    95  LEU95       0.0022
    107  CD1       -2.6700    1.7420  -22.7730 C.3    95  LEU95       0.0001
    108  CD2       -4.3640    2.9960  -24.1520 C.3    95  LEU95       0.0001
    109  N          0.4500    4.7380  -29.8610 N.3    97  GLY97      -0.1210
    110  CA         0.1980    6.1290  -30.1540 C.3    97  GLY97       0.1956
    111  C          0.7130    7.0710  -29.0890 C.2    97  GLY97       0.2612
    112  O          1.5410    6.6990  -28.2310 O.2    97  GLY97      -0.2717
    113  N          0.2840    8.3260  -29.1990 N.am   98  VAL98      -0.1966
    114  CA         0.6810    9.3670  -28.2280 C.3    98  VAL98       0.1712
    115  C         -0.5050   10.1890  -27.8100 C.2    98  VAL98       0.2458
    116  O         -1.5100   10.2190  -28.5160 O.2    98  VAL98      -0.2730
    117  CB         1.7000   10.3460  -28.8240 C.3    98  VAL98       0.0289
    118  CG1        2.9300    9.5970  -29.3080 C.3    98  VAL98       0.0023
    119  CG2        1.0580   11.1390  -29.9780 C.3    98  VAL98       0.0023
    120  N         -0.4350   10.8110  -26.6200 N.am   99  PRO99      -0.2727
    121  CA        -1.6170   11.5970  -26.2390 C.3    99  PRO99       0.1402
    122  C         -1.7840   12.7940  -27.1480 C.2    99  PRO99       0.2269
    123  O         -0.8020   13.4210  -27.5810 O.2    99  PRO99      -0.2865
    124  CB        -1.2930   12.0690  -24.8290 C.3    99  PRO99       0.0296
    125  CG        -0.1480   11.1640  -24.3520 C.3    99  PRO99       0.0237
    126  CD         0.5450   10.6700  -25.5310 C.3    99  PRO99       0.0939
    127  N         -0.6060   16.9500  -23.7740 N.3   102  THR102     -0.1218
    128  CA        -0.2430   16.5940  -22.4090 C.3   102  THR102      0.1862
    129  C         -0.0220   17.8510  -21.5980 C.2   102  THR102      0.2287
    130  O          0.5940   18.8280  -22.0430 O.2   102  THR102     -0.2866
    131  CB         0.9980   15.6700  -22.3960 C.3   102  THR102      0.1770
    132  OG1        0.6490   14.4210  -23.0190 O.3   102  THR102     -0.2211
    133  CG2        1.5030   15.3910  -20.9450 C.3   102  THR102      0.0375
    134  N        -13.5180   11.0620  -17.4790 N.3   200  ASP200     -0.1239
    135  CA       -12.4430   12.0950  -17.4180 C.3   200  ASP200      0.1674
    136  C        -11.7650   12.0960  -18.7960 C.2   200  ASP200      0.2266
    137  O        -10.5280   11.9830  -18.9080 O.2   200  ASP200     -0.2867
    138  CB       -11.4670   11.6960  -16.2720 C.3   200  ASP200      0.1410
    139  CG       -10.3630   12.7290  -15.9300 C.2   200  ASP200      0.3668
    140  OD1      -10.5660   13.9070  -16.1830 O.co2 200  ASP200     -0.2456
    141  OD2       -9.3130   12.2710  -15.3260 O.co2 200  ASP200     -0.2456
    142  N        -10.1160   13.6670  -21.8220 N.3   202  HIS202     -0.1241
    143  CA        -9.3880   14.8780  -22.2130 C.3   202  HIS202      0.1621
    144  C         -8.2090   14.4980  -23.0770 C.2   202  HIS202      0.2264
    145  O         -7.8810   13.3120  -23.2200 O.2   202  HIS202     -0.2867
    146  CB        -8.9900   15.7560  -21.0130 C.3   202  HIS202      0.0745
    147  CG        -7.9400   15.1610  -20.1160 C.ar  202  HIS202      0.0817
    148  ND1       -6.6170   15.5260  -20.1910 N.ar  202  HIS202     -0.2268
    149  CD2       -8.0280   14.2750  -19.0870 C.ar  202  HIS202      0.1154
    150  CE1       -5.9250   14.8710  -19.2740 C.ar  202  HIS202      0.1986
    151  NE2       -6.7580   14.1110  -18.5840 N.ar  202  HIS202     -0.2212
    152  N         -5.1280   14.5420  -22.7410 N.3   204  GLY204     -0.1210
    153  CA        -4.0200   13.8300  -22.1420 C.3   204  GLY204      0.1956
    154  C         -4.2910   12.3330  -21.9970 C.2   204  GLY204      0.2611
    155  O         -3.3570   11.5470  -21.7250 O.2   204  GLY204     -0.2717
    156  N         -5.5400   11.9310  -22.2000 N.am  205  HIS205     -0.1975
    157  CA        -5.8670   10.5150  -22.1720 C.3   205  HIS205      0.1656
    158  C         -6.1130    9.8980  -23.5310 C.2   205  HIS205      0.2291
    159  O         -6.2230    8.6700  -23.6410 O.2   205  HIS205     -0.2864
    160  CB        -7.1270   10.2720  -21.3480 C.3   205  HIS205      0.0771
    161  CG        -6.9810   10.6430  -19.9010 C.ar  205  HIS205      0.0820
    162  ND1       -8.0400   10.9240  -19.0750 N.ar  205  HIS205     -0.2267
    163  CD2       -5.8600   10.8320  -19.1650 C.ar  205  HIS205      0.1154
    164  CE1       -7.5920   11.2200  -17.8630 C.ar  205  HIS205      0.1986
    165  NE2       -6.2640   11.1700  -17.8960 N.ar  205  HIS205     -0.2212
    166  N         -5.2280    8.7070  -26.8740 N.3   207  MET207     -0.1245
    167  CA        -4.0710    8.2730  -27.6420 C.3   207  MET207      0.1570
    168  C         -4.4240    8.2810  -29.1180 C.2   207  MET207      0.2261
    169  O         -5.4850    7.7920  -29.5010 O.2   207  MET207     -0.2867
    170  CB        -3.6070    6.8860  -27.1890 C.3   207  MET207      0.0387
    171  CG        -3.4600    6.8180  -25.6970 C.3   207  MET207      0.0595
    172  SD        -2.0340    7.8660  -25.2530 S.3   207  MET207     -0.1393
    173  CE        -2.1390    7.7790  -23.4940 C.3   207  MET207      0.0692
    174  N         -6.6020    6.1700  -21.6770 N.3   218  ILE218     -0.1231
    175  CA        -6.0520    5.8150  -20.3570 C.3   218  ILE218      0.1692
    176  C         -6.8580    6.4980  -19.2480 C.2   218  ILE218      0.2592
    177  O         -7.7690    7.3020  -19.5270 O.2   218  ILE218     -0.2718
    178  CB        -4.5570    6.2350  -20.2610 C.3   218  ILE218      0.0266
    179  CG1       -4.4490    7.7390  -20.5120 C.3   218  ILE218      0.0019
    180  CG2       -3.6810    5.3780  -21.1850 C.3   218  ILE218      0.0020
    181  CD1       -3.1000    8.3210  -20.0380 C.3   218  ILE218      0.0001
    182  N         -6.5960    6.0790  -18.0020 N.am  219  ASP219     -0.1974
    183  CA        -7.0930    6.7220  -16.7670 C.3   219  ASP219      0.1709
    184  C         -8.6020    6.6590  -16.5760 C.2   219  ASP219      0.2293
    185  O         -9.3390    7.5920  -16.8980 O.2   219  ASP219     -0.2864
    186  CB        -6.5910    8.1850  -16.6830 C.3   219  ASP219      0.1436
    187  CG        -6.8100    8.8110  -15.3130 C.2   219  ASP219      0.3671
    188  OD1       -7.2640    8.1140  -14.3940 O.co2 219  ASP219     -0.2456
    189  OD2       -6.5000   10.0090  -15.1270 O.co2 219  ASP219     -0.2456
    190  N        -10.5250    6.0840  -13.6990 N.3   221  THR221     -0.1218
    191  CA       -11.0220    6.1400  -12.3150 C.3   221  THR221      0.1862
    192  C        -12.4690    6.6430  -12.1930 C.2   221  THR221      0.2287
    193  O        -13.1590    6.3810  -11.1960 O.2   221  THR221     -0.2866
    194  CB       -10.1300    7.0180  -11.3920 C.3   221  THR221      0.1770
    195  OG1      -10.0260    8.3330  -11.9030 O.3   221  THR221     -0.2211
    196  CG2       -8.7120    6.4930  -11.3380 C.3   221  THR221      0.0375
@<TRIPOS>BOND
     1   110   109    1
     2   110   111    1
     3   119   117    1
     4   169   168    2
     5   118   117    1
     6   113   111   am
     7   113   114    1
     8   168   167    1
     9   111   112    2
    10   117   114    1
    11   116   115    2
    12   114   115    1
    13   115   120   am
    14   167   170    1
    15   167   166    1
    16   123   122    2
    17   170   171    1
    18   122   121    1
    19   120   121    1
    20   120   126    1
    21   103   104    2
    22   103   102    1
    23   121   124    1
    24   171   172    1
    25   126   125    1
    26   172   173    1
    27   102   105    1
    28   102   101    1
    29   100    99    1
    30   105   106    1
    31   124   125    1
    32    95    94    2
    33    99    98    1
    34   106   108    1
    35   106   107    1
    36   101    94   am
    37    98    97    1
    38    94    93    1
    39   127   128    1
    40   159   158    2
    41   158   157    1
    42    97    96    1
    43   145   144    2
    44    96    93    1
    45   144   143    1
    46   132   131    1
    47    93    92    1
    48   152   153    1
    49   128   131    1
    50   128   129    1
    51   131   133    1
    52   143   142    1
    53   143   146    1
    54   156   157    1
    55   156   154   am
    56   157   160    1
    57   153   154    1
    58   130   129    2
    59   154   155    2
    60   174   175    1
    61   160   161    1
    62   180   178    1
    63   146   147    1
    64   179   178    1
    65   179   181    1
    66    61    59   ar
    67    61    60   ar
    68    59    57   ar
    69   175   178    1
    70   175   176    1
    71    60    58   ar
    72   148   147   ar
    73   148   150   ar
    74    57    56   ar
    75   147   149   ar
    76    58    56   ar
    77    56    55    1
    78   161   163   ar
    79   161   162   ar
    80    55    52    1
    81    68    66    1
    82     8     6   am
    83   177   176    2
    84   150   151   ar
    85   176   182   am
    86   163   165   ar
    87   149   151   ar
    88   162   164   ar
    89   137   136    2
    90    86    88   ar
    91    86    85   ar
    92    88    90   ar
    93   136   135    1
    94    82    83    2
    95    82    81    1
    96    52    53    1
    97    52    51    1
    98     6     5    1
    99     6     7    2
   100    53    54    2
   101    62    63    1
   102    66    63    1
   103    66    67    1
   104   182   183    1
   105   165   164   ar
   106    84    85    1
   107    84    81    1
   108    85    87   ar
   109    90    91    1
   110    90    89   ar
   111    14    13    1
   112     5     2    1
   113    63    64    1
   114    81    80    1
   115    13    10    1
   116   134   135    1
   117   135   138    1
   118   185   184    2
   119   183   186    1
   120   183   184    1
   121     2     1    1
   122     2     3    1
   123   186   187    1
   124    87    89   ar
   125   138   139    1
   126   140   139   ar
   127    64    65    2
   128    10     9    1
   129    10    11    1
   130   139   141   ar
   131     3     4    2
   132    50    47    1
   133   187   189   ar
   134   187   188   ar
   135    11    12    2
   136    11    15   am
   137    49    48    2
   138    48    47    1
   139    15    16    1
   140    47    46    1
   141   190   191    1
   142    16    17    1
   143    79    77    1
   144    76    77    2
   145    76    75    1
   146    77    78    1
   147    75    74    1
   148    74    73    1
   149    69    70    1
   150    73    70    1
   151   191   192    1
   152   191   194    1
   153    17    19   am
   154    17    18    2
   155   192   193    2
   156    70    71    1
   157   195   194    1
   158    19    20    1
   159    38    37    2
   160    24    25    1
   161    24    26    1
   162    24    23    1
   163   194   196    1
   164    39    40    1
   165    39    36    1
   166    37    36    1
   167    42    40   ar
   168    42    44   ar
   169    71    72    2
   170    20    23    1
   171    20    21    1
   172    40    41   ar
   173    36    35    1
   174    44    45   ar
   175    35    29   am
   176    27    21   am
   177    27    28    1
   178    34    32   ar
   179    41    43   ar
   180    21    22    2
   181    45    43   ar
   182    31    32    1
   183    31    28    1
   184    32    33   ar
   185    28    29    1
   186    29    30    2
