@<TRIPOS>MOLECULE
tmp/5ih1A01.pdb
 220 211 0 0 0
SMALL
GASTEIGER

@<TRIPOS>ATOM
      1  N          0.3190   18.6970   37.6390 N.3    29  LEU29      -0.1245
      2  CA        -0.1940   19.8660   36.9290 C.3    29  LEU29       0.1561
      3  C         -1.6880   19.7140   36.6070 C.2    29  LEU29       0.2260
      4  O         -2.4320   20.7000   36.6140 O.2    29  LEU29      -0.2867
      5  CB         0.6270   20.1540   35.6630 C.3    29  LEU29       0.0270
      6  CG         0.7490   19.1310   34.5270 C.3    29  LEU29       0.0019
      7  CD1       -0.2180   19.4520   33.4100 C.3    29  LEU29       0.0001
      8  CD2        2.1780   19.0930   33.9870 C.3    29  LEU29       0.0001
      9  N         10.0730    6.2510   36.4440 N.3   101  ILE101     -0.1245
     10  CA        10.9300    7.4330   36.4620 C.3   101  ILE101      0.1561
     11  C         11.1410    7.9360   37.8780 C.2   101  ILE101      0.2260
     12  O         10.1830    8.1460   38.6300 O.2   101  ILE101     -0.2867
     13  CB        10.3450    8.5800   35.6060 C.3   101  ILE101      0.0252
     14  CG1       10.3880    8.2210   34.1190 C.3   101  ILE101      0.0019
     15  CG2       11.0990    9.8960   35.8560 C.3   101  ILE101      0.0019
     16  CD1       11.7820    8.2190   33.5020 C.3   101  ILE101      0.0001
     17  N         12.8500   11.2040   39.4820 N.3   103  HIS103     -0.1241
     18  CA        13.3010   12.5180   39.0200 C.3   103  HIS103      0.1621
     19  C         14.5730   13.0360   39.6990 C.2   103  HIS103      0.2264
     20  O         15.1740   14.0010   39.2250 O.2   103  HIS103     -0.2867
     21  CB        12.1760   13.5470   39.1570 C.3   103  HIS103      0.0745
     22  CG        11.0990   13.3910   38.1290 C.ar  103  HIS103      0.0817
     23  ND1        9.8160   12.9970   38.4450 N.ar  103  HIS103     -0.2268
     24  CD2       11.1210   13.5550   36.7840 C.ar  103  HIS103      0.1154
     25  CE1        9.0920   12.9350   37.3410 C.ar  103  HIS103      0.1986
     26  NE2        9.8600   13.2690   36.3190 N.ar  103  HIS103     -0.2212
     27  N         17.0250   11.5310   37.0950 N.3   106  GLY106     -0.1210
     28  CA        16.7150   11.8450   35.7200 C.3   106  GLY106      0.1956
     29  C         16.6680   10.6100   34.8370 C.2   106  GLY106      0.2612
     30  O         17.1240   10.6660   33.7000 O.2   106  GLY106     -0.2717
     31  N         16.1310    9.5030   35.3600 N.am  107  ASN107     -0.1960
     32  CA        16.0150    8.2520   34.5910 C.3   107  ASN107      0.1819
     33  C         15.1230    7.2170   35.3070 C.2   107  ASN107      0.2621
     34  O         14.5890    7.4790   36.3920 O.2   107  ASN107     -0.2715
     35  CB        17.4130    7.6660   34.3170 C.3   107  ASN107      0.1195
     36  CG        17.5060    6.9720   32.9650 C.2   107  ASN107      0.2630
     37  OD1       16.6410    6.1690   32.6090 O.2   107  ASN107     -0.2716
     38  ND2       18.5480    7.2910   32.1990 N.am  107  ASN107     -0.0877
     39  N         14.9570    6.0420   34.7020 N.am  108  TYR108     -0.1974
     40  CA        14.1550    4.9930   35.3150 C.3   108  TYR108      0.1639
     41  C         14.8690    4.2310   36.4060 C.2   108  TYR108      0.2290
     42  O         16.0800    3.9850   36.3300 O.2   108  TYR108     -0.2864
     43  CB        13.7310    3.9480   34.2820 C.3   108  TYR108      0.0560
     44  CG        12.7840    4.4240   33.2120 C.ar  108  TYR108     -0.0198
     45  CD1       11.4150    4.4830   33.4370 C.ar  108  TYR108     -0.0009
     46  CD2       13.2660    4.7890   31.9730 C.ar  108  TYR108     -0.0009
     47  CE1       10.5500    4.9140   32.4450 C.ar  108  TYR108      0.0417
     48  CE2       12.4140    5.2120   30.9690 C.ar  108  TYR108      0.0417
     49  CZ        11.0620    5.2750   31.2150 C.ar  108  TYR108      0.1957
     50  OH        10.2270    5.6900   30.2170 O.3   108  TYR108     -0.2866
     51  N         14.6140    0.6350   36.9890 N.3   110  TRP110     -0.1241
     52  CA        14.1620   -0.4650   36.1520 C.3   110  TRP110      0.1605
     53  C         13.8890   -1.7410   36.9310 C.2   110  TRP110      0.2264
     54  O         14.6000   -2.0580   37.8910 O.2   110  TRP110     -0.2867
     55  CB        15.2130   -0.7940   35.0910 C.3   110  TRP110      0.0550
     56  CG        15.2800    0.1360   33.9140 C.ar  110  TRP110      0.0003
     57  CD1       16.1680    1.1510   33.7170 C.ar  110  TRP110      0.0946
     58  CD2       14.4350    0.1110   32.7530 C.ar  110  TRP110      0.0152
     59  NE1       15.9220    1.7700   32.5120 N.ar  110  TRP110     -0.2442
     60  CE2       14.8630    1.1480   31.9040 C.ar  110  TRP110      0.0810
     61  CE3       13.3560   -0.6850   32.3560 C.ar  110  TRP110      0.0012
     62  CZ2       14.2610    1.4000   30.6690 C.ar  110  TRP110      0.0191
     63  CZ3       12.7680   -0.4350   31.1230 C.ar  110  TRP110      0.0001
     64  CH2       13.2250    0.5940   30.3000 C.ar  110  TRP110      0.0015
     65  N          2.0440   18.9500   10.9650 N.3   160  ARG160     -0.1245
     66  CA         2.6670   19.1900   12.2640 C.3   160  ARG160      0.1563
     67  C          4.1200   19.6420   12.1110 C.2   160  ARG160      0.2260
     68  O          4.5820   20.5230   12.8290 O.2   160  ARG160     -0.2867
     69  CB         2.6090   17.9430   13.1400 C.3   160  ARG160      0.0307
     70  CG         1.2090   17.5610   13.5950 C.3   160  ARG160      0.0489
     71  CD         1.1890   16.2050   14.2580 C.3   160  ARG160      0.2205
     72  NE         2.0270   16.1910   15.4570 N.pl3 160  ARG160     -0.0865
     73  CZ         2.6100   15.1030   15.9590 C.cat 160  ARG160      0.5346
     74  NH1        2.4670   13.9160   15.3830 N.pl3 160  ARG160      0.1354
     75  NH2        3.3500   15.2110   17.0590 N.pl3 160  ARG160      0.1354
     76  N          1.3980    6.6310   24.2930 N.3   198  ASP198     -0.1239
     77  CA         2.4730    6.9820   25.2260 C.3   198  ASP198      0.1674
     78  C          2.9780    5.7120   25.9110 C.2   198  ASP198      0.2266
     79  O          3.1030    5.6340   27.1320 O.2   198  ASP198     -0.2867
     80  CB         1.9590    8.0280   26.2410 C.3   198  ASP198      0.1410
     81  CG         3.0610    8.7730   26.9380 C.2   198  ASP198      0.3668
     82  OD1        4.2240    8.7270   26.4870 O.co2 198  ASP198     -0.2456
     83  OD2        2.7500    9.4190   27.9560 O.co2 198  ASP198     -0.2456
     84  N          5.6050    3.5330   27.2710 N.3   200  HIS200     -0.1241
     85  CA         6.9660    3.4780   27.7670 C.3   200  HIS200      0.1621
     86  C          6.9620    2.6660   29.0430 C.2   200  HIS200      0.2264
     87  O          5.8960    2.2540   29.5260 O.2   200  HIS200     -0.2867
     88  CB         7.5740    4.8820   27.9440 C.3   200  HIS200      0.0745
     89  CG         6.9700    5.7090   29.0450 C.ar  200  HIS200      0.0817
     90  ND1        7.3850    5.6250   30.3520 N.ar  200  HIS200     -0.2268
     91  CD2        6.0490    6.7060   29.0160 C.ar  200  HIS200      0.1154
     92  CE1        6.7080    6.4820   31.0940 C.ar  200  HIS200      0.1986
     93  NE2        5.8900    7.1500   30.3040 N.ar  200  HIS200     -0.2212
     94  N          4.5330    3.1120   32.0030 N.3   203  HIS203     -0.1241
     95  CA         3.1160    2.8470   31.7550 C.3   203  HIS203      0.1621
     96  C          2.8260    1.3930   31.4480 C.2   203  HIS203      0.2264
     97  O          1.6610    1.0420   31.2310 O.2   203  HIS203     -0.2867
     98  CB         2.6140    3.7050   30.6030 C.3   203  HIS203      0.0745
     99  CG         2.5970    5.1650   30.9100 C.ar  203  HIS203      0.0817
    100  ND1        2.5880    6.1160   29.9190 N.ar  203  HIS203     -0.2268
    101  CD2        2.5360    5.8370   32.0820 C.ar  203  HIS203      0.1154
    102  CE1        2.5390    7.3180   30.4710 C.ar  203  HIS203      0.1986
    103  NE2        2.4830    7.1830   31.7870 N.ar  203  HIS203     -0.2212
    104  N         -3.1600    9.8840   25.6150 N.3   220  GLU220     -0.1245
    105  CA        -2.7370   10.1290   24.2360 C.3   220  GLU220      0.1567
    106  C         -3.3710    9.1600   23.2350 C.2   220  GLU220      0.2260
    107  O         -2.9960    9.1330   22.0510 O.2   220  GLU220     -0.2867
    108  CB        -1.2130   10.0580   24.1200 C.3   220  GLU220      0.0388
    109  CG        -0.4650   10.8120   25.2070 C.3   220  GLU220      0.1160
    110  CD        -0.9170   12.2390   25.3420 C.2   220  GLU220      0.3649
    111  OE1       -0.8990   12.9590   24.3210 O.co2 220  GLU220     -0.2457
    112  OE2       -1.2800   12.6670   26.4510 O.co2 220  GLU220     -0.2457
    113  N          9.2940    3.6620   21.9330 N.3   232  PHE232     -0.1241
    114  CA        10.0360    3.4760   23.1560 C.3   232  PHE232      0.1605
    115  C         10.8560    2.1900   23.1320 C.2   232  PHE232      0.2264
    116  O         11.9730    2.1570   23.6480 O.2   232  PHE232     -0.2867
    117  CB         9.1300    3.4620   24.3900 C.3   232  PHE232      0.0534
    118  CG         9.8980    3.2890   25.6810 C.ar  232  PHE232     -0.0203
    119  CD1       10.5210    4.3750   26.2800 C.ar  232  PHE232     -0.0042
    120  CD2       10.0300    2.0460   26.2880 C.ar  232  PHE232     -0.0042
    121  CE1       11.2390    4.2430   27.4630 C.ar  232  PHE232     -0.0003
    122  CE2       10.7340    1.8980   27.4490 C.ar  232  PHE232     -0.0003
    123  CZ        11.3460    2.9960   28.0540 C.ar  232  PHE232     -0.0000
    124  N         13.9430    3.1520   21.3930 N.3   235  ARG235     -0.1231
    125  CA        14.7200    4.1270   22.1470 C.3   235  ARG235      0.1694
    126  C         15.4470    3.5010   23.3410 C.2   235  ARG235      0.2591
    127  O         16.6020    3.8650   23.6180 O.2   235  ARG235     -0.2718
    128  CB        13.8060    5.2680   22.5890 C.3   235  ARG235      0.0321
    129  CG        13.3070    6.1070   21.4270 C.3   235  ARG235      0.0489
    130  CD        12.4590    7.2880   21.8950 C.3   235  ARG235      0.2205
    131  NE        13.2670    8.3740   22.4560 N.pl3 235  ARG235     -0.0865
    132  CZ        13.7330    9.4140   21.7590 C.cat 235  ARG235      0.5346
    133  NH1       13.4600    9.5400   20.4650 N.pl3 235  ARG235      0.1354
    134  NH2       14.4680   10.3470   22.3580 N.pl3 235  ARG235      0.1354
    135  N         14.7840    2.5660   24.0290 N.am  236  ALA236     -0.1980
    136  CA        15.3110    1.9320   25.2300 C.3   236  ALA236      0.1597
    137  C         16.1520    0.7130   24.9380 C.2   236  ALA236      0.2287
    138  O         17.1330    0.4690   25.6360 O.2   236  ALA236     -0.2864
    139  CB        14.1730    1.5610   26.1660 C.3   236  ALA236      0.0319
    140  N         10.7510   12.6540   16.4190 N.3   271  TYR271     -0.1241
    141  CA        10.3660   12.9320   17.7920 C.3   271  TYR271      0.1605
    142  C         10.4770   14.4140   18.1910 C.2   271  TYR271      0.2264
    143  O          9.6570   14.8830   18.9790 O.2   271  TYR271     -0.2867
    144  CB        11.1600   12.0570   18.7440 C.3   271  TYR271      0.0534
    145  CG        10.8310   12.3680   20.1610 C.ar  271  TYR271     -0.0201
    146  CD1        9.6450   11.9230   20.7350 C.ar  271  TYR271     -0.0009
    147  CD2       11.6780   13.1490   20.9110 C.ar  271  TYR271     -0.0009
    148  CE1        9.3420   12.2310   22.0530 C.ar  271  TYR271      0.0417
    149  CE2       11.3850   13.4730   22.2180 C.ar  271  TYR271      0.0417
    150  CZ        10.2210   13.0070   22.7800 C.ar  271  TYR271      0.1957
    151  OH         9.9330   13.3330   24.0800 O.3   271  TYR271     -0.2866
    152  N          7.2540   16.3040   18.4630 N.3   274  SER274     -0.1202
    153  CA         6.4370   16.0780   19.6540 C.3   274  SER274      0.2020
    154  C          6.9220   16.8640   20.8630 C.2   274  SER274      0.2618
    155  O          6.1170   17.4690   21.5870 O.2   274  SER274     -0.2717
    156  CB         6.3830   14.5910   20.0010 C.3   274  SER274      0.2103
    157  OG         5.7020   13.8950   18.9800 O.3   274  SER274     -0.2182
    158  N          8.2260   16.8740   21.0910 N.am  275  ILE275     -0.1979
    159  CA         8.7730   17.6580   22.1920 C.3   275  ILE275      0.1595
    160  C          8.5610   19.1630   21.9590 C.2   275  ILE275      0.2287
    161  O          8.2640   19.8920   22.8960 O.2   275  ILE275     -0.2864
    162  CB        10.2510   17.3340   22.4890 C.3   275  ILE275      0.0276
    163  CG1       10.7960   18.2190   23.6180 C.3   275  ILE275      0.0022
    164  CG2       11.0990   17.4820   21.2670 C.3   275  ILE275      0.0022
    165  CD1       10.1560   17.9700   24.9680 C.3   275  ILE275      0.0001
    166  N          5.9960   20.5170   20.3160 N.3   277  GLU277     -0.1231
    167  CA         4.5840   20.7890   20.5810 C.3   277  GLU277      0.1699
    168  C          4.3090   20.8300   22.0850 C.2   277  GLU277      0.2592
    169  O          3.5330   21.6590   22.5630 O.2   277  GLU277     -0.2718
    170  CB         3.7050   19.7370   19.9260 C.3   277  GLU277      0.0402
    171  CG         3.7020   19.8380   18.4260 C.3   277  GLU277      0.1161
    172  CD         2.9790   18.6860   17.7800 C.2   277  GLU277      0.3649
    173  OE1        2.8340   17.6220   18.4290 O.co2 277  GLU277     -0.2457
    174  OE2        2.5600   18.8010   16.6020 O.co2 277  GLU277     -0.2457
    175  N          4.9200   19.9260   22.8290 N.am  278  PHE278     -0.1976
    176  CA         4.7320   19.9030   24.2730 C.3   278  PHE278      0.1639
    177  C          5.3380   21.1310   24.9250 C.2   278  PHE278      0.2290
    178  O          4.7250   21.7110   25.8170 O.2   278  PHE278     -0.2864
    179  CB         5.3070   18.6290   24.8890 C.3   278  PHE278      0.0560
    180  CG         5.1020   18.5500   26.3830 C.ar  278  PHE278     -0.0200
    181  CD1        3.8210   18.4280   26.9150 C.ar  278  PHE278     -0.0042
    182  CD2        6.1750   18.6280   27.2540 C.ar  278  PHE278     -0.0042
    183  CE1        3.6190   18.3820   28.2880 C.ar  278  PHE278     -0.0003
    184  CE2        5.9780   18.5760   28.6320 C.ar  278  PHE278     -0.0003
    185  CZ         4.7050   18.4510   29.1430 C.ar  278  PHE278     -0.0000
    186  N          2.7200   23.9700   24.3280 N.3   281  VAL281     -0.1245
    187  CA         1.4320   23.9390   25.0140 C.3   281  VAL281      0.1561
    188  C          1.6250   24.0320   26.5250 C.2   281  VAL281      0.2260
    189  O          0.8040   24.6190   27.2150 O.2   281  VAL281     -0.2867
    190  CB         0.5930   22.7040   24.6240 C.3   281  VAL281      0.0252
    191  CG1        1.1700   21.4430   25.2160 C.3   281  VAL281      0.0019
    192  CG2       -0.8600   22.8690   25.0680 C.3   281  VAL281      0.0019
    193  N          6.6110   25.0410   29.8420 N.3   284  ILE284     -0.1245
    194  CA         7.6580   24.6870   30.8140 C.3   284  ILE284      0.1561
    195  C          9.0610   24.9230   30.2270 C.2   284  ILE284      0.2260
    196  O          9.4080   24.3330   29.2120 O.2   284  ILE284     -0.2867
    197  CB         7.4950   23.2240   31.2770 C.3   284  ILE284      0.0252
    198  CG1        6.1320   23.0510   31.9620 C.3   284  ILE284      0.0019
    199  CG2        8.6230   22.8390   32.2300 C.3   284  ILE284      0.0019
    200  CD1        5.7400   21.6100   32.2230 C.3   284  ILE284      0.0001
    201  N         11.4670   22.1550   28.8680 N.3   287  TYR287     -0.1241
    202  CA        11.1060   21.4730   27.6340 C.3   287  TYR287      0.1605
    203  C         11.3280   22.3800   26.4300 C.2   287  TYR287      0.2264
    204  O         11.4960   21.8910   25.3170 O.2   287  TYR287     -0.2867
    205  CB         9.6660   20.9340   27.6850 C.3   287  TYR287      0.0534
    206  CG         9.4790   19.9200   28.7920 C.ar  287  TYR287     -0.0201
    207  CD1       10.0840   18.6730   28.7220 C.ar  287  TYR287     -0.0009
    208  CD2        8.7270   20.2150   29.9160 C.ar  287  TYR287     -0.0009
    209  CE1        9.9320   17.7460   29.7430 C.ar  287  TYR287      0.0417
    210  CE2        8.5690   19.3000   30.9400 C.ar  287  TYR287      0.0417
    211  CZ         9.1720   18.0670   30.8510 C.ar  287  TYR287      0.1957
    212  OH         9.0100   17.1540   31.8700 O.3   287  TYR287     -0.2866
    213  N         15.0260   21.7560   25.6160 N.3   290  MET290     -0.1245
    214  CA        15.0950   20.4200   25.0410 C.3   290  MET290      0.1570
    215  C         14.5980   20.4130   23.5920 C.2   290  MET290      0.2261
    216  O         15.1520   19.7080   22.7460 O.2   290  MET290     -0.2867
    217  CB        14.2520   19.4380   25.8450 C.3   290  MET290      0.0387
    218  CG        14.7960   19.0520   27.2280 C.3   290  MET290      0.0595
    219  SD        13.7540   17.7660   27.9640 S.3   290  MET290     -0.1393
    220  CE        13.9710   16.4650   26.7400 C.3   290  MET290      0.0692
@<TRIPOS>BOND
     1    65    66    1
     2    67    66    1
     3    67    68    2
     4    66    69    1
     5    69    70    1
     6    70    71    1
     7    71    72    1
     8    74    73    1
     9    72    73    2
    10    73    75    1
    11   140   141    1
    12   174   172   ar
    13   172   171    1
    14   172   173   ar
    15   141   142    1
    16   141   144    1
    17   142   143    2
    18   171   170    1
    19   152   153    1
    20   144   145    1
    21   157   156    1
    22   153   156    1
    23   153   154    1
    24   170   167    1
    25   145   146   ar
    26   145   147   ar
    27   166   167    1
    28   133   132    1
    29   167   168    1
    30   146   148   ar
    31   154   158   am
    32   154   155    2
    33   147   149   ar
    34   158   159    1
    35   164   162    1
    36   124   125    1
    37   129   130    1
    38   129   128    1
    39   132   134    1
    40   132   131    2
    41   130   131    1
    42   113   114    1
    43   160   159    1
    44   160   161    2
    45   107   106    2
    46   148   150   ar
    47   168   169    2
    48   168   175   am
    49   125   128    1
    50   125   126    1
    51   159   162    1
    52   149   150   ar
    53   162   163    1
    54   216   215    2
    55   150   151    1
    56   175   176    1
    57   115   114    1
    58   115   116    2
    59   114   117    1
    60   106   105    1
    61   126   127    2
    62   126   135   am
    63   215   214    1
    64   163   165    1
    65   135   136    1
    66   108   105    1
    67   108   109    1
    68   105   104    1
    69   176   179    1
    70   176   177    1
    71    76    77    1
    72   111   110   ar
    73   186   187    1
    74   117   118    1
    75   190   187    1
    76   190   192    1
    77   190   191    1
    78   179   180    1
    79   177   178    2
    80   137   136    1
    81   137   138    2
    82   187   188    1
    83   214   213    1
    84   214   217    1
    85   109   110    1
    86    77    78    1
    87    77    80    1
    88   136   139    1
    89   204   203    2
    90   110   112   ar
    91   118   119   ar
    92   118   120   ar
    93   217   218    1
    94    78    79    2
    95    80    81    1
    96   119   121   ar
    97   120   122   ar
    98   180   181   ar
    99   180   182   ar
   100   203   202    1
   101    82    81   ar
   102   188   189    2
   103   220   219    1
   104   181   183   ar
   105    81    83   ar
   106   218   219    1
   107   182   184   ar
   108    84    85    1
   109   122   123   ar
   110   121   123   ar
   111   202   205    1
   112   202   201    1
   113   205   206    1
   114    85    88    1
   115    85    86    1
   116    88    89    1
   117   183   185   ar
   118   184   185   ar
   119   207   206   ar
   120   207   209   ar
   121   206   208   ar
   122    91    89   ar
   123    91    93   ar
   124    86    87    2
   125    89    90   ar
   126   196   195    2
   127   209   211   ar
   128   193   194    1
   129   208   210   ar
   130   100   102   ar
   131   100    99   ar
   132    50    49    1
   133   195   194    1
   134    64    62   ar
   135    64    63   ar
   136    93    92   ar
   137    90    92   ar
   138   102   103   ar
   139    98    99    1
   140    98    95    1
   141    62    60   ar
   142   194   197    1
   143   211   210   ar
   144   211   212    1
   145    99   101   ar
   146    48    49   ar
   147    48    46   ar
   148    63    61   ar
   149    49    47   ar
   150    97    96    2
   151   197   198    1
   152   197   199    1
   153    96    95    1
   154    95    94    1
   155   103   101   ar
   156    60    59   ar
   157    60    58   ar
   158   198   200    1
   159    46    44   ar
   160    38    36   am
   161    61    58   ar
   162    47    45   ar
   163    59    57   ar
   164    37    36    2
   165    58    56   ar
   166    36    35    1
   167    44    45   ar
   168    44    43    1
   169     7     6    1
   170    16    14    1
   171    30    29    2
   172    57    56   ar
   173    56    55    1
   174     8     6    1
   175    14    13    1
   176    43    40    1
   177    35    32    1
   178     6     5    1
   179    32    33    1
   180    32    31    1
   181    39    33   am
   182    39    40    1
   183    29    31   am
   184    29    28    1
   185    55    52    1
   186    33    34    2
   187    40    41    1
   188    13    15    1
   189    13    10    1
   190     5     2    1
   191    28    27    1
   192    52    53    1
   193    52    51    1
   194    26    24   ar
   195    26    25   ar
   196    42    41    2
   197     9    10    1
   198    10    11    1
   199     3     4    2
   200     3     2    1
   201    24    22   ar
   202     2     1    1
   203    53    54    2
   204    25    23   ar
   205    11    12    2
   206    22    23   ar
   207    22    21    1
   208    18    21    1
   209    18    17    1
   210    18    19    1
   211    20    19    2
