@<TRIPOS>MOLECULE
tmp/5ih2A00.pdb
 145 145 0 0 0
SMALL
GASTEIGER

@<TRIPOS>ATOM
      1  N        -14.2370   -9.4760  -13.4790 N.3     7  LEU7       -0.1231
      2  CA       -15.4430  -10.3140  -13.5490 C.3     7  LEU7        0.1693
      3  C        -16.5910   -9.7110  -14.3230 C.2     7  LEU7        0.2592
      4  O        -17.4810  -10.4470  -14.8420 O.2     7  LEU7       -0.2718
      5  CB       -15.8940  -10.6390  -12.0960 C.3     7  LEU7        0.0284
      6  CG       -14.9460  -11.3980  -11.2140 C.3     7  LEU7        0.0019
      7  CD1      -15.4850  -11.2920   -9.7960 C.3     7  LEU7        0.0001
      8  CD2      -14.6900  -12.8640  -11.6080 C.3     7  LEU7        0.0001
      9  N        -16.5630   -8.3850  -14.4050 N.am    8  PHE8       -0.1962
     10  CA       -17.5620   -7.5530  -15.0330 C.3     8  PHE8        0.1771
     11  C        -16.9150   -6.3550  -15.7220 C.2     8  PHE8        0.2620
     12  O        -15.7430   -6.0180  -15.5020 O.2     8  PHE8       -0.2715
     13  CB       -18.5170   -7.0260  -13.9440 C.3     8  PHE8        0.0574
     14  CG       -19.2380   -8.1190  -13.1880 C.ar    8  PHE8       -0.0200
     15  CD1      -20.2990   -8.7470  -13.7990 C.ar    8  PHE8       -0.0042
     16  CD2      -18.8280   -8.5120  -11.9160 C.ar    8  PHE8       -0.0042
     17  CE1      -20.9620   -9.7260  -13.1400 C.ar    8  PHE8       -0.0003
     18  CE2      -19.4890   -9.5180  -11.2700 C.ar    8  PHE8       -0.0003
     19  CZ       -20.5450  -10.1340  -11.9020 C.ar    8  PHE8       -0.0000
     20  N        -17.7410   -5.7180  -16.5490 N.am    9  ASP9       -0.1957
     21  CA       -17.3790   -4.4880  -17.2490 C.3     9  ASP9        0.1840
     22  C        -17.4820   -3.3230  -16.2810 C.2     9  ASP9        0.2622
     23  O        -18.2860   -3.3580  -15.3490 O.2     9  ASP9       -0.2715
     24  CB       -18.3300   -4.2170  -18.4310 C.3     9  ASP9        0.1450
     25  CG       -18.1790   -5.1840  -19.5830 C.2     9  ASP9        0.3671
     26  OD1      -17.2560   -6.0110  -19.6130 O.co2   9  ASP9       -0.2456
     27  OD2      -19.0590   -5.0580  -20.4760 O.co2   9  ASP9       -0.2456
     28  N        -16.6600   -2.3060  -16.4990 N.am   10  PHE10      -0.1974
     29  CA       -16.6950   -1.0580  -15.7430 C.3    10  PHE10       0.1639
     30  C        -16.4500    0.1010  -16.6810 C.2    10  PHE10       0.2290
     31  O        -15.4480    0.1420  -17.3700 O.2    10  PHE10      -0.2864
     32  CB       -15.6560   -1.1210  -14.6310 C.3    10  PHE10       0.0560
     33  CG       -15.4920    0.1340  -13.8510 C.ar   10  PHE10      -0.0200
     34  CD1      -16.5510    0.7740  -13.2820 C.ar   10  PHE10      -0.0042
     35  CD2      -14.2070    0.7150  -13.7190 C.ar   10  PHE10      -0.0042
     36  CE1      -16.3690    1.9470  -12.5950 C.ar   10  PHE10      -0.0003
     37  CE2      -14.0310    1.8760  -13.0400 C.ar   10  PHE10      -0.0003
     38  CZ       -15.1140    2.4930  -12.4240 C.ar   10  PHE10      -0.0000
     39  N        -16.5690    5.9890  -14.5560 N.3    13  ASN13      -0.1225
     40  CA       -17.4750    7.1730  -14.5600 C.3    13  ASN13       0.1785
     41  C        -16.9870    8.5080  -13.9700 C.2    13  ASN13       0.2597
     42  O        -17.6290    9.5460  -14.1290 O.2    13  ASN13      -0.2718
     43  CB       -18.7290    6.7040  -13.8420 C.3    13  ASN13       0.1169
     44  CG       -19.2370    5.4330  -14.4190 C.2    13  ASN13       0.2627
     45  OD1      -19.4270    5.3400  -15.6000 O.2    13  ASN13      -0.2716
     46  ND2      -19.3370    4.4270  -13.6130 N.am   13  ASN13      -0.0877
     47  N        -15.9110    8.4220  -13.1860 N.am   14  ASP14      -0.1974
     48  CA       -15.1360    9.5870  -12.7520 C.3    14  ASP14       0.1709
     49  C        -13.8040    9.5630  -13.4980 C.2    14  ASP14       0.2293
     50  O        -13.3570    8.5090  -13.9730 O.2    14  ASP14      -0.2864
     51  CB       -14.8580    9.5630  -11.2490 C.3    14  ASP14       0.1436
     52  CG       -16.1060    9.6220  -10.3780 C.2    14  ASP14       0.3671
     53  OD1      -17.2310    9.9470  -10.8710 O.co2  14  ASP14      -0.2456
     54  OD2      -15.9090    9.4160   -9.1410 O.co2  14  ASP14      -0.2456
     55  N        -10.7560    9.7930  -12.6050 N.3    16  GLU16      -0.1231
     56  CA        -9.6630    9.0710  -11.9870 C.3    16  GLU16       0.1699
     57  C         -9.7520    7.5900  -12.3120 C.2    16  GLU16       0.2592
     58  O         -8.8070    6.8250  -12.0160 O.2    16  GLU16      -0.2718
     59  CB        -9.6210    9.2470  -10.4410 C.3    16  GLU16       0.0402
     60  CG       -10.7330    8.5600   -9.6690 C.3    16  GLU16       0.1161
     61  CD       -10.5820    8.7130   -8.1530 C.2    16  GLU16       0.3649
     62  OE1       -9.5060    9.1560   -7.6700 O.co2  16  GLU16      -0.2457
     63  OE2      -11.5390    8.3160   -7.4700 O.co2  16  GLU16      -0.2457
     64  N        -10.9090    7.1560  -12.7940 N.am   17  ASP17      -0.1974
     65  CA       -11.1200    5.7350  -12.9280 C.3    17  ASP17       0.1709
     66  C        -10.4010    5.1130  -14.1040 C.2    17  ASP17       0.2293
     67  O        -10.1770    5.7760  -15.1210 O.2    17  ASP17      -0.2864
     68  CB       -12.6090    5.4780  -13.0790 C.3    17  ASP17       0.1436
     69  CG       -13.4420    5.8150  -11.8570 C.2    17  ASP17       0.3671
     70  OD1      -12.9580    6.0180  -10.7590 O.co2  17  ASP17      -0.2456
     71  OD2      -14.6710    5.8820  -12.0670 O.co2  17  ASP17      -0.2456
     72  N        -14.8790   -7.2000  -18.6820 N.3    22  LYS22      -0.1245
     73  CA       -14.7450   -8.5650  -18.1770 C.3    22  LYS22       0.1561
     74  C        -13.6330   -9.3540  -18.8850 C.2    22  LYS22       0.2260
     75  O        -13.5280   -9.3250  -20.0880 O.2    22  LYS22      -0.2867
     76  CB       -16.0560   -9.3280  -18.3850 C.3    22  LYS22       0.0271
     77  CG       -15.9810  -10.7640  -17.9610 C.3    22  LYS22       0.0035
     78  CD       -17.3720  -11.3610  -18.1710 C.3    22  LYS22       0.0206
     79  CE       -17.5020  -12.7370  -17.6050 C.3    22  LYS22       0.1093
     80  NZ       -16.4630  -13.6580  -18.0330 N.3    22  LYS22      -0.1314
     81  N         -5.3370    2.6620   -1.7890 N.3    32  PRO32      -0.2102
     82  CA        -5.5820    3.8010   -0.9130 C.3    32  PRO32       0.1504
     83  C         -6.9090    3.7440   -0.1610 C.2    32  PRO32       0.2575
     84  O         -7.0950    4.4810    0.8400 O.2    32  PRO32      -0.2718
     85  CB        -5.5390    4.9840   -1.9130 C.3    32  PRO32       0.0282
     86  CG        -5.9910    4.3680   -3.1840 C.3    32  PRO32       0.0208
     87  CD        -5.3460    3.0340   -3.2020 C.3    32  PRO32       0.0893
     88  N         -7.8420    2.9830   -0.7120 N.am   33  GLU33      -0.1980
     89  CA        -9.1380    2.7180   -0.1250 C.3    33  GLU33       0.1602
     90  C         -9.3690    1.2260   -0.1070 C.2    33  GLU33       0.2287
     91  O         -8.7880    0.5100   -0.9010 O.2    33  GLU33      -0.2864
     92  CB       -10.2230    3.3940   -0.9440 C.3    33  GLU33       0.0415
     93  CG       -10.4320    4.8490   -0.6920 C.3    33  GLU33       0.1163
     94  CD        -9.4100    5.7270   -1.2940 C.2    33  GLU33       0.3649
     95  OE1       -9.0650    5.4910   -2.4700 O.co2  33  GLU33      -0.2457
     96  OE2       -8.9320    6.6310   -0.6030 O.co2  33  GLU33      -0.2457
     97  N        -12.0320   -0.5450   -1.1460 N.3    35  GLN35      -0.1231
     98  CA       -12.7760   -1.0670   -2.2930 C.3    35  GLN35       0.1698
     99  C        -12.4270   -0.3240   -3.5910 C.2    35  GLN35       0.2592
    100  O        -13.0070   -0.6310   -4.6360 O.2    35  GLN35      -0.2718
    101  CB       -14.2620   -0.9220   -2.0760 C.3    35  GLN35       0.0381
    102  CG       -14.7900   -1.5420   -0.7590 C.3    35  GLN35       0.0905
    103  CD       -16.2630   -1.6650   -0.8120 C.2    35  GLN35       0.2608
    104  OE1      -16.9890   -0.7890   -0.3370 O.2    35  GLN35      -0.2717
    105  NE2      -16.7410   -2.7470   -1.3880 N.am   35  GLN35      -0.0878
    106  N        -11.5220    0.6550   -3.5330 N.am   36  TRP36      -0.1976
    107  CA       -11.0570    1.3090   -4.7530 C.3    36  TRP36       0.1640
    108  C         -9.5470    1.2510   -4.7890 C.2    36  TRP36       0.2290
    109  O         -8.9090    1.7770   -3.9110 O.2    36  TRP36      -0.2864
    110  CB       -11.5350    2.7190   -4.8180 C.3    36  TRP36       0.0576
    111  CG       -12.9930    2.8080   -5.0980 C.ar   36  TRP36       0.0006
    112  CD1      -14.0210    2.8900   -4.1820 C.ar   36  TRP36       0.0946
    113  CD2      -13.5900    2.8300   -6.3820 C.ar   36  TRP36       0.0152
    114  NE1      -15.2260    2.9210   -4.8470 N.ar   36  TRP36      -0.2442
    115  CE2      -14.9770    2.9160   -6.2000 C.ar   36  TRP36       0.0810
    116  CE3      -13.0810    2.7920   -7.6830 C.ar   36  TRP36       0.0012
    117  CZ2      -15.8600    2.9510   -7.2780 C.ar   36  TRP36       0.0191
    118  CZ3      -13.9390    2.8900   -8.7330 C.ar   36  TRP36       0.0001
    119  CH2      -15.3120    2.9640   -8.5360 C.ar   36  TRP36       0.0015
    120  N        -13.0370   -0.5660   -9.0920 N.3    50  PRO50      -0.2116
    121  CA       -13.8710   -0.9950   -7.9820 C.3    50  PRO50       0.1372
    122  C        -13.5310   -2.4850   -7.6760 C.2    50  PRO50       0.2244
    123  O        -13.7880   -3.3600   -8.5000 O.2    50  PRO50      -0.2868
    124  CB       -15.2630   -0.8820   -8.5450 C.3    50  PRO50       0.0268
    125  CG       -15.1140   -1.0640   -9.9920 C.3    50  PRO50       0.0207
    126  CD       -13.7930   -0.4460  -10.3400 C.3    50  PRO50       0.0892
    127  N        -14.9330   -4.8230   -6.0670 N.3    52  PRO52      -0.2102
    128  CA       -15.9700   -5.8700   -6.1760 C.3    52  PRO52       0.1504
    129  C        -16.0860   -6.4720   -7.5630 C.2    52  PRO52       0.2575
    130  O        -16.7070   -7.5230   -7.7280 O.2    52  PRO52      -0.2718
    131  CB       -17.2530   -5.1130   -5.8330 C.3    52  PRO52       0.0282
    132  CG       -16.7910   -4.1510   -4.8090 C.3    52  PRO52       0.0208
    133  CD       -15.5210   -3.6270   -5.4220 C.3    52  PRO52       0.0893
    134  N        -15.6010   -5.7490   -8.5620 N.am   53  TYR53      -0.1977
    135  CA       -15.7160   -6.1800   -9.9340 C.3    53  TYR53       0.1639
    136  C        -14.5830   -7.0300  -10.4360 C.2    53  TYR53       0.2290
    137  O        -14.5130   -7.3790  -11.6390 O.2    53  TYR53      -0.2864
    138  CB       -15.8280   -4.9740  -10.8600 C.3    53  TYR53       0.0560
    139  CG       -17.1770   -4.2150  -10.8520 C.ar   53  TYR53      -0.0198
    140  CD1      -18.1210   -4.3480   -9.8040 C.ar   53  TYR53      -0.0009
    141  CD2      -17.5090   -3.3730  -11.9280 C.ar   53  TYR53      -0.0009
    142  CE1      -19.3260   -3.6440   -9.8360 C.ar   53  TYR53       0.0417
    143  CE2      -18.6850   -2.6360  -11.9360 C.ar   53  TYR53       0.0417
    144  CZ       -19.5860   -2.7690  -10.8560 C.ar   53  TYR53       0.1957
    145  OH       -20.7790   -2.0910  -10.8660 O.3    53  TYR53      -0.2866
@<TRIPOS>BOND
     1    27    25   ar
     2    75    74    2
     3    26    25   ar
     4    25    24    1
     5    74    73    1
     6    72    73    1
     7    24    21    1
     8    76    73    1
     9    76    77    1
    10    78    77    1
    11    78    79    1
    12    80    79    1
    13    31    30    2
    14    21    20    1
    15    21    22    1
    16    30    29    1
    17    20    11   am
    18    28    22   am
    19    28    29    1
    20    22    23    2
    21    29    32    1
    22    11    12    2
    23    11    10    1
    24    45    44    2
    25    67    66    2
    26    10     9    1
    27    10    13    1
    28     4     3    2
    29    32    33    1
    30    40    39    1
    31    40    41    1
    32    40    43    1
    33    44    43    1
    34    44    46   am
    35     9     3   am
    36     3     2    1
    37    42    41    2
    38    66    65    1
    39    50    49    2
    40    41    47   am
    41    13    14    1
    42    33    35   ar
    43    33    34   ar
    44    15    14   ar
    45    15    17   ar
    46    35    37   ar
    47     2     1    1
    48     2     5    1
    49    49    48    1
    50    34    36   ar
    51    14    16   ar
    52    47    48    1
    53    17    19   ar
    54    68    65    1
    55    68    69    1
    56    37    38   ar
    57    65    64    1
    58    64    57   am
    59    48    51    1
    60    55    56    1
    61    36    38   ar
    62    57    58    2
    63    57    56    1
    64     5     6    1
    65    71    69   ar
    66    56    59    1
    67   143   141   ar
    68   143   144   ar
    69   141   139   ar
    70    16    18   ar
    71    19    18   ar
    72    69    70   ar
    73   137   136    2
    74     8     6    1
    75    51    52    1
    76     6     7    1
    77    53    52   ar
    78   145   144    1
    79   138   139    1
    80   138   135    1
    81   144   142   ar
    82   139   140   ar
    83    59    60    1
    84   136   135    1
    85    52    54   ar
    86   126   125    1
    87   126   120    1
    88   125   124    1
    89   135   134    1
    90   142   140   ar
    91    60    61    1
    92   120   121    1
    93   118   119   ar
    94   118   116   ar
    95   134   129   am
    96   124   121    1
    97   119   117   ar
    98   123   122    2
    99    61    62   ar
   100    61    63   ar
   101   121   122    1
   102   130   129    2
   103   116   113   ar
   104   129   128    1
   105   117   115   ar
   106   113   115   ar
   107   113   111   ar
   108   115   114   ar
   109   128   127    1
   110   128   131    1
   111   127   133    1
   112   131   132    1
   113   133   132    1
   114   111   110    1
   115   111   112   ar
   116   114   112   ar
   117   110   107    1
   118   108   107    1
   119   108   109    2
   120   107   106    1
   121   100    99    2
   122    99   106   am
   123    99    98    1
   124    87    86    1
   125    87    81    1
   126    86    85    1
   127    95    94   ar
   128    98   101    1
   129    98    97    1
   130   101   102    1
   131    85    82    1
   132    81    82    1
   133   105   103   am
   134    94    93    1
   135    94    96   ar
   136    92    93    1
   137    92    89    1
   138    82    83    1
   139    91    90    2
   140   103   102    1
   141   103   104    2
   142    88    83   am
   143    88    89    1
   144    83    84    2
   145    89    90    1
