@<TRIPOS>MOLECULE
tmp/5ih5A00.pdb
 149 142 0 0 0
SMALL
GASTEIGER

@<TRIPOS>ATOM
      1  N        -48.8140   23.7080   -2.3640 N.3    14  ILE14      -0.1231
      2  CA       -48.7410   23.6220   -0.9160 C.3    14  ILE14       0.1692
      3  C        -47.7130   24.5380   -0.3500 C.2    14  ILE14       0.2593
      4  O        -47.7340   24.7090    0.8380 O.2    14  ILE14      -0.2718
      5  CB       -48.4250   22.1740   -0.4240 C.3    14  ILE14       0.0266
      6  CG1      -47.0820   21.6330   -0.9580 C.3    14  ILE14       0.0019
      7  CG2      -49.5720   21.2670   -0.8510 C.3    14  ILE14       0.0020
      8  CD1      -46.7460   20.2210   -0.5290 C.3    14  ILE14       0.0001
      9  N        -46.8470   25.1290   -1.1730 N.am   15  GLY15      -0.1942
     10  CA       -45.7610   25.8560   -0.6590 C.3    15  GLY15       0.2014
     11  C        -45.1030   26.7250   -1.6650 C.2    15  GLY15       0.2640
     12  O        -45.2810   26.5800   -2.8630 O.2    15  GLY15      -0.2714
     13  N        -44.2760   27.5900   -1.1160 N.am   16  SER16      -0.1935
     14  CA       -43.5620   28.6130   -1.8280 C.3    16  SER16       0.2055
     15  C        -42.1050   28.4470   -1.4610 C.2    16  SER16       0.2643
     16  O        -41.7780   28.5830   -0.3190 O.2    16  SER16      -0.2714
     17  CB       -44.0980   29.9810   -1.3510 C.3    16  SER16       0.2130
     18  OG       -43.5090   31.0270   -2.0650 O.3    16  SER16      -0.2179
     19  N        -41.2400   28.1240   -2.4140 N.am   17  GLY17      -0.1954
     20  CA       -39.7800   28.0090   -2.1530 C.3    17  GLY17       0.1869
     21  C        -39.0120   29.2490   -2.6210 C.2    17  GLY17       0.2309
     22  O        -39.5910   30.1490   -3.2850 O.2    17  GLY17      -0.2863
     23  N        -44.0290   24.5970   -4.6120 N.3    22  ILE22      -0.1245
     24  CA       -44.0450   23.2180   -4.2090 C.3    22  ILE22       0.1561
     25  C        -45.4460   22.7650   -4.3170 C.2    22  ILE22       0.2260
     26  O        -46.3790   23.4270   -3.8180 O.2    22  ILE22      -0.2867
     27  CB       -43.6380   23.0160   -2.7260 C.3    22  ILE22       0.0252
     28  CG1      -42.3980   23.8700   -2.3670 C.3    22  ILE22       0.0019
     29  CG2      -43.3830   21.5290   -2.4050 C.3    22  ILE22       0.0019
     30  CD1      -41.1720   23.7840   -3.2880 C.3    22  ILE22       0.0001
     31  N        -43.9070   15.5300   -2.2930 N.3    35  ALA35      -0.1231
     32  CA       -43.7860   16.9470   -2.5810 C.3    35  ALA35       0.1694
     33  C        -42.9740   17.1040   -3.8170 C.2    35  ALA35       0.2592
     34  O        -41.8920   16.5340   -3.9050 O.2    35  ALA35      -0.2718
     35  CB       -43.0940   17.6800   -1.4550 C.3    35  ALA35       0.0304
     36  N        -43.4590   17.9510   -4.7240 N.am   36  ILE36      -0.1966
     37  CA       -42.8900   18.1260   -6.0490 C.3    36  ILE36       0.1727
     38  C        -42.5430   19.5660   -6.3420 C.2    36  ILE36       0.2616
     39  O        -43.3580   20.4540   -6.1710 O.2    36  ILE36      -0.2715
     40  CB       -43.8370   17.5980   -7.1390 C.3    36  ILE36       0.0290
     41  CG1      -44.1840   16.1370   -6.8440 C.3    36  ILE36       0.0022
     42  CG2      -43.2080   17.7330   -8.5280 C.3    36  ILE36       0.0023
     43  CD1      -44.9760   15.4270   -7.8950 C.3    36  ILE36       0.0001
     44  N        -41.3310   19.7610   -6.8270 N.am   37  LYS37      -0.1977
     45  CA       -40.8670   21.0300   -7.3450 C.3    37  LYS37       0.1596
     46  C        -40.5970   20.8810   -8.8400 C.2    37  LYS37       0.2287
     47  O        -40.0690   19.8600   -9.2870 O.2    37  LYS37      -0.2864
     48  CB       -39.5910   21.4270   -6.6450 C.3    37  LYS37       0.0298
     49  CG       -39.3200   22.9270   -6.5910 C.3    37  LYS37       0.0038
     50  CD       -38.3920   23.2550   -5.4190 C.3    37  LYS37       0.0206
     51  CE       -38.3120   24.7380   -5.0940 C.3    37  LYS37       0.1093
     52  NZ       -37.5910   25.1350   -3.8280 N.3    37  LYS37      -0.1314
     53  N        -29.5830   22.1680   -6.1970 N.3    51  GLU51      -0.1245
     54  CA       -30.1300   22.0760   -4.8600 C.3    51  GLU51       0.1567
     55  C        -30.3480   20.6110   -4.4620 C.2    51  GLU51       0.2260
     56  O        -30.1260   20.2560   -3.3260 O.2    51  GLU51      -0.2867
     57  CB       -31.4430   22.8550   -4.7550 C.3    51  GLU51       0.0388
     58  CG       -32.1680   22.7620   -3.4330 C.3    51  GLU51       0.1160
     59  CD       -33.4200   23.6720   -3.3540 C.2    51  GLU51       0.3649
     60  OE1      -33.7410   24.4250   -4.3020 O.co2  51  GLU51      -0.2457
     61  OE2      -34.1480   23.6530   -2.3450 O.co2  51  GLU51      -0.2457
     62  N        -29.0580   18.3250   -1.0310 N.3    55  TYR55      -0.1241
     63  CA       -29.8720   17.4150   -0.2060 C.3    55  TYR55       0.1605
     64  C        -29.2750   16.0310   -0.1850 C.2    55  TYR55       0.2264
     65  O        -29.1880   15.4300    0.8360 O.2    55  TYR55      -0.2867
     66  CB       -31.2900   17.3210   -0.7250 C.3    55  TYR55       0.0534
     67  CG       -32.2210   18.4230   -0.3490 C.ar   55  TYR55      -0.0201
     68  CD1      -32.8150   18.4460    0.8770 C.ar   55  TYR55      -0.0009
     69  CD2      -32.6050   19.3920   -1.2490 C.ar   55  TYR55      -0.0009
     70  CE1      -33.7350   19.4330    1.2240 C.ar   55  TYR55       0.0417
     71  CE2      -33.5320   20.3810   -0.9060 C.ar   55  TYR55       0.0417
     72  CZ       -34.1080   20.3870    0.3280 C.ar   55  TYR55       0.1957
     73  OH       -35.0310   21.3330    0.6760 O.3    55  TYR55      -0.2866
     74  N        -37.8800   17.8300   -9.1340 N.3    79  MET79      -0.1245
     75  CA       -37.4430   17.2880   -7.8390 C.3    79  MET79       0.1570
     76  C        -38.6490   16.7730   -7.0610 C.2    79  MET79       0.2261
     77  O        -39.5870   17.5180   -6.8160 O.2    79  MET79      -0.2867
     78  CB       -36.7700   18.3790   -7.0220 C.3    79  MET79       0.0387
     79  CG       -36.3070   17.9030   -5.6500 C.3    79  MET79       0.0595
     80  SD       -35.0400   18.9700   -4.9490 S.3    79  MET79      -0.1393
     81  CE       -35.9940   20.3640   -4.4220 C.3    79  MET79       0.0692
     82  N        -39.5550   15.1000   -3.3870 N.3    81  MET81      -0.1230
     83  CA       -39.1110   14.6690   -2.0710 C.3    81  MET81       0.1702
     84  C        -40.1720   14.0930   -1.2000 C.2    81  MET81       0.2592
     85  O        -41.3230   14.2610   -1.4820 O.2    81  MET81      -0.2718
     86  CB       -38.3500   15.7500   -1.3430 C.3    81  MET81       0.0401
     87  CG       -38.9570   17.0890   -1.1900 C.3    81  MET81       0.0596
     88  SD       -37.6730   18.0570   -0.2240 S.3    81  MET81      -0.1393
     89  CE       -38.5880   18.1190    1.2920 C.3    81  MET81       0.0692
     90  N        -39.7510   13.3750   -0.1690 N.am   82  GLU82      -0.1966
     91  CA       -40.6480   12.8250    0.8300 C.3    82  GLU82       0.1733
     92  C        -41.4600   13.9770    1.4350 C.2    82  GLU82       0.2616
     93  O        -40.9450   15.0710    1.7100 O.2    82  GLU82      -0.2715
     94  CB       -39.9010   12.0690    1.9480 C.3    82  GLU82       0.0429
     95  CG       -39.1820   13.0330    2.9420 C.3    82  GLU82       0.1163
     96  CD       -38.5740   12.3600    4.1250 C.2    82  GLU82       0.3649
     97  OE1      -39.3270   11.7460    4.8860 O.co2  82  GLU82      -0.2457
     98  OE2      -37.3590   12.4900    4.2890 O.co2  82  GLU82      -0.2457
     99  N        -42.7430   13.7210    1.6440 N.am   83  LEU83      -0.1963
    100  CA       -43.6270   14.7020    2.2370 C.3    83  LEU83       0.1728
    101  C        -43.4190   14.8160    3.7410 C.2    83  LEU83       0.2616
    102  O        -43.2890   13.8310    4.4420 O.2    83  LEU83      -0.2715
    103  CB       -45.0600   14.3180    1.9190 C.3    83  LEU83       0.0311
    104  CG       -46.1420   15.2900    2.3310 C.3    83  LEU83       0.0022
    105  CD1      -46.0710   16.5580    1.5140 C.3    83  LEU83       0.0001
    106  CD2      -47.5210   14.6270    2.1360 C.3    83  LEU83       0.0001
    107  N        -43.3890   16.0250    4.2360 N.am   84  LEU84      -0.1963
    108  CA       -43.2020   16.2870    5.6420 C.3    84  LEU84       0.1728
    109  C        -44.4300   17.0050    6.2030 C.2    84  LEU84       0.2617
    110  O        -45.3600   17.3130    5.4910 O.2    84  LEU84      -0.2715
    111  CB       -41.9560   17.1680    5.8770 C.3    84  LEU84       0.0311
    112  CG       -40.6140   16.5750    5.3910 C.3    84  LEU84       0.0022
    113  CD1      -39.4350   17.5590    5.5180 C.3    84  LEU84       0.0001
    114  CD2      -40.2860   15.3180    6.1480 C.3    84  LEU84       0.0001
    115  N        -44.4080   17.2360    7.5090 N.am   85  GLY85      -0.1941
    116  CA       -45.4290   17.9260    8.2190 C.3    85  GLY85       0.1998
    117  C        -45.3540   19.4260    8.1030 C.2    85  GLY85       0.2480
    118  O        -44.6110   19.9800    7.2870 O.2    85  GLY85      -0.2729
    119  N        -46.1520   20.1100    8.9100 N.am   86  PRO86      -0.2726
    120  CA       -46.2630   21.5770    8.7700 C.3    86  PRO86       0.1402
    121  C        -44.9890   22.3130    9.1520 C.2    86  PRO86       0.2269
    122  O        -44.2310   21.7790    9.8890 O.2    86  PRO86      -0.2865
    123  CB       -47.3650   21.9280    9.7410 C.3    86  PRO86       0.0296
    124  CG       -47.4910   20.7410   10.6650 C.3    86  PRO86       0.0237
    125  CD       -47.0320   19.5450    9.9470 C.3    86  PRO86       0.0939
    126  N        -39.6050   22.2520    9.3630 N.3   134  LEU134     -0.1245
    127  CA       -40.8470   21.5040    9.2380 C.3   134  LEU134      0.1561
    128  C        -40.7890   20.3050   10.1410 C.2   134  LEU134      0.2260
    129  O        -39.7330   19.6600   10.3050 O.2   134  LEU134     -0.2867
    130  CB       -40.9590   20.9850    7.8140 C.3   134  LEU134      0.0270
    131  CG       -41.6890   21.8170    6.7740 C.3   134  LEU134      0.0019
    132  CD1      -41.1430   23.2330    6.6770 C.3   134  LEU134      0.0001
    133  CD2      -41.6140   21.0870    5.4620 C.3   134  LEU134      0.0001
    134  N        -35.1840   22.7110    5.6620 N.3   147  ILE147     -0.1231
    135  CA       -35.4160   22.6210    4.2390 C.3   147  ILE147      0.1692
    136  C        -34.9700   23.8450    3.4990 C.2   147  ILE147      0.2592
    137  O        -34.6140   24.8460    4.1180 O.2   147  ILE147     -0.2718
    138  CB       -36.9120   22.4280    3.9070 C.3   147  ILE147      0.0266
    139  CG1      -37.7610   23.6420    4.2700 C.3   147  ILE147      0.0019
    140  CG2      -37.4430   21.1380    4.5170 C.3   147  ILE147      0.0020
    141  CD1      -39.2160   23.4370    3.8050 C.3   147  ILE147      0.0001
    142  N        -34.9980   23.7360    2.1700 N.am  148  ASP148     -0.1974
    143  CA       -34.7530   24.7800    1.2300 C.3   148  ASP148      0.1709
    144  C        -33.3190   25.1890    1.2010 C.2   148  ASP148      0.2293
    145  O        -32.9160   25.9970    1.9700 O.2   148  ASP148     -0.2864
    146  CB       -35.6720   25.9910    1.4390 C.3   148  ASP148      0.1436
    147  CG       -35.8230   26.7840    0.1760 C.2   148  ASP148      0.3671
    148  OD1      -34.7830   26.9820   -0.4630 O.co2 148  ASP148     -0.2456
    149  OD2      -36.9580   27.1410   -0.2330 O.co2 148  ASP148     -0.2456
@<TRIPOS>BOND
     1    47    46    2
     2    74    75    1
     3    46    45    1
     4    42    40    1
     5    43    41    1
     6    75    76    1
     7    75    78    1
     8    45    44    1
     9    45    48    1
    10    40    41    1
    11    40    37    1
    12    76    77    2
    13    78    79    1
    14    44    38   am
    15    48    49    1
    16    49    50    1
    17    38    39    2
    18    38    37    1
    19    53    54    1
    20    37    36    1
    21    79    80    1
    22    50    51    1
    23    51    52    1
    24    80    81    1
    25    54    57    1
    26    54    55    1
    27    57    58    1
    28    36    33   am
    29    23    24    1
    30    55    56    2
    31    25    24    1
    32    25    26    2
    33    60    59   ar
    34    24    27    1
    35    34    33    2
    36    33    32    1
    37    58    59    1
    38    82    83    1
    39    59    61   ar
    40    30    28    1
    41    22    21    2
    42    12    11    2
    43    27    29    1
    44    27    28    1
    45    21    20    1
    46    32    31    1
    47    32    35    1
    48    19    20    1
    49    19    15   am
    50     1     2    1
    51    83    86    1
    52    83    84    1
    53    18    17    1
    54    14    15    1
    55    14    17    1
    56    14    13    1
    57    11    13   am
    58    11    10    1
    59    85    84    2
    60    15    16    2
    61    86    87    1
    62    69    71   ar
    63    69    67   ar
    64    84    90   am
    65    87    88    1
    66     9    10    1
    67     9     3   am
    68    62    63    1
    69     6     8    1
    70     6     5    1
    71     2     5    1
    72     2     3    1
    73    71    72   ar
    74     7     5    1
    75    66    67    1
    76    66    63    1
    77   148   147   ar
    78     3     4    2
    79    67    68   ar
    80   149   147   ar
    81    88    89    1
    82    63    64    1
    83    64    65    2
    84    90    91    1
    85   147   146    1
    86    72    73    1
    87    72    70   ar
    88    91    92    1
    89    91    94    1
    90    68    70   ar
    91   144   143    1
    92   144   145    2
    93   143   146    1
    94   143   142    1
    95    92    99   am
    96    92    93    2
    97   105   104    1
    98    99   100    1
    99   103   100    1
   100   103   104    1
   101    94    95    1
   102   106   104    1
   103   142   136   am
   104   100   101    1
   105    95    96    1
   106   136   137    2
   107   136   135    1
   108   101   107   am
   109   101   102    2
   110   141   139    1
   111   138   135    1
   112   138   139    1
   113   138   140    1
   114    96    98   ar
   115    96    97   ar
   116   107   108    1
   117   135   134    1
   118   112   113    1
   119   112   111    1
   120   112   114    1
   121   133   131    1
   122   110   109    2
   123   108   111    1
   124   108   109    1
   125   109   115   am
   126   132   131    1
   127   131   130    1
   128   118   117    2
   129   115   116    1
   130   130   127    1
   131   117   116    1
   132   117   119   am
   133   120   119    1
   134   120   121    1
   135   120   123    1
   136   119   125    1
   137   121   122    2
   138   127   126    1
   139   127   128    1
   140   123   124    1
   141   125   124    1
   142   128   129    2
