@<TRIPOS>MOLECULE
tmp/5ih7A00.pdb
 117 115 0 0 0
SMALL
GASTEIGER

@<TRIPOS>ATOM
      1  N        -60.1500   28.3960  -46.9130 N.3    71  ASP71      -0.1239
      2  CA       -59.1080   28.3430  -47.9350 C.3    71  ASP71       0.1674
      3  C        -59.5340   27.2530  -48.9700 C.2    71  ASP71       0.2266
      4  O        -59.6250   26.0980  -48.6230 O.2    71  ASP71      -0.2867
      5  CB       -57.8000   27.9420  -47.2930 C.3    71  ASP71       0.1410
      6  CG       -56.6190   27.8190  -48.3050 C.2    71  ASP71       0.3668
      7  OD1      -56.7970   28.0820  -49.4830 O.co2  71  ASP71      -0.2456
      8  OD2      -55.4950   27.5120  -47.8940 O.co2  71  ASP71      -0.2456
      9  N        -53.3120   22.2800  -47.0680 N.3    80  SER80      -0.1217
     10  CA       -54.0590   23.4750  -46.8420 C.3    80  SER80       0.1889
     11  C        -55.3270   23.1470  -46.0790 C.2    80  SER80       0.2288
     12  O        -55.7350   23.9180  -45.1960 O.2    80  SER80      -0.2866
     13  CB       -54.4560   24.2020  -48.1740 C.3    80  SER80       0.2089
     14  OG       -55.1510   23.3860  -49.1420 O.3    80  SER80      -0.2183
     15  N        -56.0520   22.9500  -42.1260 N.3    83  TRP83      -0.1241
     16  CA       -56.1670   24.1900  -41.3960 C.3    83  TRP83       0.1605
     17  C        -57.5800   24.7120  -41.4270 C.2    83  TRP83       0.2264
     18  O        -57.9290   25.6360  -40.6880 O.2    83  TRP83      -0.2867
     19  CB       -55.1690   25.2590  -41.9490 C.3    83  TRP83       0.0550
     20  CG       -53.7610   24.7880  -41.8790 C.ar   83  TRP83       0.0003
     21  CD1      -52.9640   24.3870  -42.9340 C.ar   83  TRP83       0.0946
     22  CD2      -52.9750   24.5770  -40.7120 C.ar   83  TRP83       0.0152
     23  NE1      -51.7300   23.9910  -42.4900 N.ar   83  TRP83      -0.2442
     24  CE2      -51.7130   24.0930  -41.1260 C.ar   83  TRP83       0.0810
     25  CE3      -53.2050   24.7360  -39.3600 C.ar   83  TRP83       0.0012
     26  CZ2      -50.7110   23.7970  -40.2300 C.ar   83  TRP83       0.0191
     27  CZ3      -52.1980   24.4330  -38.4780 C.ar   83  TRP83       0.0001
     28  CH2      -50.9820   23.9560  -38.9130 C.ar   83  TRP83       0.0015
     29  N        -53.9180   29.8240  -33.8300 N.3   116  GLY116     -0.1210
     30  CA       -53.5560   30.8680  -34.8110 C.3   116  GLY116      0.1956
     31  C        -54.5290   30.8820  -35.9860 C.2   116  GLY116      0.2612
     32  O        -55.6020   30.2160  -35.9740 O.2   116  GLY116     -0.2717
     33  N        -54.1640   31.6250  -37.0220 N.am  117  GLY117     -0.1956
     34  CA       -55.0250   31.7940  -38.2260 C.3   117  GLY117      0.1869
     35  C        -55.2270   33.2650  -38.5850 C.2   117  GLY117      0.2309
     36  O        -56.2720   33.6400  -39.1050 O.2   117  GLY117     -0.2863
     37  N        -58.2850   35.9350  -38.6370 N.3   120  TYR120     -0.1227
     38  CA       -59.4410   35.7790  -39.5920 C.3   120  TYR120      0.1736
     39  C        -59.9590   34.3660  -39.7440 C.2   120  TYR120      0.2596
     40  O        -61.0220   34.1460  -40.3840 O.2   120  TYR120     -0.2718
     41  CB       -59.0710   36.2800  -40.9970 C.3   120  TYR120      0.0548
     42  CG       -58.0890   35.4440  -41.7140 C.ar  120  TYR120     -0.0200
     43  CD1      -58.4950   34.3480  -42.4800 C.ar  120  TYR120     -0.0009
     44  CD2      -56.7220   35.7010  -41.6020 C.ar  120  TYR120     -0.0009
     45  CE1      -57.5550   33.5280  -43.1640 C.ar  120  TYR120      0.0417
     46  CE2      -55.7680   34.9290  -42.2580 C.ar  120  TYR120      0.0417
     47  CZ       -56.1950   33.8140  -43.0560 C.ar  120  TYR120      0.1957
     48  OH       -55.2480   33.0010  -43.7230 O.3   120  TYR120     -0.2866
     49  N        -59.2200   33.4160  -39.1710 N.am  121  SER121     -0.1952
     50  CA       -59.5670   32.0280  -39.2870 C.3   121  SER121      0.1924
     51  C        -59.0340   31.2730  -38.0620 C.2   121  SER121      0.2314
     52  O        -58.3350   31.8630  -37.2240 O.2   121  SER121     -0.2863
     53  CB       -58.9060   31.4510  -40.5450 C.3   121  SER121      0.2116
     54  OG       -57.5060   31.5290  -40.4140 O.3   121  SER121     -0.2180
     55  N        -54.4520   19.8420  -33.5660 N.3   129  TYR129     -0.1241
     56  CA       -54.5830   20.4200  -32.2200 C.3   129  TYR129      0.1605
     57  C        -55.2120   19.4330  -31.2100 C.2   129  TYR129      0.2264
     58  O        -55.5760   19.8300  -30.1040 O.2   129  TYR129     -0.2867
     59  CB       -55.4140   21.7100  -32.2370 C.3   129  TYR129      0.0534
     60  CG       -54.9620   22.8510  -33.1020 C.ar  129  TYR129     -0.0201
     61  CD1      -53.6610   23.0450  -33.4470 C.ar  129  TYR129     -0.0009
     62  CD2      -55.9150   23.7300  -33.6100 C.ar  129  TYR129     -0.0009
     63  CE1      -53.2960   24.0960  -34.2800 C.ar  129  TYR129      0.0417
     64  CE2      -55.5800   24.7940  -34.3760 C.ar  129  TYR129      0.0417
     65  CZ       -54.2840   24.9740  -34.7280 C.ar  129  TYR129      0.1957
     66  OH       -54.0060   26.0630  -35.5090 O.3   129  TYR129     -0.2866
     67  N        -49.8560   29.5680  -31.3780 N.3   198  GLU198     -0.1231
     68  CA       -49.0550   29.7380  -32.5870 C.3   198  GLU198      0.1699
     69  C        -49.4910   30.8690  -33.4680 C.2   198  GLU198      0.2592
     70  O        -50.6640   31.0820  -33.6840 O.2   198  GLU198     -0.2718
     71  CB       -48.9220   28.4360  -33.3690 C.3   198  GLU198      0.0402
     72  CG       -47.8730   28.5030  -34.4780 C.3   198  GLU198      0.1161
     73  CD       -48.5150   28.8550  -35.8120 C.2   198  GLU198      0.3649
     74  OE1      -49.7820   28.8790  -35.8870 O.co2 198  GLU198     -0.2457
     75  OE2      -47.7730   29.1050  -36.7980 O.co2 198  GLU198     -0.2457
     76  N        -48.5080   31.6280  -33.9320 N.am  199  SER199     -0.1952
     77  CA       -48.7440   32.7220  -34.8470 C.3   199  SER199      0.1924
     78  C        -49.7300   33.7600  -34.2140 C.2   199  SER199      0.2314
     79  O        -49.4120   34.3400  -33.2060 O.2   199  SER199     -0.2863
     80  CB       -49.2090   32.1630  -36.2220 C.3   199  SER199      0.2116
     81  OG       -49.3330   33.2560  -37.1630 O.3   199  SER199     -0.2180
     82  N        -45.3880   30.4060  -46.9530 N.3   329  PHE329     -0.1227
     83  CA       -46.8230   30.2840  -47.1580 C.3   329  PHE329      0.1736
     84  C        -47.4080   31.5460  -47.8000 C.2   329  PHE329      0.2595
     85  O        -48.2920   31.4920  -48.6580 O.2   329  PHE329     -0.2718
     86  CB       -47.5030   30.1400  -45.8040 C.3   329  PHE329      0.0547
     87  CG       -48.3040   28.9690  -45.6870 C.ar  329  PHE329     -0.0202
     88  CD1      -49.4730   28.8760  -46.3830 C.ar  329  PHE329     -0.0042
     89  CD2      -47.9100   27.9460  -44.8510 C.ar  329  PHE329     -0.0042
     90  CE1      -50.2540   27.7330  -46.3000 C.ar  329  PHE329     -0.0003
     91  CE2      -48.6670   26.7880  -44.7450 C.ar  329  PHE329     -0.0003
     92  CZ       -49.8430   26.6700  -45.4900 C.ar  329  PHE329     -0.0000
     93  N        -46.9510   32.6960  -47.3300 N.am  330  PHE330     -0.1976
     94  CA       -47.6000   33.9290  -47.6840 C.3   330  PHE330      0.1639
     95  C        -47.1430   34.3020  -49.0700 C.2   330  PHE330      0.2290
     96  O        -47.8780   34.9180  -49.7740 O.2   330  PHE330     -0.2864
     97  CB       -47.3050   35.0170  -46.6440 C.3   330  PHE330      0.0560
     98  CG       -47.7680   34.6300  -45.2740 C.ar  330  PHE330     -0.0200
     99  CD1      -46.9570   33.8390  -44.4650 C.ar  330  PHE330     -0.0042
    100  CD2      -49.0740   34.8490  -44.9120 C.ar  330  PHE330     -0.0042
    101  CE1      -47.4200   33.3650  -43.2730 C.ar  330  PHE330     -0.0003
    102  CE2      -49.5330   34.4000  -43.7090 C.ar  330  PHE330     -0.0003
    103  CZ       -48.7040   33.6640  -42.8880 C.ar  330  PHE330     -0.0000
    104  N        -44.4040   27.8100  -41.7210 N.3   439  HIS439     -0.1226
    105  CA       -45.1920   28.4030  -40.7260 C.3   439  HIS439      0.1752
    106  C        -46.1490   27.3280  -40.2630 C.2   439  HIS439      0.2596
    107  O        -46.8560   26.7520  -41.0530 O.2   439  HIS439     -0.2718
    108  CB       -45.9210   29.5510  -41.3840 C.3   439  HIS439      0.0759
    109  CG       -46.6850   30.4270  -40.4640 C.ar  439  HIS439      0.0818
    110  ND1      -46.0650   31.2540  -39.5290 N.ar  439  HIS439     -0.2268
    111  CD2      -48.0200   30.6660  -40.3760 C.ar  439  HIS439      0.1154
    112  CE1      -46.9970   31.9650  -38.9060 C.ar  439  HIS439      0.1986
    113  NE2      -48.1880   31.6170  -39.3930 N.ar  439  HIS439     -0.2212
    114  N        -46.1600   27.0370  -38.9750 N.am  440  GLY440     -0.1957
    115  CA       -47.1660   26.0930  -38.4600 C.3   440  GLY440      0.1869
    116  C        -46.7770   24.6380  -38.3760 C.2   440  GLY440      0.2309
    117  O        -47.5280   23.8470  -37.8310 O.2   440  GLY440     -0.2863
@<TRIPOS>BOND
     1    96    95    2
     2     7     6   ar
     3    14    13    1
     4    95    94    1
     5     3     4    2
     6     3     2    1
     7    85    84    2
     8     6     8   ar
     9     6     5    1
    10    13    10    1
    11     2     5    1
    12     2     1    1
    13    84    93   am
    14    84    83    1
    15    94    93    1
    16    94    97    1
    17    83    82    1
    18    83    86    1
    19     9    10    1
    20    10    11    1
    21    97    98    1
    22    88    90   ar
    23    88    87   ar
    24    90    92   ar
    25    11    12    2
    26    86    87    1
    27    87    89   ar
    28    92    91   ar
    29    98   100   ar
    30    98    99   ar
    31   100   102   ar
    32    89    91   ar
    33    99   101   ar
    34    48    47    1
    35   102   103   ar
    36   101   103   ar
    37    45    47   ar
    38    45    43   ar
    39    47    46   ar
    40    21    23   ar
    41    21    20   ar
    42    23    24   ar
    43    43    42   ar
    44    46    44   ar
    45    15    16    1
    46    19    20    1
    47    19    16    1
    48    20    22   ar
    49   104   105    1
    50    42    44   ar
    51    42    41    1
    52    17    16    1
    53    17    18    2
    54   108   105    1
    55   108   109    1
    56    24    22   ar
    57    24    26   ar
    58   107   106    2
    59    41    38    1
    60   105   106    1
    61    22    25   ar
    62    53    54    1
    63    53    50    1
    64   109   111   ar
    65   109   110   ar
    66    40    39    2
    67   111   113   ar
    68   106   114   am
    69    26    28   ar
    70    39    38    1
    71    39    49   am
    72    38    37    1
    73   110   112   ar
    74   113   112   ar
    75    25    27   ar
    76    50    49    1
    77    50    51    1
    78    36    35    2
    79   114   115    1
    80    28    27   ar
    81    35    34    1
    82   115   116    1
    83   116   117    2
    84    34    33    1
    85    51    52    2
    86    81    80    1
    87    33    31   am
    88    75    73   ar
    89    80    77    1
    90    31    32    2
    91    31    30    1
    92    74    73   ar
    93    73    72    1
    94    66    65    1
    95    77    78    1
    96    77    76    1
    97    30    29    1
    98    65    64   ar
    99    65    63   ar
   100    72    71    1
   101    64    62   ar
   102    63    61   ar
   103    78    79    2
   104    76    69   am
   105    70    69    2
   106    62    60   ar
   107    55    56    1
   108    69    68    1
   109    61    60   ar
   110    71    68    1
   111    60    59    1
   112    68    67    1
   113    59    56    1
   114    56    57    1
   115    57    58    2
