@<TRIPOS>MOLECULE
tmp/5ih8A00.pdb
 131 121 0 0 0
SMALL
GASTEIGER

@<TRIPOS>ATOM
      1  N         -6.3090  -14.5450   -8.2230 N.3    14  GLU14      -0.1245
      2  CA        -6.0310  -15.7620   -7.4570 C.3    14  GLU14       0.1567
      3  C         -6.1450  -15.6880   -5.9430 C.2    14  GLU14       0.2260
      4  O         -6.0580  -14.6070   -5.3500 O.2    14  GLU14      -0.2867
      5  CB        -4.6850  -16.3910   -7.8810 C.3    14  GLU14       0.0388
      6  CG        -3.4740  -15.5080   -7.6180 C.3    14  GLU14       0.1160
      7  CD        -3.1040  -14.6070   -8.7780 C.2    14  GLU14       0.3649
      8  OE1       -3.8590  -13.6490   -9.0600 O.co2  14  GLU14      -0.2457
      9  OE2       -2.0640  -14.8720   -9.4200 O.co2  14  GLU14      -0.2457
     10  N         -4.5630  -16.1470   -2.4250 N.3    16  ILE16      -0.1245
     11  CA        -3.1890  -15.9910   -1.9700 C.3    16  ILE16       0.1561
     12  C         -2.9930  -16.5630   -0.5700 C.2    16  ILE16       0.2260
     13  O         -1.8880  -16.9920   -0.2310 O.2    16  ILE16      -0.2867
     14  CB        -2.6440  -14.5540   -2.1600 C.3    16  ILE16       0.0252
     15  CG1       -3.6100  -13.5060   -1.6110 C.3    16  ILE16       0.0019
     16  CG2       -2.3180  -14.2890   -3.6290 C.3    16  ILE16       0.0019
     17  CD1       -3.0430  -12.7360   -0.5370 C.3    16  ILE16       0.0001
     18  N         -8.1360  -15.2860    1.4820 N.3    21  VAL21      -0.1245
     19  CA        -7.8390  -13.9850    0.8620 C.3    21  VAL21       0.1561
     20  C         -7.6910  -14.1650   -0.6520 C.2    21  VAL21       0.2260
     21  O         -6.9150  -15.0160   -1.0990 O.2    21  VAL21      -0.2867
     22  CB        -6.6210  -13.2340    1.4890 C.3    21  VAL21       0.0252
     23  CG1       -6.4100  -11.8680    0.8190 C.3    21  VAL21       0.0019
     24  CG2       -6.7760  -13.0620    3.0020 C.3    21  VAL21       0.0019
     25  N         -7.1080  -12.0250   -4.4660 N.3    23  LEU23      -0.1245
     26  CA        -6.7300  -10.7570   -5.0790 C.3    23  LEU23       0.1561
     27  C         -7.7900  -10.4690   -6.1270 C.2    23  LEU23       0.2260
     28  O         -8.4210  -11.4030   -6.6450 O.2    23  LEU23      -0.2867
     29  CB        -5.3130  -10.7810   -5.6700 C.3    23  LEU23       0.0270
     30  CG        -4.1820  -11.1130   -4.6400 C.3    23  LEU23       0.0019
     31  CD1       -2.8100  -10.9870   -5.2740 C.3    23  LEU23       0.0001
     32  CD2       -4.2570  -10.2130   -3.3680 C.3    23  LEU23       0.0001
     33  N         -7.4770   -6.4850   -2.1800 N.3    34  ALA34      -0.1245
     34  CA        -7.4380   -7.8070   -1.5930 C.3    34  ALA34       0.1562
     35  C         -8.8410   -8.0080   -1.0110 C.2    34  ALA34       0.2260
     36  O         -9.4350   -7.0620   -0.4890 O.2    34  ALA34      -0.2867
     37  CB        -6.3970   -7.8850   -0.4910 C.3    34  ALA34       0.0290
     38  N        -10.9910  -10.2890    1.7060 N.3    36  LYS36      -0.1245
     39  CA       -11.0020  -11.2580    2.8020 C.3    36  LYS36       0.1561
     40  C        -12.3910  -11.8790    2.7870 C.2    36  LYS36       0.2260
     41  O        -13.3930  -11.1650    2.7670 O.2    36  LYS36      -0.2867
     42  CB       -10.7400  -10.5340    4.1230 C.3    36  LYS36       0.0271
     43  CG       -10.3940  -11.4150    5.2890 C.3    36  LYS36       0.0035
     44  CD        -9.8760  -10.5210    6.4190 C.3    36  LYS36       0.0206
     45  CE        -9.8830  -11.2370    7.7470 C.3    36  LYS36       0.1093
     46  NZ        -9.2090  -10.4430    8.8110 N.3    36  LYS36      -0.1314
     47  N        -13.9860   -6.7190   13.8000 N.3    50  GLU50      -0.1245
     48  CA       -13.0520   -6.1350   12.8340 C.3    50  GLU50       0.1567
     49  C        -13.7320   -5.0930   11.9590 C.2    50  GLU50       0.2260
     50  O        -13.1610   -4.0240   11.7390 O.2    50  GLU50      -0.2867
     51  CB       -12.3770   -7.2020   11.9690 C.3    50  GLU50       0.0388
     52  CG       -11.3610   -6.5890   11.0110 C.3    50  GLU50       0.1160
     53  CD       -10.4420   -7.5640   10.3180 C.2    50  GLU50       0.3649
     54  OE1      -10.8920   -8.6920   10.0090 O.co2  50  GLU50      -0.2457
     55  OE2       -9.2720   -7.1910   10.0660 O.co2  50  GLU50      -0.2457
     56  N         -4.3850   -0.8370    7.1890 N.3    63  CYS63      -0.1235
     57  CA        -4.8730   -1.3250    5.9060 C.3    63  CYS63       0.1677
     58  C         -6.3340   -0.9540    5.7850 C.2    63  CYS63       0.2270
     59  O         -7.1330   -1.2870    6.6550 O.2    63  CYS63      -0.2867
     60  CB        -4.6680   -2.8270    5.7920 C.3    63  CYS63       0.0956
     61  SG        -5.3200   -3.5210    4.2660 S.3    63  CYS63      -0.0801
     62  N        -10.3050   -4.8100    0.8000 N.3    79  LEU79      -0.1231
     63  CA        -9.2610   -4.0820    1.5140 C.3    79  LEU79       0.1693
     64  C         -8.1460   -3.5880    0.6240 C.2    79  LEU79       0.2592
     65  O         -7.9650   -4.0660   -0.4970 O.2    79  LEU79      -0.2718
     66  CB        -8.6900   -5.0140    2.6090 C.3    79  LEU79       0.0284
     67  CG        -9.6480   -5.2920    3.7850 C.3    79  LEU79       0.0019
     68  CD1       -9.5590   -6.7410    4.2190 C.3    79  LEU79       0.0001
     69  CD2       -9.3960   -4.3300    4.9610 C.3    79  LEU79       0.0001
     70  N         -7.3960   -2.6220    1.1490 N.am   80  GLU80      -0.1966
     71  CA        -6.2440   -1.9790    0.5140 C.3    80  GLU80       0.1733
     72  C         -5.2360   -3.0390    0.0980 C.2    80  GLU80       0.2616
     73  O         -4.8950   -3.9220    0.8810 O.2    80  GLU80      -0.2715
     74  CB        -5.6320   -0.9830    1.5160 C.3    80  GLU80       0.0429
     75  CG        -4.4410   -0.1890    1.0080 C.3    80  GLU80       0.1163
     76  CD        -3.9750    0.8870    1.9760 C.2    80  GLU80       0.3649
     77  OE1       -4.5240    0.9730    3.0990 O.co2  80  GLU80      -0.2457
     78  OE2       -3.0240    1.6200    1.6260 O.co2  80  GLU80      -0.2457
     79  N         -4.7660   -2.9310   -1.1380 N.am   81  TYR81      -0.1960
     80  CA        -3.8240   -3.8550   -1.7550 C.3    81  TYR81       0.1771
     81  C         -2.4210   -3.6510   -1.1900 C.2    81  TYR81       0.2620
     82  O         -1.8720   -2.5640   -1.3500 O.2    81  TYR81      -0.2715
     83  CB        -3.8260   -3.5740   -3.2710 C.3    81  TYR81       0.0574
     84  CG        -3.1260   -4.6270   -4.0990 C.ar   81  TYR81      -0.0198
     85  CD1       -3.6300   -5.9190   -4.1880 C.ar   81  TYR81      -0.0009
     86  CD2       -2.0030   -4.3090   -4.8620 C.ar   81  TYR81      -0.0009
     87  CE1       -3.0340   -6.8740   -5.0110 C.ar   81  TYR81       0.0417
     88  CE2       -1.3820   -5.2660   -5.6670 C.ar   81  TYR81       0.0417
     89  CZ        -1.8930   -6.5510   -5.7250 C.ar   81  TYR81       0.1957
     90  OH        -1.2900   -7.5120   -6.5040 O.3    81  TYR81      -0.2866
     91  N         -1.8310   -4.6970   -0.5680 N.am   82  CYS82      -0.1954
     92  CA        -0.4800   -4.6220    0.0350 C.3    82  CYS82       0.1828
     93  C          0.4790   -5.6820   -0.5650 C.2    82  CYS82       0.2467
     94  O          0.7010   -6.7260    0.0560 O.2    82  CYS82      -0.2730
     95  CB        -0.5840   -4.7450    1.5530 C.3    82  CYS82       0.0996
     96  SG        -1.6010   -3.4520    2.3070 S.3    82  CYS82      -0.0797
     97  N          1.0480   -5.4240   -1.7620 N.am   83  PRO83      -0.2726
     98  CA         1.8690   -6.4590   -2.4460 C.3    83  PRO83       0.1402
     99  C          3.3010   -6.7030   -1.9570 C.2    83  PRO83       0.2269
    100  O          4.0010   -7.5570   -2.5220 O.2    83  PRO83      -0.2865
    101  CB         1.8770   -5.9800   -3.8980 C.3    83  PRO83       0.0296
    102  CG         1.8230   -4.4770   -3.7750 C.3    83  PRO83       0.0237
    103  CD         0.8620   -4.2380   -2.6270 C.3    83  PRO83       0.0939
    104  N          4.1490   -7.9120    0.9120 N.3    85  GLY85      -0.1225
    105  CA         4.1570   -9.0620    1.8130 C.3    85  GLY85       0.1811
    106  C          4.1750   -8.7460    3.2950 C.2    85  GLY85       0.2280
    107  O          4.1420   -7.5740    3.7000 O.2    85  GLY85      -0.2866
    108  N          1.7110   -5.5250    6.9750 N.3   132  LEU132     -0.1245
    109  CA         2.0370   -5.7480    5.5610 C.3   132  LEU132      0.1561
    110  C          2.6820   -4.5200    4.9160 C.2   132  LEU132      0.2260
    111  O          2.4180   -3.3830    5.3200 O.2   132  LEU132     -0.2867
    112  CB         0.7560   -6.0790    4.7570 C.3   132  LEU132      0.0270
    113  CG        -0.2280   -7.1040    5.3090 C.3   132  LEU132      0.0019
    114  CD1       -1.4090   -7.2650    4.3440 C.3   132  LEU132      0.0001
    115  CD2        0.4400   -8.4630    5.5180 C.3   132  LEU132      0.0001
    116  N         -2.9980   -4.8610    9.9950 N.3   142  ILE142     -0.1231
    117  CA        -4.1680   -5.6640    9.6500 C.3   142  ILE142      0.1692
    118  C         -4.7050   -6.4470   10.8390 C.2   142  ILE142      0.2592
    119  O         -4.1080   -6.4480   11.9220 O.2   142  ILE142     -0.2718
    120  CB        -3.9060   -6.6180    8.4240 C.3   142  ILE142      0.0266
    121  CG1       -2.8560   -7.7240    8.7510 C.3   142  ILE142      0.0019
    122  CG2       -3.5080   -5.8400    7.1700 C.3   142  ILE142      0.0020
    123  CD1       -2.8770   -8.9670    7.8000 C.3   142  ILE142      0.0001
    124  N         -5.8310   -7.1400   10.6040 N.am  143  ASP143     -0.1974
    125  CA        -6.5110   -8.0230   11.5480 C.3   143  ASP143      0.1709
    126  C         -6.9190   -7.3660   12.8530 C.2   143  ASP143      0.2293
    127  O         -6.2790   -7.5730   13.8840 O.2   143  ASP143     -0.2864
    128  CB        -5.7210   -9.3220   11.7980 C.3   143  ASP143      0.1436
    129  CG        -6.5860  -10.4400   12.3530 C.2   143  ASP143      0.3671
    130  OD1       -7.7510  -10.1620   12.7300 O.co2 143  ASP143     -0.2456
    131  OD2       -6.1110  -11.6000   12.3810 O.co2 143  ASP143     -0.2456
@<TRIPOS>BOND
     1     9     7   ar
     2     8     7   ar
     3     7     6    1
     4     1     2    1
     5     5     6    1
     6     5     2    1
     7     2     3    1
     8    28    27    2
     9    90    89    1
    10    27    26    1
    11     3     4    2
    12    89    88   ar
    13    89    87   ar
    14    29    26    1
    15    29    30    1
    16    88    86   ar
    17    31    30    1
    18    26    25    1
    19    87    85   ar
    20    86    84   ar
    21    30    32    1
    22    85    84   ar
    23    84    83    1
    24   101   102    1
    25   101    98    1
    26   102   103    1
    27    16    14    1
    28    83    80    1
    29   103    97    1
    30   100    99    2
    31    98    99    1
    32    98    97    1
    33    10    11    1
    34    33    34    1
    35    14    11    1
    36    14    15    1
    37    11    12    1
    38    97    93   am
    39    80    81    1
    40    80    79    1
    41    15    17    1
    42    34    35    1
    43    34    37    1
    44    82    81    2
    45    81    91   am
    46    79    72   am
    47    21    20    2
    48    35    36    2
    49    20    19    1
    50    12    13    2
    51    91    92    1
    52    93    92    1
    53    93    94    2
    54    65    64    2
    55    92    95    1
    56    72    71    1
    57    72    73    2
    58    71    70    1
    59    71    74    1
    60    64    70   am
    61    64    63    1
    62    62    63    1
    63    23    22    1
    64    19    18    1
    65    19    22    1
    66   104   105    1
    67    75    74    1
    68    75    76    1
    69    22    24    1
    70    63    66    1
    71    95    96    1
    72    78    76   ar
    73    38    39    1
    74   105   106    1
    75    76    77   ar
    76    66    67    1
    77    41    40    2
    78    40    39    1
    79    39    42    1
    80   106   107    2
    81    67    68    1
    82    67    69    1
    83    42    43    1
    84    61    60    1
    85   114   113    1
    86   112   113    1
    87   112   109    1
    88   110   111    2
    89   110   109    1
    90    43    44    1
    91   113   115    1
    92   109   108    1
    93    58    57    1
    94    58    59    2
    95    60    57    1
    96    57    56    1
    97    44    45    1
    98   122   120    1
    99    45    46    1
   100   123   121    1
   101   120   121    1
   102   120   117    1
   103   117   116    1
   104   117   118    1
   105    54    53   ar
   106    55    53   ar
   107    53    52    1
   108   124   118   am
   109   124   125    1
   110   118   119    2
   111    52    51    1
   112   125   128    1
   113   125   126    1
   114    50    49    2
   115   128   129    1
   116    49    48    1
   117    51    48    1
   118   129   131   ar
   119   129   130   ar
   120    48    47    1
   121   126   127    2
