@<TRIPOS>MOLECULE
tmp/5ih9A00.pdb
 159 148 0 0 0
SMALL
GASTEIGER

@<TRIPOS>ATOM
      1  N         -8.1470  -14.6420   -7.9810 N.3    14  GLU14      -0.1245
      2  CA        -7.9070  -15.8660   -7.2300 C.3    14  GLU14       0.1567
      3  C         -8.0650  -15.7580   -5.7210 C.2    14  GLU14       0.2260
      4  O         -7.9580  -14.6730   -5.1410 O.2    14  GLU14      -0.2867
      5  CB        -6.5200  -16.4580   -7.5890 C.3    14  GLU14       0.0388
      6  CG        -5.3300  -15.7670   -6.9110 C.3    14  GLU14       0.1160
      7  CD        -4.7950  -14.5020   -7.5550 C.2    14  GLU14       0.3649
      8  OE1       -5.5310  -13.8520   -8.3350 O.co2  14  GLU14      -0.2457
      9  OE2       -3.6330  -14.1430   -7.2570 O.co2  14  GLU14      -0.2457
     10  N         -6.3960  -16.4420   -2.2360 N.3    16  ILE16      -0.1231
     11  CA        -5.0160  -16.5850   -1.7780 C.3    16  ILE16       0.1692
     12  C         -5.0180  -17.4850   -0.5360 C.2    16  ILE16       0.2593
     13  O         -6.0360  -17.5510    0.1580 O.2    16  ILE16      -0.2718
     14  CB        -4.3200  -15.2230   -1.5760 C.3    16  ILE16       0.0266
     15  CG1       -5.1050  -14.3310   -0.5900 C.3    16  ILE16       0.0019
     16  CG2       -4.0790  -14.5250   -2.9390 C.3    16  ILE16       0.0020
     17  CD1       -4.2590  -13.2630    0.0740 C.3    16  ILE16       0.0001
     18  N         -3.9170  -18.2100   -0.3150 N.am   17  GLY17      -0.1942
     19  CA        -3.7570  -19.1040    0.8300 C.3    17  GLY17       0.2014
     20  C         -3.8500  -18.3410    2.1400 C.2    17  GLY17       0.2639
     21  O         -3.1950  -17.3090    2.3020 O.2    17  GLY17      -0.2714
     22  N         -4.7400  -18.7860    3.0410 N.am   18  THR18      -0.1950
     23  CA        -4.9660  -18.1620    4.3580 C.3    18  THR18       0.1897
     24  C         -5.1380  -19.2720    5.4080 C.2    18  THR18       0.2313
     25  O         -4.9880  -20.4550    5.0860 O.2    18  THR18      -0.2863
     26  CB        -6.2440  -17.2680    4.3520 C.3    18  THR18       0.1794
     27  OG1       -7.3800  -18.0720    4.0070 O.3    18  THR18      -0.2208
     28  CG2       -6.1320  -16.0440    3.4360 C.3    18  THR18       0.0378
     29  N         -9.6570  -15.2290    1.7120 N.3    24  VAL24      -0.1245
     30  CA        -9.3340  -13.9290    1.1050 C.3    24  VAL24       0.1561
     31  C         -9.2520  -14.1520   -0.3890 C.2    24  VAL24       0.2260
     32  O         -8.5270  -15.0380   -0.8420 O.2    24  VAL24      -0.2867
     33  CB        -8.0790  -13.2220    1.6750 C.3    24  VAL24       0.0252
     34  CG1       -7.7150  -11.9790    0.8550 C.3    24  VAL24       0.0019
     35  CG2       -8.2670  -12.8550    3.1470 C.3    24  VAL24       0.0019
     36  N         -8.7340  -12.1700   -4.2020 N.3    26  LEU26      -0.1245
     37  CA        -8.3450  -10.9270   -4.8650 C.3    26  LEU26       0.1561
     38  C         -9.3890  -10.5880   -5.9000 C.2    26  LEU26       0.2260
     39  O        -10.1200  -11.4790   -6.3490 O.2    26  LEU26      -0.2867
     40  CB        -6.9260  -10.9830   -5.4460 C.3    26  LEU26       0.0270
     41  CG        -5.8160  -11.3450   -4.4340 C.3    26  LEU26       0.0019
     42  CD1       -4.4510  -11.3440   -5.1020 C.3    26  LEU26       0.0001
     43  CD2       -5.8370  -10.4260   -3.1720 C.3    26  LEU26       0.0001
     44  N         -8.6940   -6.5450   -2.0200 N.3    37  ALA37      -0.1245
     45  CA        -8.6640   -7.8510   -1.3950 C.3    37  ALA37       0.1562
     46  C        -10.0280   -7.9760   -0.7420 C.2    37  ALA37       0.2260
     47  O        -10.5330   -7.0110   -0.1390 O.2    37  ALA37      -0.2867
     48  CB        -7.5670   -7.9300   -0.3380 C.3    37  ALA37       0.0290
     49  N        -12.1680  -10.1630    1.9910 N.3    39  LYS39      -0.1245
     50  CA       -12.1990  -11.1320    3.0890 C.3    39  LYS39       0.1561
     51  C        -13.6380  -11.6760    3.1500 C.2    39  LYS39       0.2260
     52  O        -14.6140  -10.9090    3.1810 O.2    39  LYS39      -0.2867
     53  CB       -11.7720  -10.4050    4.3680 C.3    39  LYS39       0.0271
     54  CG       -11.5370  -11.2640    5.5900 C.3    39  LYS39       0.0035
     55  CD       -11.1100  -10.3320    6.7450 C.3    39  LYS39       0.0206
     56  CE       -10.8050  -11.0840    8.0050 C.3    39  LYS39       0.1093
     57  NZ       -10.2560  -10.1750    9.0300 N.3    39  LYS39      -0.1314
     58  N        -14.5700   -6.3440   14.1080 N.3    52  GLU52      -0.1245
     59  CA       -13.6430   -5.8080   13.1170 C.3    52  GLU52       0.1567
     60  C        -14.3030   -4.7560   12.2380 C.2    52  GLU52       0.2260
     61  O        -13.6930   -3.7220   11.9960 O.2    52  GLU52      -0.2867
     62  CB       -13.0130   -6.9090   12.2590 C.3    52  GLU52       0.0388
     63  CG       -12.0480   -6.3340   11.2320 C.3    52  GLU52       0.1160
     64  CD       -11.2430   -7.3820   10.5030 C.2    52  GLU52       0.3649
     65  OE1      -11.7860   -8.4770   10.2410 O.co2  52  GLU52      -0.2457
     66  OE2      -10.0560   -7.1210   10.2230 O.co2  52  GLU52      -0.2457
     67  N         -4.9270   -0.9760    7.0490 N.3    65  CYS65      -0.1235
     68  CA        -5.5450   -1.4830    5.8100 C.3    65  CYS65       0.1677
     69  C         -6.9970   -1.0320    5.7610 C.2    65  CYS65       0.2270
     70  O         -7.7740   -1.3480    6.6500 O.2    65  CYS65      -0.2867
     71  CB        -5.4330   -2.9910    5.7740 C.3    65  CYS65       0.0956
     72  SG        -6.1980   -3.7290    4.3200 S.3    65  CYS65      -0.0801
     73  N        -11.3020   -4.7360    1.0280 N.3    81  LEU81      -0.1231
     74  CA       -10.2040   -4.0580    1.6970 C.3    81  LEU81       0.1693
     75  C         -9.0980   -3.5890    0.7780 C.2    81  LEU81       0.2592
     76  O         -8.9580   -4.0940   -0.3340 O.2    81  LEU81      -0.2718
     77  CB        -9.6470   -5.0300    2.7660 C.3    81  LEU81       0.0284
     78  CG       -10.6010   -5.3490    3.9410 C.3    81  LEU81       0.0019
     79  CD1      -10.4890   -6.8090    4.3440 C.3    81  LEU81       0.0001
     80  CD2      -10.3460   -4.3860    5.1400 C.3    81  LEU81       0.0001
     81  N         -8.2630   -2.6760    1.2870 N.am   82  GLU82      -0.1966
     82  CA        -7.0840   -2.1280    0.6070 C.3    82  GLU82       0.1733
     83  C         -6.1080   -3.2340    0.1750 C.2    82  GLU82       0.2616
     84  O         -5.7710   -4.1260    0.9490 O.2    82  GLU82      -0.2715
     85  CB        -6.3870   -1.1460    1.5610 C.3    82  GLU82       0.0429
     86  CG        -5.2120   -0.4030    0.9510 C.3    82  GLU82       0.1163
     87  CD        -4.6260    0.5980    1.9240 C.2    82  GLU82       0.3649
     88  OE1       -5.1200    0.7010    3.0770 O.co2  82  GLU82      -0.2457
     89  OE2       -3.7280    1.3530    1.4940 O.co2  82  GLU82      -0.2457
     90  N         -5.6880   -3.1680   -1.0740 N.am   83  TYR83      -0.1960
     91  CA        -4.7990   -4.1370   -1.7370 C.3    83  TYR83       0.1771
     92  C         -3.3680   -3.9470   -1.2420 C.2    83  TYR83       0.2620
     93  O         -2.8000   -2.8560   -1.3790 O.2    83  TYR83      -0.2715
     94  CB        -4.9050   -3.8960   -3.2580 C.3    83  TYR83       0.0574
     95  CG        -4.3060   -4.9850   -4.1190 C.ar   83  TYR83      -0.0198
     96  CD1       -4.9110   -6.2380   -4.2140 C.ar   83  TYR83      -0.0009
     97  CD2       -3.2100   -4.7240   -4.9430 C.ar   83  TYR83      -0.0009
     98  CE1       -4.4200   -7.2120   -5.0790 C.ar   83  TYR83       0.0417
     99  CE2       -2.6970   -5.6990   -5.7950 C.ar   83  TYR83       0.0417
    100  CZ        -3.3180   -6.9320   -5.8780 C.ar   83  TYR83       0.1957
    101  OH        -2.7930   -7.9030   -6.7010 O.3    83  TYR83      -0.2866
    102  N         -2.8020   -5.0010   -0.6290 N.am   84  CYS84      -0.1954
    103  CA        -1.4530   -4.9760   -0.0340 C.3    84  CYS84       0.1828
    104  C         -0.6210   -6.1070   -0.6520 C.2    84  CYS84       0.2467
    105  O         -0.4760   -7.1640   -0.0280 O.2    84  CYS84      -0.2730
    106  CB        -1.5790   -5.1430    1.4740 C.3    84  CYS84       0.0996
    107  SG        -2.5190   -3.8090    2.2480 S.3    84  CYS84      -0.0797
    108  N         -0.0580   -5.8850   -1.8610 N.am   85  PRO85      -0.2726
    109  CA         0.6350   -6.9900   -2.5710 C.3    85  PRO85       0.1402
    110  C          2.0540   -7.3300   -2.1080 C.2    85  PRO85       0.2269
    111  O          2.6200   -8.3050   -2.6000 O.2    85  PRO85      -0.2865
    112  CB         0.6070   -6.5300   -4.0380 C.3    85  PRO85       0.0296
    113  CG         0.6520   -5.0330   -3.9460 C.3    85  PRO85       0.0237
    114  CD        -0.1870   -4.6950   -2.7220 C.3    85  PRO85       0.0939
    115  N          3.0500   -8.4690    0.7480 N.3    87  GLY87      -0.1210
    116  CA         3.1060   -9.5990    1.6770 C.3    87  GLY87       0.1956
    117  C          3.2350   -9.2300    3.1420 C.2    87  GLY87       0.2611
    118  O          3.3120   -8.0460    3.4940 O.2    87  GLY87      -0.2717
    119  N          3.2470  -10.2580    4.0120 N.am   88  GLU88      -0.1979
    120  CA         3.3230  -10.0540    5.4590 C.3    88  GLU88       0.1602
    121  C          4.7080   -9.6130    5.8600 C.2    88  GLU88       0.2287
    122  O          5.7020   -9.9950    5.2360 O.2    88  GLU88      -0.2864
    123  CB         3.0050  -11.3610    6.2170 C.3    88  GLU88       0.0415
    124  CG         1.6510  -11.9590    5.8730 C.3    88  GLU88       0.1163
    125  CD         1.3470  -13.2910    6.5320 C.2    88  GLU88       0.3649
    126  OE1        2.1630  -13.7570    7.3610 O.co2  88  GLU88      -0.2457
    127  OE2        0.2560  -13.8410    6.2580 O.co2  88  GLU88      -0.2457
    128  N          6.8790  -12.6790    6.6530 N.3    91  ASP91      -0.1239
    129  CA         7.6200  -13.2860    5.5350 C.3    91  ASP91       0.1674
    130  C          8.8140  -12.4240    5.0950 C.2    91  ASP91       0.2266
    131  O          9.8550  -12.9480    4.7050 O.2    91  ASP91      -0.2867
    132  CB         6.6640  -13.5630    4.3710 C.3    91  ASP91       0.1410
    133  CG         5.6350  -14.6410    4.6680 C.2    91  ASP91       0.3668
    134  OD1        5.8630  -15.4430    5.5970 O.co2  91  ASP91      -0.2456
    135  OD2        4.6370  -14.7260    3.9250 O.co2  91  ASP91      -0.2456
    136  N          0.9230   -5.8860    6.7140 N.3   134  LEU134     -0.1245
    137  CA         1.1480   -6.1720    5.3010 C.3   134  LEU134      0.1561
    138  C          1.7580   -4.9850    4.5850 C.2   134  LEU134      0.2260
    139  O          1.4340   -3.8310    4.9010 O.2   134  LEU134     -0.2867
    140  CB        -0.1820   -6.5030    4.5950 C.3   134  LEU134      0.0270
    141  CG        -1.1020   -7.5370    5.2220 C.3   134  LEU134      0.0019
    142  CD1       -2.2770   -7.7880    4.2960 C.3   134  LEU134      0.0001
    143  CD2       -0.3710   -8.8630    5.5060 C.3   134  LEU134      0.0001
    144  N         -3.6200   -5.0050    9.8890 N.3   144  ILE144     -0.1231
    145  CA        -4.8340   -5.7640    9.5940 C.3   144  ILE144      0.1692
    146  C         -5.3310   -6.4900   10.8400 C.2   144  ILE144      0.2592
    147  O         -4.6670   -6.4970   11.8890 O.2   144  ILE144     -0.2718
    148  CB        -4.6450   -6.7690    8.3990 C.3   144  ILE144      0.0266
    149  CG1       -3.5800   -7.8490    8.7320 C.3   144  ILE144      0.0019
    150  CG2       -4.3080   -6.0540    7.0960 C.3   144  ILE144      0.0020
    151  CD1       -3.6890   -9.1280    7.8400 C.3   144  ILE144      0.0001
    152  N         -6.4920   -7.1450   10.6710 N.am  145  ASP145     -0.1974
    153  CA        -7.1750   -7.9970   11.6320 C.3   145  ASP145      0.1709
    154  C         -7.5240   -7.3270   12.9250 C.2   145  ASP145      0.2293
    155  O         -6.8880   -7.5750   13.9440 O.2   145  ASP145     -0.2864
    156  CB        -6.4540   -9.3360   11.8440 C.3   145  ASP145      0.1436
    157  CG        -7.3770  -10.4380   12.3350 C.2   145  ASP145      0.3671
    158  OD1       -8.4410  -10.1120   12.9220 O.co2 145  ASP145     -0.2456
    159  OD2       -7.0380  -11.6210   12.1390 O.co2 145  ASP145     -0.2456
@<TRIPOS>BOND
     1     8     7   ar
     2     1     2    1
     3     5     2    1
     4     5     6    1
     5     7     9   ar
     6     7     6    1
     7     2     3    1
     8   101   100    1
     9    39    38    2
    10    38    37    1
    11   100    99   ar
    12   100    98   ar
    13    99    97   ar
    14     3     4    2
    15    40    37    1
    16    40    41    1
    17    42    41    1
    18    98    96   ar
    19    97    95   ar
    20    37    36    1
    21    41    43    1
    22    96    95   ar
    23    95    94    1
    24   112   113    1
    25   112   109    1
    26   113   114    1
    27    94    91    1
    28    16    14    1
    29   114   108    1
    30   111   110    2
    31   109   110    1
    32   109   108    1
    33    10    11    1
    34    44    45    1
    35   108   104   am
    36    11    14    1
    37    11    12    1
    38    91    92    1
    39    91    90    1
    40    14    15    1
    41    45    46    1
    42    45    48    1
    43    93    92    2
    44    92   102   am
    45    90    83   am
    46    32    31    2
    47    46    47    2
    48   104   103    1
    49   104   105    2
    50   102   103    1
    51    15    17    1
    52    12    18   am
    53    12    13    2
    54    31    30    1
    55    76    75    2
    56    18    19    1
    57   103   106    1
    58    83    82    1
    59    83    84    2
    60    82    81    1
    61    82    85    1
    62   115   116    1
    63    75    81   am
    64    75    74    1
    65    19    20    1
    66    34    33    1
    67    86    85    1
    68    86    87    1
    69    73    74    1
    70    30    33    1
    71    30    29    1
    72   106   107    1
    73    89    87   ar
    74    33    35    1
    75   116   117    1
    76    74    77    1
    77    87    88   ar
    78    49    50    1
    79    20    21    2
    80    20    22   am
    81    77    78    1
    82    22    23    1
    83    50    51    1
    84    50    53    1
    85   117   118    2
    86   117   119   am
    87    51    52    2
    88    28    26    1
    89   135   133   ar
    90    78    79    1
    91    78    80    1
    92    27    26    1
    93   119   120    1
    94   142   141    1
    95    72    71    1
    96    26    23    1
    97    23    24    1
    98    53    54    1
    99   132   133    1
   100   132   129    1
   101   138   139    2
   102   138   137    1
   103   140   141    1
   104   140   137    1
   105   133   134   ar
   106   131   130    2
   107    25    24    2
   108   130   129    1
   109   141   143    1
   110   122   121    2
   111   137   136    1
   112   120   121    1
   113   120   123    1
   114   129   128    1
   115    54    55    1
   116    69    68    1
   117    69    70    2
   118    71    68    1
   119    68    67    1
   120   124   123    1
   121   124   125    1
   122   127   125   ar
   123   125   126   ar
   124    55    56    1
   125   150   148    1
   126   151   149    1
   127    56    57    1
   128   148   149    1
   129   148   145    1
   130   145   144    1
   131   145   146    1
   132    66    64   ar
   133    65    64   ar
   134    64    63    1
   135   152   146   am
   136   152   153    1
   137   146   147    2
   138    63    62    1
   139   153   156    1
   140   153   154    1
   141   156   157    1
   142    61    60    2
   143   159   157   ar
   144    60    59    1
   145    62    59    1
   146   157   158   ar
   147   154   155    2
   148    59    58    1
