@<TRIPOS>MOLECULE
tmp/5ihaA00.pdb
 144 134 0 0 0
SMALL
GASTEIGER

@<TRIPOS>ATOM
      1  N         -7.7280  -14.8310   -7.9040 N.3    14  GLU14      -0.1245
      2  CA        -7.2410  -15.9690   -7.0980 C.3    14  GLU14       0.1567
      3  C         -7.5000  -15.8660   -5.5910 C.2    14  GLU14       0.2260
      4  O         -7.4990  -14.7670   -5.0310 O.2    14  GLU14      -0.2867
      5  CB        -5.7040  -16.0930   -7.2940 C.3    14  GLU14       0.0388
      6  CG        -5.0000  -14.7270   -7.2440 C.3    14  GLU14       0.1160
      7  CD        -3.4850  -14.6910   -7.2140 C.2    14  GLU14       0.3649
      8  OE1       -2.9080  -13.8130   -7.8950 O.co2  14  GLU14      -0.2457
      9  OE2       -2.8740  -15.5010   -6.4780 O.co2  14  GLU14      -0.2457
     10  N         -5.8910  -16.2560   -2.0540 N.3    16  ILE16      -0.1231
     11  CA        -4.5120  -16.1480   -1.5680 C.3    16  ILE16       0.1692
     12  C         -4.3450  -16.5910   -0.1060 C.2    16  ILE16       0.2592
     13  O         -3.2210  -16.8460    0.3230 O.2    16  ILE16      -0.2718
     14  CB        -3.8910  -14.7480   -1.8250 C.3    16  ILE16       0.0266
     15  CG1       -4.8050  -13.6270   -1.3000 C.3    16  ILE16       0.0019
     16  CG2       -3.5530  -14.5700   -3.3080 C.3    16  ILE16       0.0020
     17  CD1       -4.0930  -12.4360   -0.7940 C.3    16  ILE16       0.0001
     18  N         -5.4430  -16.6430    0.6440 N.am   17  GLY17      -0.1957
     19  CA        -5.4220  -17.0270    2.0500 C.3    17  GLY17       0.1869
     20  C         -6.5950  -17.8960    2.4350 C.2    17  GLY17       0.2309
     21  O         -7.7080  -17.6690    1.9660 O.2    17  GLY17      -0.2863
     22  N         -9.2430  -15.2960    1.7810 N.3    20  VAL20      -0.1245
     23  CA        -8.8740  -14.0180    1.1600 C.3    20  VAL20       0.1561
     24  C         -8.7520  -14.2080   -0.3370 C.2    20  VAL20       0.2260
     25  O         -7.9310  -15.0050   -0.7960 O.2    20  VAL20      -0.2867
     26  CB        -7.6330  -13.2950    1.7690 C.3    20  VAL20       0.0252
     27  CG1       -7.3570  -11.9680    1.0410 C.3    20  VAL20       0.0019
     28  CG2       -7.8020  -13.0560    3.2700 C.3    20  VAL20       0.0019
     29  N         -8.2770  -12.1690   -4.1600 N.3    22  LEU22      -0.1245
     30  CA        -7.9230  -10.9300   -4.8420 C.3    22  LEU22       0.1561
     31  C         -8.9900  -10.6180   -5.8680 C.2    22  LEU22       0.2260
     32  O         -9.6700  -11.5330   -6.3380 O.2    22  LEU22      -0.2867
     33  CB        -6.5060  -10.9590   -5.4360 C.3    22  LEU22       0.0270
     34  CG        -5.3850  -11.1720   -4.3820 C.3    22  LEU22       0.0019
     35  CD1       -4.0340  -11.2410   -5.0530 C.3    22  LEU22       0.0001
     36  CD2       -5.3970  -10.0550   -3.3060 C.3    22  LEU22       0.0001
     37  N         -8.4730   -6.5850   -2.0300 N.3    33  ALA33      -0.1245
     38  CA        -8.4220   -7.8810   -1.3760 C.3    33  ALA33       0.1562
     39  C         -9.8090   -8.0520   -0.7550 C.2    33  ALA33       0.2260
     40  O        -10.3540   -7.0980   -0.2050 O.2    33  ALA33      -0.2867
     41  CB        -7.3520   -7.8990   -0.2950 C.3    33  ALA33       0.0290
     42  N        -11.9750  -10.2540    1.9200 N.3    35  LYS35      -0.1245
     43  CA       -11.9570  -11.2050    3.0280 C.3    35  LYS35       0.1561
     44  C        -13.3730  -11.7970    3.1000 C.2    35  LYS35       0.2260
     45  O        -14.3410  -11.0440    3.1430 O.2    35  LYS35      -0.2867
     46  CB       -11.5860  -10.4390    4.3070 C.3    35  LYS35       0.0271
     47  CG       -11.1160  -11.2930    5.4510 C.3    35  LYS35       0.0035
     48  CD       -10.4770  -10.3800    6.4890 C.3    35  LYS35       0.0206
     49  CE       -11.0270  -10.6420    7.8600 C.3    35  LYS35       0.1093
     50  NZ       -10.1670  -10.0390    8.9100 N.3    35  LYS35      -0.1314
     51  N        -14.5910   -6.4290   14.1590 N.3    47  GLU47      -0.1245
     52  CA       -13.6800   -5.8730   13.1820 C.3    47  GLU47       0.1567
     53  C        -14.3420   -4.8120   12.3170 C.2    47  GLU47       0.2260
     54  O        -13.7140   -3.7900   12.0570 O.2    47  GLU47      -0.2867
     55  CB       -13.0570   -6.9630   12.3030 C.3    47  GLU47       0.0388
     56  CG       -11.9900   -6.3930   11.3730 C.3    47  GLU47       0.1160
     57  CD       -11.2270   -7.3970   10.5440 C.2    47  GLU47       0.3649
     58  OE1      -11.8080   -8.4580   10.2280 O.co2  47  GLU47      -0.2457
     59  OE2      -10.0560   -7.1190   10.1960 O.co2  47  GLU47      -0.2457
     60  N         -4.8980   -0.8970    7.1040 N.3    60  CYS60      -0.1235
     61  CA        -5.4990   -1.4170    5.8760 C.3    60  CYS60       0.1677
     62  C         -6.9600   -1.0010    5.8370 C.2    60  CYS60       0.2270
     63  O         -7.7400   -1.3390    6.7350 O.2    60  CYS60      -0.2867
     64  CB        -5.3410   -2.9280    5.8060 C.3    60  CYS60       0.0956
     65  SG        -6.0440   -3.6680    4.3170 S.3    60  CYS60      -0.0801
     66  N        -11.1590   -4.7770    1.0410 N.3    76  LEU76      -0.1231
     67  CA       -10.0830   -4.0550    1.7030 C.3    76  LEU76       0.1693
     68  C         -8.9560   -3.6010    0.7980 C.2    76  LEU76       0.2592
     69  O         -8.7870   -4.1190   -0.2910 O.2    76  LEU76      -0.2718
     70  CB        -9.5020   -4.9650    2.8190 C.3    76  LEU76       0.0284
     71  CG       -10.4340   -5.3240    3.9760 C.3    76  LEU76       0.0019
     72  CD1      -10.3350   -6.8020    4.3100 C.3    76  LEU76       0.0001
     73  CD2      -10.1480   -4.4600    5.2030 C.3    76  LEU76       0.0001
     74  N         -8.1450   -2.6510    1.3010 N.am   77  GLU77      -0.1966
     75  CA        -6.9750   -2.0840    0.6080 C.3    77  GLU77       0.1733
     76  C         -5.9660   -3.1480    0.1590 C.2    77  GLU77       0.2616
     77  O         -5.5880   -4.0100    0.9430 O.2    77  GLU77      -0.2715
     78  CB        -6.3040   -1.0770    1.5540 C.3    77  GLU77       0.0429
     79  CG        -5.1740   -0.2580    0.9590 C.3    77  GLU77       0.1163
     80  CD        -4.6590    0.7580    1.9550 C.2    77  GLU77       0.3649
     81  OE1       -5.1800    0.8100    3.0920 O.co2  77  GLU77      -0.2457
     82  OE2       -3.7090    1.4860    1.6080 O.co2  77  GLU77      -0.2457
     83  N         -5.5130   -3.0480   -1.0890 N.am   78  TYR78      -0.1960
     84  CA        -4.5980   -3.9940   -1.7510 C.3    78  TYR78       0.1771
     85  C         -3.1670   -3.7920   -1.2430 C.2    78  TYR78       0.2620
     86  O         -2.6270   -2.6880   -1.3450 O.2    78  TYR78      -0.2715
     87  CB        -4.7050   -3.7810   -3.2730 C.3    78  TYR78       0.0574
     88  CG        -4.0160   -4.8130   -4.1370 C.ar   78  TYR78      -0.0198
     89  CD1       -4.5240   -6.1060   -4.2510 C.ar   78  TYR78      -0.0009
     90  CD2       -2.9420   -4.4600   -4.9500 C.ar   78  TYR78      -0.0009
     91  CE1       -3.9540   -7.0320   -5.1230 C.ar   78  TYR78       0.0417
     92  CE2       -2.3470   -5.3870   -5.8120 C.ar   78  TYR78       0.0417
     93  CZ        -2.8560   -6.6710   -5.8930 C.ar   78  TYR78       0.1957
     94  OH        -2.2720   -7.5890   -6.7380 O.3    78  TYR78      -0.2866
     95  N         -2.5760   -4.8360   -0.6420 N.am   79  CYS79      -0.1954
     96  CA        -1.2210   -4.7490   -0.0610 C.3    79  CYS79       0.1828
     97  C         -0.3190   -5.8080   -0.7090 C.2    79  CYS79       0.2467
     98  O         -0.0910   -6.8630   -0.1080 O.2    79  CYS79      -0.2730
     99  CB        -1.2910   -4.8970    1.4580 C.3    79  CYS79       0.0996
    100  SG        -2.3290   -3.6420    2.2470 S.3    79  CYS79      -0.0797
    101  N          0.1910   -5.5380   -1.9390 N.am   80  PRO80      -0.2726
    102  CA         0.9490   -6.5820   -2.6690 C.3    80  PRO80       0.1402
    103  C          2.3690   -6.8470   -2.1960 C.2    80  PRO80       0.2269
    104  O          3.0050   -7.7600   -2.7160 O.2    80  PRO80      -0.2865
    105  CB         0.8980   -6.1060   -4.1290 C.3    80  PRO80       0.0296
    106  CG         0.8160   -4.6130   -4.0230 C.3    80  PRO80       0.0237
    107  CD        -0.0160   -4.3420   -2.7810 C.3    80  PRO80       0.0939
    108  N          3.0630   -8.0090    0.6190 N.3    82  GLY82      -0.1210
    109  CA         2.9720   -9.1730    1.4980 C.3    82  GLY82       0.1956
    110  C          3.1940   -8.8910    2.9740 C.2    82  GLY82       0.2614
    111  O          3.2540   -7.7280    3.3910 O.2    82  GLY82      -0.2717
    112  N          3.2980   -9.9650    3.7770 N.am   83  GLU83      -0.1933
    113  CA         3.4390   -9.8790    5.2340 C.3    83  GLU83       0.1818
    114  C          4.8120   -9.4400    5.6800 C.2    83  GLU83       0.2332
    115  O          5.8160   -9.8730    5.1170 O.2    83  GLU83      -0.2860
    116  CB         3.1190  -11.2290    5.9110 C.2    83  GLU83       0.0097
    117  CG         1.7440  -11.8100    5.6550 C.2    83  GLU83       0.0837
    118  CD         1.4550  -13.1240    6.3620 C.2    83  GLU83       0.3877
    119  OE1        2.3500  -13.6540    7.0640 O.co2  83  GLU83      -0.2406
    120  OE2        0.3170  -13.6230    6.2140 O.co2  83  GLU83      -0.2406
    121  N          1.0810   -5.6620    6.7320 N.3   129  LEU129     -0.1245
    122  CA         1.3350   -5.9080    5.3130 C.3   129  LEU129      0.1561
    123  C          1.9570   -4.7030    4.6290 C.2   129  LEU129      0.2260
    124  O          1.7090   -3.5760    5.0320 O.2   129  LEU129     -0.2867
    125  CB         0.0090   -6.2530    4.5960 C.3   129  LEU129      0.0270
    126  CG        -0.9170   -7.2950    5.2150 C.3   129  LEU129      0.0019
    127  CD1       -2.1040   -7.5380    4.3090 C.3   129  LEU129      0.0001
    128  CD2       -0.1970   -8.6370    5.4480 C.3   129  LEU129      0.0001
    129  N         -3.4800   -4.9380    9.9090 N.3   139  ILE139     -0.1231
    130  CA        -4.6950   -5.6960    9.6140 C.3   139  ILE139      0.1692
    131  C         -5.2010   -6.4450   10.8450 C.2   139  ILE139      0.2592
    132  O         -4.5380   -6.4490   11.8910 O.2   139  ILE139     -0.2718
    133  CB        -4.5060   -6.6760    8.4130 C.3   139  ILE139      0.0266
    134  CG1       -3.4970   -7.7960    8.7530 C.3   139  ILE139      0.0019
    135  CG2       -4.1520   -5.9470    7.1260 C.3   139  ILE139      0.0020
    136  CD1       -3.5460   -9.0500    7.8320 C.3   139  ILE139      0.0001
    137  N         -6.3620   -7.1310   10.6640 N.am  140  ASP140     -0.1974
    138  CA        -7.0610   -7.9810   11.6340 C.3   140  ASP140      0.1709
    139  C         -7.4110   -7.3130   12.9400 C.2   140  ASP140      0.2293
    140  O         -6.6980   -7.4490   13.9250 O.2   140  ASP140     -0.2864
    141  CB        -6.3890   -9.3590   11.8170 C.3   140  ASP140      0.1436
    142  CG        -7.3600  -10.4500   12.2580 C.2   140  ASP140      0.3671
    143  OD1       -8.4680  -10.1060   12.7500 O.co2 140  ASP140     -0.2456
    144  OD2       -7.0240  -11.6480   12.0990 O.co2 140  ASP140     -0.2456
@<TRIPOS>BOND
     1     1     2    1
     2     8     7   ar
     3     5     6    1
     4     5     2    1
     5     6     7    1
     6     7     9   ar
     7     2     3    1
     8    94    93    1
     9    32    31    2
    10    93    92   ar
    11    93    91   ar
    12    31    30    1
    13    92    90   ar
    14     3     4    2
    15    33    30    1
    16    33    34    1
    17    91    89   ar
    18    35    34    1
    19    90    88   ar
    20    30    29    1
    21    34    36    1
    22    89    88   ar
    23    88    87    1
    24   105   106    1
    25   105   102    1
    26   106   107    1
    27    16    14    1
    28    87    84    1
    29   107   101    1
    30   104   103    2
    31   102   103    1
    32   102   101    1
    33    10    11    1
    34    37    38    1
    35   101    97   am
    36    14    11    1
    37    14    15    1
    38    84    85    1
    39    84    83    1
    40    11    12    1
    41    38    39    1
    42    38    41    1
    43    86    85    2
    44    15    17    1
    45    85    95   am
    46    83    76   am
    47    25    24    2
    48    39    40    2
    49    97    98    2
    50    97    96    1
    51    95    96    1
    52    24    23    1
    53    69    68    2
    54    12    13    2
    55    12    18   am
    56    96    99    1
    57    76    75    1
    58    76    77    2
    59    75    74    1
    60    75    78    1
    61   108   109    1
    62    18    19    1
    63    68    74   am
    64    68    67    1
    65    79    78    1
    66    79    80    1
    67    66    67    1
    68    27    26    1
    69    23    26    1
    70    23    22    1
    71    99   100    1
    72   109   110    1
    73    82    80   ar
    74    67    70    1
    75    26    28    1
    76    42    43    1
    77    80    81   ar
    78    21    20    2
    79    19    20    1
    80    70    71    1
    81   110   111    2
    82   110   112   am
    83    43    44    1
    84    43    46    1
    85    44    45    2
    86   112   113    1
    87    71    72    1
    88    71    73    1
    89    46    47    1
    90   127   126    1
    91    65    64    1
    92   125   126    1
    93   125   122    1
    94   123   124    2
    95   123   122    1
    96   115   114    2
    97   126   128    1
    98   113   114    1
    99   113   116    1
   100   122   121    1
   101    47    48    1
   102   117   116    2
   103   117   118    1
   104    64    61    1
   105    62    61    1
   106    62    63    2
   107    61    60    1
   108   120   118   ar
   109   118   119   ar
   110    48    49    1
   111   135   133    1
   112   136   134    1
   113    49    50    1
   114   133   134    1
   115   133   130    1
   116   130   129    1
   117   130   131    1
   118    59    57   ar
   119    58    57   ar
   120    57    56    1
   121   137   131   am
   122   137   138    1
   123   131   132    2
   124    56    55    1
   125   138   141    1
   126   138   139    1
   127   141   142    1
   128    54    53    2
   129   144   142   ar
   130   142   143   ar
   131    55    52    1
   132    53    52    1
   133   139   140    2
   134    52    51    1
