@<TRIPOS>MOLECULE
tmp/5ihcA00.pdb
 143 133 0 0 0
SMALL
GASTEIGER

@<TRIPOS>ATOM
      1  N         -6.2340  -16.1000   -1.6360 N.3    16  ILE16      -0.1231
      2  CA        -4.8650  -15.9200   -1.1410 C.3    16  ILE16       0.1692
      3  C         -4.7000  -16.3280    0.3360 C.2    16  ILE16       0.2592
      4  O         -3.5730  -16.4950    0.7940 O.2    16  ILE16      -0.2718
      5  CB        -4.2570  -14.5250   -1.4480 C.3    16  ILE16       0.0266
      6  CG1       -5.1170  -13.3850   -0.8850 C.3    16  ILE16       0.0019
      7  CG2       -3.9640  -14.3570   -2.9350 C.3    16  ILE16       0.0020
      8  CD1       -4.3260  -12.3040   -0.2270 C.3    16  ILE16       0.0001
      9  N         -5.8130  -16.4870    1.0520 N.am   17  GLY17      -0.1957
     10  CA        -5.8180  -16.8660    2.4610 C.3    17  GLY17       0.1869
     11  C         -7.1170  -17.5070    2.9040 C.2    17  GLY17       0.2309
     12  O         -8.1730  -17.2160    2.3390 O.2    17  GLY17      -0.2863
     13  N         -9.8200  -15.1590    2.0960 N.3    21  VAL21      -0.1245
     14  CA        -9.4210  -13.8910    1.4780 C.3    21  VAL21       0.1561
     15  C         -9.2010  -14.0600   -0.0180 C.2    21  VAL21       0.2260
     16  O         -8.3680  -14.8660   -0.4380 O.2    21  VAL21      -0.2867
     17  CB        -8.2430  -13.1440    2.2000 C.3    21  VAL21       0.0252
     18  CG1       -7.8080  -11.8950    1.4250 C.3    21  VAL21       0.0019
     19  CG2       -8.6160  -12.7670    3.6370 C.3    21  VAL21       0.0019
     20  N         -8.5380  -12.1130   -3.9030 N.3    23  LEU23      -0.1245
     21  CA        -8.1360  -10.9320   -4.6430 C.3    23  LEU23       0.1561
     22  C         -9.2460  -10.6540   -5.6370 C.2    23  LEU23       0.2260
     23  O         -9.9130  -11.5910   -6.1090 O.2    23  LEU23      -0.2867
     24  CB        -6.7730  -11.0930   -5.3380 C.3    23  LEU23       0.0270
     25  CG        -5.5810  -11.2950   -4.3780 C.3    23  LEU23       0.0019
     26  CD1       -4.2540  -11.2280   -5.1260 C.3    23  LEU23       0.0001
     27  CD2       -5.6100  -10.3060   -3.1930 C.3    23  LEU23       0.0001
     28  N         -8.7670   -6.5750   -1.8920 N.3    34  ALA34      -0.1245
     29  CA        -8.7750   -7.8710   -1.2300 C.3    34  ALA34       0.1562
     30  C        -10.1660   -8.0120   -0.6300 C.2    34  ALA34       0.2260
     31  O        -10.7100   -7.0350   -0.1200 O.2    34  ALA34      -0.2867
     32  CB        -7.7270   -7.9210   -0.1300 C.3    34  ALA34       0.0290
     33  N        -12.4380  -10.0380    2.1340 N.3    36  LYS36      -0.1245
     34  CA       -12.5170  -10.9440    3.2780 C.3    36  LYS36       0.1561
     35  C        -13.9380  -11.5160    3.2760 C.2    36  LYS36       0.2260
     36  O        -14.9130  -10.7580    3.2850 O.2    36  LYS36      -0.2867
     37  CB       -12.2140  -10.1660    4.5750 C.3    36  LYS36       0.0271
     38  CG       -11.8060  -11.0050    5.7860 C.3    36  LYS36       0.0035
     39  CD       -11.2900  -10.0890    6.9100 C.3    36  LYS36       0.0206
     40  CE       -11.0470  -10.8130    8.2080 C.3    36  LYS36       0.1093
     41  NZ       -10.6740   -9.8680    9.2970 N.3    36  LYS36      -0.1314
     42  N         -4.8240   -0.8360    7.0610 N.3    66  CYS66      -0.1235
     43  CA        -5.4360   -1.3590    5.8300 C.3    66  CYS66       0.1677
     44  C         -6.8940   -0.8890    5.7880 C.2    66  CYS66       0.2270
     45  O         -7.7140   -1.2040    6.6720 O.2    66  CYS66      -0.2867
     46  CB        -5.3490   -2.8720    5.8070 C.3    66  CYS66       0.0956
     47  SG        -6.0110   -3.5990    4.2980 S.3    66  CYS66      -0.0801
     48  N        -11.2230   -4.6710    1.1650 N.3    82  LEU82      -0.1231
     49  CA       -10.1120   -3.9740    1.8030 C.3    82  LEU82       0.1693
     50  C         -8.9990   -3.5710    0.8540 C.2    82  LEU82       0.2592
     51  O         -8.8780   -4.1330   -0.2260 O.2    82  LEU82      -0.2718
     52  CB        -9.5580   -4.8700    2.9570 C.3    82  LEU82       0.0284
     53  CG       -10.5510   -5.1300    4.1030 C.3    82  LEU82       0.0019
     54  CD1      -10.6100   -6.6040    4.4480 C.3    82  LEU82       0.0001
     55  CD2      -10.2440   -4.2610    5.3270 C.3    82  LEU82       0.0001
     56  N         -8.1780   -2.5870    1.2850 N.am   83  GLU83      -0.1966
     57  CA        -7.0120   -2.0490    0.5630 C.3    83  GLU83       0.1733
     58  C         -6.0580   -3.1740    0.1560 C.2    83  GLU83       0.2616
     59  O         -5.7670   -4.0720    0.9570 O.2    83  GLU83      -0.2715
     60  CB        -6.2990   -1.0420    1.4750 C.3    83  GLU83       0.0429
     61  CG        -5.0160   -0.4360    0.9370 C.3    83  GLU83       0.1163
     62  CD        -4.4590    0.6370    1.8480 C.2    83  GLU83       0.3649
     63  OE1       -4.8860    0.7150    3.0240 O.co2  83  GLU83      -0.2457
     64  OE2       -3.6290    1.4360    1.3660 O.co2  83  GLU83      -0.2457
     65  N         -5.6350   -3.1420   -1.1030 N.am   84  TYR84      -0.1960
     66  CA        -4.7600   -4.1160   -1.7670 C.3    84  TYR84       0.1771
     67  C         -3.3220   -3.9220   -1.3130 C.2    84  TYR84       0.2620
     68  O         -2.7950   -2.8250   -1.4340 O.2    84  TYR84      -0.2715
     69  CB        -4.8900   -3.9100   -3.2950 C.3    84  TYR84       0.0574
     70  CG        -4.1640   -4.9270   -4.1400 C.ar   84  TYR84      -0.0198
     71  CD1       -4.5510   -6.2610   -4.1430 C.ar   84  TYR84      -0.0009
     72  CD2       -3.1590   -4.5370   -5.0230 C.ar   84  TYR84      -0.0009
     73  CE1       -3.9170   -7.1950   -4.9570 C.ar   84  TYR84       0.0417
     74  CE2       -2.5240   -5.4630   -5.8500 C.ar   84  TYR84       0.0417
     75  CZ        -2.9000   -6.7930   -5.8070 C.ar   84  TYR84       0.1957
     76  OH        -2.2830   -7.7170   -6.6240 O.3    84  TYR84      -0.2866
     77  N         -2.7010   -4.9670   -0.7350 N.am   85  CYS85      -0.1954
     78  CA        -1.3350   -4.8740   -0.1910 C.3    85  CYS85       0.1828
     79  C         -0.4450   -5.9340   -0.8450 C.2    85  CYS85       0.2467
     80  O         -0.2300   -6.9930   -0.2550 O.2    85  CYS85      -0.2730
     81  CB        -1.3550   -5.0050    1.3290 C.3    85  CYS85       0.0996
     82  SG        -2.3470   -3.7530    2.1590 S.3    85  CYS85      -0.0797
     83  N          0.0200   -5.6900   -2.0930 N.am   86  PRO86      -0.2726
     84  CA         0.7610   -6.7410   -2.8270 C.3    86  PRO86       0.1402
     85  C          2.1560   -7.1030   -2.3300 C.2    86  PRO86       0.2269
     86  O          2.7070   -8.1040   -2.7860 O.2    86  PRO86      -0.2865
     87  CB         0.7560   -6.2350   -4.2730 C.3    86  PRO86       0.0296
     88  CG         0.7100   -4.7550   -4.1320 C.3    86  PRO86       0.0237
     89  CD        -0.1620   -4.4850   -2.9290 C.3    86  PRO86       0.0939
     90  N          2.7560   -8.2070    0.5110 N.3    88  GLY88      -0.1210
     91  CA         2.5500   -9.3420    1.4080 C.3    88  GLY88       0.1956
     92  C          2.8770   -9.0570    2.8620 C.2    88  GLY88       0.2611
     93  O          3.0560   -7.9060    3.2440 O.2    88  GLY88      -0.2717
     94  N          2.9790  -10.1170    3.6760 N.am   89  GLU89      -0.1979
     95  CA         3.2150  -10.0380    5.1160 C.3    89  GLU89       0.1602
     96  C          4.6140   -9.6180    5.5100 C.2    89  GLU89       0.2287
     97  O          5.5860  -10.0840    4.9330 O.2    89  GLU89      -0.2864
     98  CB         2.9360  -11.4000    5.7650 C.3    89  GLU89       0.0415
     99  CG         1.5270  -11.9360    5.6080 C.3    89  GLU89       0.1163
    100  CD         1.3290  -13.2930    6.2640 C.2    89  GLU89       0.3649
    101  OE1        2.2370  -13.7520    6.9980 O.co2  89  GLU89      -0.2457
    102  OE2        0.2430  -13.8860    6.0690 O.co2  89  GLU89      -0.2457
    103  N          6.7450  -12.7650    6.2040 N.3    92  ASP92      -0.1239
    104  CA         7.4560  -13.3060    5.0340 C.3    92  ASP92       0.1674
    105  C          8.6640  -12.4720    4.6700 C.2    92  ASP92       0.2266
    106  O          9.6880  -13.0160    4.2590 O.2    92  ASP92      -0.2867
    107  CB         6.5100  -13.4290    3.8310 C.3    92  ASP92       0.1410
    108  CG         5.4410  -14.4930    4.0240 C.2    92  ASP92       0.3668
    109  OD1        5.6290  -15.3830    4.8940 O.co2  92  ASP92      -0.2456
    110  OD2        4.4400  -14.4590    3.2900 O.co2  92  ASP92      -0.2456
    111  N          2.4050  -11.2270   10.9010 N.3   132  GLU132     -0.1245
    112  CA         1.3940  -11.7540    9.9630 C.3   132  GLU132      0.1567
    113  C          0.2820  -10.6930    9.8060 C.2   132  GLU132      0.2260
    114  O         -0.4180  -10.7140    8.8090 O.2   132  GLU132     -0.2867
    115  CB         0.7500  -13.0580   10.4940 C.3   132  GLU132      0.0388
    116  CG         1.6920  -14.2490   10.5630 C.3   132  GLU132      0.1160
    117  CD         2.3040  -14.4920   11.9300 C.2   132  GLU132      0.3649
    118  OE1        2.7640  -13.5170   12.5680 O.co2 132  GLU132     -0.2457
    119  OE2        2.3090  -15.6630   12.3730 O.co2 132  GLU132     -0.2457
    120  N          0.9690   -5.7310    6.5890 N.3   135  LEU135     -0.1245
    121  CA         1.1710   -5.9700    5.1630 C.3   135  LEU135      0.1561
    122  C          1.8380   -4.8150    4.4750 C.2   135  LEU135      0.2260
    123  O          1.7100   -3.6830    4.9310 O.2   135  LEU135     -0.2867
    124  CB        -0.1860   -6.2620    4.4860 C.3   135  LEU135      0.0270
    125  CG        -1.1140   -7.2950    5.1280 C.3   135  LEU135      0.0019
    126  CD1       -2.3260   -7.4790    4.2820 C.3   135  LEU135      0.0001
    127  CD2       -0.4260   -8.6560    5.3070 C.3   135  LEU135      0.0001
    128  N         -3.6140   -4.9220    9.8160 N.3   145  ILE145     -0.1231
    129  CA        -4.8530   -5.6940    9.5760 C.3   145  ILE145      0.1692
    130  C         -5.2200   -6.5000   10.8420 C.2   145  ILE145      0.2592
    131  O         -4.4850   -6.4640   11.8430 O.2   145  ILE145     -0.2718
    132  CB        -4.7200   -6.6860    8.3650 C.3   145  ILE145      0.0266
    133  CG1       -3.7260   -7.8470    8.6910 C.3   145  ILE145      0.0019
    134  CG2       -4.3960   -5.9680    7.0630 C.3   145  ILE145      0.0020
    135  CD1       -3.6460   -9.1080    7.7220 C.3   145  ILE145      0.0001
    136  N         -6.3140   -7.3060   10.7180 N.am  146  ASP146     -0.1974
    137  CA        -6.8780   -8.2810   11.6700 C.3   146  ASP146      0.1709
    138  C         -7.0270   -7.7780   13.0780 C.2   146  ASP146      0.2293
    139  O         -6.5060   -8.3820   14.0170 O.2   146  ASP146     -0.2864
    140  CB        -6.1300   -9.6320   11.6260 C.3   146  ASP146      0.1436
    141  CG        -6.8600  -10.7950   10.9750 C.2   146  ASP146      0.3671
    142  OD1       -7.8310  -11.3070   11.5870 O.co2 146  ASP146     -0.2456
    143  OD2       -6.3700  -11.2970    9.9310 O.co2 146  ASP146     -0.2456
@<TRIPOS>BOND
     1    76    75    1
     2    23    22    2
     3    74    75   ar
     4    74    72   ar
     5    75    73   ar
     6    22    21    1
     7    24    21    1
     8    24    25    1
     9    26    25    1
    10    72    70   ar
    11    73    71   ar
    12    21    20    1
    13    25    27    1
    14    87    88    1
    15    87    84    1
    16    71    70   ar
    17    70    69    1
    18    88    89    1
    19    69    66    1
    20     7     5    1
    21    89    83    1
    22    84    85    1
    23    84    83    1
    24    86    85    2
    25    83    79   am
    26    28    29    1
    27    66    67    1
    28    66    65    1
    29     1     2    1
    30     5     2    1
    31     5     6    1
    32    68    67    2
    33    67    77   am
    34    29    30    1
    35    29    32    1
    36     2     3    1
    37    65    58   am
    38     6     8    1
    39    79    80    2
    40    79    78    1
    41    77    78    1
    42    30    31    2
    43    16    15    2
    44    51    50    2
    45    78    81    1
    46    15    14    1
    47    58    57    1
    48    58    59    2
    49     3     4    2
    50     3     9   am
    51    90    91    1
    52    57    56    1
    53    57    60    1
    54    50    56   am
    55    50    49    1
    56    61    60    1
    57    61    62    1
    58     9    10    1
    59    48    49    1
    60    81    82    1
    61    64    62   ar
    62    91    92    1
    63    18    17    1
    64    14    13    1
    65    14    17    1
    66    49    52    1
    67    62    63   ar
    68    33    34    1
    69    17    19    1
    70    12    11    2
    71    10    11    1
    72    92    93    2
    73    92    94   am
    74    52    53    1
    75    35    34    1
    76    35    36    2
    77    34    37    1
    78   110   108   ar
    79    94    95    1
    80   107   108    1
    81   107   104    1
    82   108   109   ar
    83    53    54    1
    84    53    55    1
    85   106   105    2
    86   126   125    1
    87    47    46    1
    88   122   123    2
    89   122   121    1
    90   124   125    1
    91   124   121    1
    92    37    38    1
    93   105   104    1
    94    97    96    2
    95   104   103    1
    96    95    96    1
    97    95    98    1
    98   125   127    1
    99   121   120    1
   100    99    98    1
   101    99   100    1
   102    38    39    1
   103    44    43    1
   104    44    45    2
   105    46    43    1
   106    43    42    1
   107   102   100   ar
   108   100   101   ar
   109    39    40    1
   110   134   132    1
   111   135   133    1
   112    40    41    1
   113   132   133    1
   114   132   129    1
   115   114   113    2
   116   129   128    1
   117   129   130    1
   118   113   112    1
   119   143   141   ar
   120   112   115    1
   121   112   111    1
   122   115   116    1
   123   116   117    1
   124   136   130   am
   125   136   137    1
   126   130   131    2
   127   141   142   ar
   128   141   140    1
   129   140   137    1
   130   137   138    1
   131   117   119   ar
   132   117   118   ar
   133   138   139    2
