@<TRIPOS>MOLECULE
tmp/5iheB00.pdb
 153 147 0 0 0
SMALL
GASTEIGER

@<TRIPOS>ATOM
      1  N         50.7200   41.5290   83.8990 N.3   187  ASP187     -0.1239
      2  CA        50.4450   42.0290   85.2370 C.3   187  ASP187      0.1674
      3  C         51.4550   41.5370   86.2660 C.2   187  ASP187      0.2266
      4  O         51.1040   40.8850   87.2550 O.2   187  ASP187     -0.2867
      5  CB        48.9870   41.7240   85.6230 C.3   187  ASP187      0.1410
      6  CG        47.9970   42.3530   84.6670 C.2   187  ASP187      0.3668
      7  OD1       47.4630   43.4380   84.9940 O.co2 187  ASP187     -0.2456
      8  OD2       47.7920   41.7870   83.5710 O.co2 187  ASP187     -0.2456
      9  N         53.4440   43.6110   88.0270 N.3   189  HIS189     -0.1241
     10  CA        53.2550   44.5680   89.1230 C.3   189  HIS189      0.1621
     11  C         54.4670   44.6920   90.0370 C.2   189  HIS189      0.2264
     12  O         54.3140   44.6960   91.2630 O.2   189  HIS189     -0.2867
     13  CB        51.9710   44.2650   89.9260 C.3   189  HIS189      0.0745
     14  CG        50.7220   44.6120   89.1820 C.ar  189  HIS189      0.0817
     15  ND1       50.1790   45.8730   89.2490 N.ar  189  HIS189     -0.2268
     16  CD2       49.9810   43.8580   88.3440 C.ar  189  HIS189      0.1154
     17  CE1       49.1140   45.8520   88.4670 C.ar  189  HIS189      0.1986
     18  NE2       48.9570   44.6570   87.8970 N.ar  189  HIS189     -0.2212
     19  N         50.9120   46.1750   82.7050 N.3   231  ASP231     -0.1239
     20  CA        51.0700   46.2790   84.1580 C.3   231  ASP231      0.1674
     21  C         52.3310   45.5620   84.6220 C.2   231  ASP231      0.2266
     22  O         52.3000   44.6970   85.5060 O.2   231  ASP231     -0.2867
     23  CB        49.8090   45.8390   84.9070 C.3   231  ASP231      0.1410
     24  CG        48.7110   46.8770   84.8900 C.2   231  ASP231      0.3668
     25  OD1       48.9470   47.9910   84.3610 O.co2 231  ASP231     -0.2456
     26  OD2       47.6200   46.5820   85.3950 O.co2 231  ASP231     -0.2456
     27  N         48.2820   55.3670   91.3310 N.3   238  ILE238     -0.1231
     28  CA        47.2590   54.7110   90.4970 C.3   238  ILE238      0.1692
     29  C         45.8830   54.7390   91.1860 C.2   238  ILE238      0.2592
     30  O         44.8720   54.9980   90.5310 O.2   238  ILE238     -0.2718
     31  CB        47.7080   53.2800   90.0510 C.3   238  ILE238      0.0266
     32  CG1       49.0900   53.3010   89.3390 C.3   238  ILE238      0.0019
     33  CG2       46.6420   52.5550   89.2010 C.3   238  ILE238      0.0020
     34  CD1       49.2410   54.2600   88.0830 C.3   238  ILE238      0.0001
     35  N         45.8620   54.5170   92.5090 N.am  239  TYR239     -0.1976
     36  CA        44.6430   54.5460   93.3120 C.3   239  TYR239      0.1639
     37  C         44.9540   55.1010   94.7080 C.2   239  TYR239      0.2290
     38  O         46.1180   55.0140   95.1280 O.2   239  TYR239     -0.2864
     39  CB        44.0040   53.1430   93.3880 C.3   239  TYR239      0.0560
     40  CG        44.8620   52.0890   94.0600 C.ar  239  TYR239     -0.0198
     41  CD1       44.7030   51.7890   95.4110 C.ar  239  TYR239     -0.0009
     42  CD2       45.7850   51.3480   93.3340 C.ar  239  TYR239     -0.0009
     43  CE1       45.4760   50.8080   96.0300 C.ar  239  TYR239      0.0417
     44  CE2       46.5630   50.3690   93.9400 C.ar  239  TYR239      0.0417
     45  CZ        46.4130   50.1050   95.2900 C.ar  239  TYR239      0.1957
     46  OH        47.1970   49.1390   95.8820 O.3   239  TYR239     -0.2866
     47  N         47.6240   49.9160   82.4510 N.3   277  ASN277     -0.1225
     48  CA        47.1440   51.1480   83.1050 C.3   277  ASN277      0.1785
     49  C         47.9660   51.5830   84.3560 C.2   277  ASN277      0.2597
     50  O         47.7860   52.7120   84.8260 O.2   277  ASN277     -0.2718
     51  CB        45.6480   51.0630   83.4340 C.3   277  ASN277      0.1169
     52  CG        45.2650   49.8680   84.2660 C.2   277  ASN277      0.2627
     53  OD1       45.3840   48.7220   83.8300 O.2   277  ASN277     -0.2716
     54  ND2       44.7830   50.1100   85.4800 N.am  277  ASN277     -0.0877
     55  N         48.8450   50.7120   84.8870 N.am  278  HIS278     -0.1975
     56  CA        49.6790   51.0300   86.0550 C.3   278  HIS278      0.1656
     57  C         51.0200   51.5930   85.5980 C.2   278  HIS278      0.2291
     58  O         51.7230   52.2500   86.3680 O.2   278  HIS278     -0.2864
     59  CB        49.9190   49.7780   86.9200 C.3   278  HIS278      0.0771
     60  CG        48.7720   49.4220   87.8090 C.ar  278  HIS278      0.0820
     61  ND1       48.9080   49.3940   89.1770 N.ar  278  HIS278     -0.2267
     62  CD2       47.5040   49.0880   87.4910 C.ar  278  HIS278      0.1154
     63  CE1       47.7260   49.0520   89.6570 C.ar  278  HIS278      0.1986
     64  NE2       46.8490   48.8480   88.6790 N.ar  278  HIS278     -0.2212
     65  N         36.4710   44.7480   81.3870 N.3   329  GLU329     -0.1245
     66  CA        35.7170   45.4630   82.4200 C.3   329  GLU329      0.1567
     67  C         34.3960   46.0200   81.8720 C.2   329  GLU329      0.2260
     68  O         33.3800   45.9280   82.5560 O.2   329  GLU329     -0.2867
     69  CB        36.5460   46.6270   82.9790 C.3   329  GLU329      0.0388
     70  CG        37.3040   46.3880   84.2630 C.3   329  GLU329      0.1160
     71  CD        38.0350   47.6550   84.6850 C.2   329  GLU329      0.3649
     72  OE1       38.6770   48.2790   83.8040 O.co2 329  GLU329     -0.2457
     73  OE2       38.2080   47.8410   85.9090 O.co2 329  GLU329     -0.2457
     74  N         34.9680   53.6110   83.0550 N.3   359  LYS359     -0.1245
     75  CA        36.1630   53.8320   83.8770 C.3   359  LYS359      0.1561
     76  C         37.4230   53.8220   82.9970 C.2   359  LYS359      0.2260
     77  O         38.4750   54.3270   83.4060 O.2   359  LYS359     -0.2867
     78  CB        36.2670   52.7780   84.9860 C.3   359  LYS359      0.0271
     79  CG        35.2300   52.9590   86.0860 C.3   359  LYS359      0.0035
     80  CD        35.2600   51.7990   87.0400 C.3   359  LYS359      0.0206
     81  CE        34.0140   51.7520   87.8780 C.3   359  LYS359      0.1093
     82  NZ        34.1040   50.6960   88.9200 N.3   359  LYS359     -0.1314
     83  N         45.2080   42.4380   82.5000 N.3   383  HIS383     -0.1226
     84  CA        44.3760   43.3610   83.2780 C.3   383  HIS383      0.1752
     85  C         43.4970   42.7280   84.3580 C.2   383  HIS383      0.2596
     86  O         43.5670   43.2210   85.4700 O.2   383  HIS383     -0.2718
     87  CB        43.5140   44.2600   82.3660 C.3   383  HIS383      0.0759
     88  CG        42.7300   45.3050   83.0970 C.ar  383  HIS383      0.0818
     89  ND1       43.3540   46.2840   83.8470 N.ar  383  HIS383     -0.2268
     90  CD2       41.3920   45.5000   83.1510 C.ar  383  HIS383      0.1154
     91  CE1       42.3850   47.0240   84.3590 C.ar  383  HIS383      0.1986
     92  NE2       41.1860   46.5920   83.9650 N.ar  383  HIS383     -0.2212
     93  N         42.6540   41.7120   84.0620 N.am  384  VAL384     -0.1966
     94  CA        41.7100   41.1740   85.0640 C.3   384  VAL384      0.1727
     95  C         42.3430   40.2500   86.1370 C.2   384  VAL384      0.2616
     96  O         41.6770   39.9590   87.1290 O.2   384  VAL384     -0.2715
     97  CB        40.4520   40.5160   84.4450 C.3   384  VAL384      0.0290
     98  CG1       39.7160   41.5010   83.5330 C.3   384  VAL384      0.0023
     99  CG2       40.7830   39.2200   83.7210 C.3   384  VAL384      0.0023
    100  N         43.5930   39.7940   85.9480 N.am  385  HIS385     -0.1973
    101  CA        44.3570   38.9710   86.9080 C.3   385  HIS385      0.1656
    102  C         43.8350   37.5340   87.0970 C.2   385  HIS385      0.2291
    103  O         44.2500   36.8490   88.0390 O.2   385  HIS385     -0.2864
    104  CB        44.4790   39.6890   88.2670 C.3   385  HIS385      0.0771
    105  CG        45.3520   40.9120   88.2460 C.ar  385  HIS385      0.0820
    106  ND1       45.8980   41.4150   89.4060 N.ar  385  HIS385     -0.2267
    107  CD2       45.7720   41.6670   87.2080 C.ar  385  HIS385      0.1154
    108  CE1       46.6090   42.4670   89.0490 C.ar  385  HIS385      0.1986
    109  NE2       46.5600   42.6570   87.7330 N.ar  385  HIS385     -0.2212
    110  N         50.8650   38.9970   90.7050 N.3   404  GLN404     -0.1245
    111  CA        50.4710   39.7420   91.8910 C.3   404  GLN404      0.1566
    112  C         49.3510   39.0240   92.6540 C.2   404  GLN404      0.2260
    113  O         48.2890   38.7690   92.0840 O.2   404  GLN404     -0.2867
    114  CB        50.0320   41.1730   91.4950 C.3   404  GLN404      0.0367
    115  CG        49.5780   42.0160   92.6800 C.3   404  GLN404      0.0905
    116  CD        49.1340   43.4040   92.3260 C.2   404  GLN404      0.2608
    117  OE1       48.1730   43.6220   91.5830 O.2   404  GLN404     -0.2717
    118  NE2       49.7740   44.3780   92.9320 N.am  404  GLN404     -0.0878
    119  N         43.0740   46.4560   98.1990 N.3   409  PHE409     -0.1227
    120  CA        42.1400   47.0850   97.2610 C.3   409  PHE409      0.1736
    121  C         41.3230   46.0820   96.4330 C.2   409  PHE409      0.2595
    122  O         40.1160   46.2760   96.2770 O.2   409  PHE409     -0.2718
    123  CB        42.8690   48.0880   96.3560 C.3   409  PHE409      0.0547
    124  CG        41.9460   49.0960   95.7230 C.ar  409  PHE409     -0.0202
    125  CD1       41.4850   48.9210   94.4240 C.ar  409  PHE409     -0.0042
    126  CD2       41.5090   50.2080   96.4360 C.ar  409  PHE409     -0.0042
    127  CE1       40.6070   49.8440   93.8480 C.ar  409  PHE409     -0.0003
    128  CE2       40.6390   51.1340   95.8540 C.ar  409  PHE409     -0.0003
    129  CZ        40.1930   50.9450   94.5650 C.ar  409  PHE409     -0.0000
    130  N         41.9770   45.0090   95.9290 N.am  410  GLN410     -0.1979
    131  CA        41.3490   43.9280   95.1580 C.3   410  GLN410      0.1601
    132  C         40.2920   43.2110   96.0080 C.2   410  GLN410      0.2287
    133  O         39.1850   42.9770   95.5180 O.2   410  GLN410     -0.2864
    134  CB        42.4000   42.9350   94.6220 C.3   410  GLN410      0.0394
    135  CG        43.2060   43.4880   93.4350 C.3   410  GLN410      0.0908
    136  CD        44.5260   42.7970   93.1540 C.2   410  GLN410      0.2608
    137  OE1       44.8970   41.7880   93.7620 O.2   410  GLN410     -0.2717
    138  NE2       45.2800   43.3460   92.2140 N.am  410  GLN410     -0.0878
    139  N         37.1540   45.4350   96.1710 N.3   413  VAL413     -0.1245
    140  CA        36.4040   45.5060   94.9060 C.3   413  VAL413      0.1561
    141  C         36.0510   44.0900   94.3840 C.2   413  VAL413      0.2260
    142  O         35.6070   43.9300   93.2450 O.2   413  VAL413     -0.2867
    143  CB        37.0760   46.4100   93.8270 C.3   413  VAL413      0.0252
    144  CG1       37.1650   47.8530   94.3010 C.3   413  VAL413      0.0019
    145  CG2       38.4530   45.8940   93.4120 C.3   413  VAL413      0.0019
    146  N         37.9420   41.3210   93.6430 N.3   415  ILE415     -0.1245
    147  CA        38.7760   40.7200   92.5970 C.3   415  ILE415      0.1561
    148  C         39.6070   39.5920   93.2610 C.2   415  ILE415      0.2260
    149  O         40.3730   39.8420   94.2020 O.2   415  ILE415     -0.2867
    150  CB        39.6210   41.7770   91.7870 C.3   415  ILE415      0.0252
    151  CG1       38.8520   42.3120   90.5560 C.3   415  ILE415      0.0019
    152  CG2       40.9490   41.2110   91.3140 C.3   415  ILE415      0.0019
    153  CD1       37.8260   43.3550   90.7900 C.3   415  ILE415      0.0001
@<TRIPOS>BOND
     1    65    66    1
     2    67    66    1
     3    67    68    2
     4    87    88    1
     5    87    84    1
     6    66    69    1
     7    47    48    1
     8    83    84    1
     9    19    20    1
    10    69    70    1
    11    76    77    2
    12    76    75    1
    13    74    75    1
    14    88    90   ar
    15    88    89   ar
    16    48    51    1
    17    48    49    1
    18    90    92   ar
    19    84    85    1
    20    51    52    1
    21    98    97    1
    22     8     6   ar
    23    99    97    1
    24    72    71   ar
    25    53    52    2
    26    89    91   ar
    27    75    78    1
    28     1     2    1
    29    92    91   ar
    30    93    85   am
    31    93    94    1
    32    20    21    1
    33    20    23    1
    34    70    71    1
    35    52    54   am
    36    49    50    2
    37    49    55   am
    38    85    86    2
    39    25    24   ar
    40    97    94    1
    41    21    22    2
    42     6     7   ar
    43     6     5    1
    44    71    73   ar
    45    55    56    1
    46    24    23    1
    47    24    26   ar
    48    78    79    1
    49    94    95    1
    50     2     5    1
    51     2     3    1
    52    57    56    1
    53    57    58    2
    54   100    95   am
    55   100   101    1
    56    56    59    1
    57    79    80    1
    58    95    96    2
    59     3     4    2
    60   101   102    1
    61   101   104    1
    62    59    60    1
    63    80    81    1
    64   102   103    2
    65   107   109   ar
    66   107   105   ar
    67    62    60   ar
    68    62    64   ar
    69   109   108   ar
    70    60    61   ar
    71    81    82    1
    72    18    16   ar
    73    18    17   ar
    74     9    10    1
    75    34    32    1
    76   105   104    1
    77   105   106   ar
    78    16    14   ar
    79    17    15   ar
    80    64    63   ar
    81   108   106   ar
    82    10    13    1
    83    10    11    1
    84    61    63   ar
    85    14    15   ar
    86    14    13    1
    87    33    31    1
    88    32    31    1
    89    11    12    2
    90    31    28    1
    91    28    29    1
    92    28    27    1
    93    30    29    2
    94   151   153    1
    95   151   150    1
    96   110   111    1
    97    29    35   am
    98   152   150    1
    99   114   111    1
   100   114   115    1
   101   117   116    2
   102   150   147    1
   103   111   112    1
   104   113   112    2
   105   138   136   am
   106   116   115    1
   107   116   118   am
   108    35    36    1
   109   147   148    1
   110   147   146    1
   111   136   135    1
   112   136   137    2
   113   142   141    2
   114   148   149    2
   115    36    39    1
   116    36    37    1
   117    42    44   ar
   118    42    40   ar
   119    39    40    1
   120   145   143    1
   121   135   134    1
   122   143   144    1
   123   143   140    1
   124   127   125   ar
   125   127   129   ar
   126    44    45   ar
   127    40    41   ar
   128   141   140    1
   129   125   124   ar
   130   129   128   ar
   131   134   131    1
   132    37    38    2
   133   140   139    1
   134   131   130    1
   135   131   132    1
   136    45    46    1
   137    45    43   ar
   138    41    43   ar
   139   133   132    2
   140   124   123    1
   141   124   126   ar
   142   128   126   ar
   143   130   121   am
   144   122   121    2
   145   123   120    1
   146   121   120    1
   147   120   119    1
