@<TRIPOS>MOLECULE
tmp/5ihhB00.pdb
 84 77 0 0 0
SMALL
GASTEIGER

@<TRIPOS>ATOM
      1  N         23.4260  -32.4660  -11.2960 N.3     4  MET4       -0.1245
      2  CA        22.2070  -32.5910  -10.5080 C.3     4  MET4        0.1570
      3  C         21.7140  -31.1840  -10.1810 C.2     4  MET4        0.2261
      4  O         22.5170  -30.2680   -9.9780 O.2     4  MET4       -0.2867
      5  CB        22.4620  -33.3840   -9.1970 C.3     4  MET4        0.0387
      6  CG        21.1830  -33.8190   -8.4380 C.3     4  MET4        0.0595
      7  SD        20.5810  -32.6660   -7.1880 S.3     4  MET4       -0.1393
      8  CE        21.5600  -33.1510   -5.7750 C.3     4  MET4        0.0692
      9  N         19.0430  -29.0560   -7.5620 N.3     6  LYS6       -0.1245
     10  CA        18.2990  -29.1300   -6.3090 C.3     6  LYS6        0.1561
     11  C         17.6550  -27.7800   -6.0650 C.2     6  LYS6        0.2260
     12  O         18.3390  -26.7560   -6.1390 O.2     6  LYS6       -0.2867
     13  CB        19.2210  -29.4810   -5.1390 C.3     6  LYS6        0.0271
     14  CG        18.4310  -29.6790   -3.8540 C.3     6  LYS6        0.0035
     15  CD        19.2350  -30.3760   -2.7880 C.3     6  LYS6        0.0206
     16  CE        18.4100  -30.6610   -1.5220 C.3     6  LYS6        0.1093
     17  NZ        17.2820  -31.6130   -1.6650 N.3     6  LYS6       -0.1314
     18  N         14.9850  -25.4900   -3.5180 N.3     8  LEU8       -0.1245
     19  CA        14.3810  -25.3500   -2.2030 C.3     8  LEU8        0.1561
     20  C         13.4980  -24.1140   -2.1640 C.2     8  LEU8        0.2260
     21  O         13.7610  -23.1250   -2.8470 O.2     8  LEU8       -0.2867
     22  CB        15.4450  -25.1910   -1.1160 C.3     8  LEU8        0.0270
     23  CG        16.3860  -26.3750   -0.9340 C.3     8  LEU8        0.0019
     24  CD1       17.4610  -26.0510    0.0450 C.3     8  LEU8        0.0001
     25  CD2       15.6490  -27.6250   -0.5290 C.3     8  LEU8        0.0001
     26  N         11.5240  -28.7190    0.1530 N.3    15  PRO15      -0.2116
     27  CA        11.9090  -28.8600   -1.2480 C.3    15  PRO15       0.1372
     28  C         10.8710  -28.1890   -2.1360 C.2    15  PRO15       0.2244
     29  O          9.6850  -28.1070   -1.7960 O.2    15  PRO15      -0.2868
     30  CB        11.9300  -30.3800   -1.4650 C.3    15  PRO15       0.0268
     31  CG        11.8190  -30.9900   -0.1600 C.3    15  PRO15       0.0207
     32  CD        11.2700  -30.0140    0.7970 C.3    15  PRO15       0.0892
     33  N         26.5590  -30.0460   -8.6440 N.3    97  THR97      -0.1218
     34  CA        25.2190  -29.8380   -8.1170 C.3    97  THR97       0.1862
     35  C         24.9350  -28.3510   -8.2020 C.2    97  THR97       0.2287
     36  O         25.6880  -27.5290   -7.6510 O.2    97  THR97      -0.2866
     37  CB        25.0920  -30.3280   -6.6760 C.3    97  THR97       0.1770
     38  OG1       25.2630  -31.7420   -6.6530 O.3    97  THR97      -0.2211
     39  CG2       23.7330  -29.9940   -6.1210 C.3    97  THR97       0.0375
     40  N         22.3580  -25.7870   -6.9730 N.3    99  ALA99      -0.1231
     41  CA        21.3110  -25.6010   -5.9800 C.3    99  ALA99       0.1694
     42  C         20.7180  -24.2030   -6.1150 C.2    99  ALA99       0.2592
     43  O         21.4480  -23.2450   -6.3800 O.2    99  ALA99      -0.2718
     44  CB        21.8440  -25.7930   -4.5510 C.3    99  ALA99       0.0304
     45  N         19.4060  -24.0910   -5.9150 N.am  100  ALA100     -0.1966
     46  CA        18.7170  -22.8110   -5.9090 C.3   100  ALA100      0.1728
     47  C         17.7490  -22.7610   -4.7400 C.2   100  ALA100      0.2616
     48  O         16.9970  -23.7030   -4.4960 O.2   100  ALA100     -0.2715
     49  CB        17.9290  -22.6000   -7.2110 C.3   100  ALA100      0.0334
     50  N         17.7580  -21.6270   -4.0520 N.am  101  LEU101     -0.1977
     51  CA        16.8910  -21.3580   -2.9170 C.3   101  LEU101      0.1596
     52  C         15.9790  -20.2040   -3.3090 C.2   101  LEU101      0.2287
     53  O         16.4580  -19.0980   -3.5940 O.2   101  LEU101     -0.2864
     54  CB        17.7360  -20.9840   -1.7010 C.3   101  LEU101      0.0297
     55  CG        16.9660  -20.5840   -0.4410 C.3   101  LEU101      0.0022
     56  CD1       16.1150  -21.7460    0.0680 C.3   101  LEU101      0.0001
     57  CD2       17.9240  -20.0700    0.6570 C.3   101  LEU101      0.0001
     58  N         18.7850  -17.4010   -4.5320 N.3   108  SER108     -0.1202
     59  CA        20.2200  -17.5750   -4.4470 C.3   108  SER108      0.2020
     60  C         20.5710  -18.9290   -5.0280 C.2   108  SER108      0.2619
     61  O         19.8580  -19.9240   -4.8230 O.2   108  SER108     -0.2717
     62  CB        20.6950  -17.5470   -3.0240 C.3   108  SER108      0.2103
     63  OG        20.3200  -18.7620   -2.4240 O.3   108  SER108     -0.2182
     64  N         21.6740  -18.9600   -5.7490 N.am  109  THR109     -0.1938
     65  CA        22.1330  -20.1810   -6.3760 C.3   109  THR109      0.2028
     66  C         23.5890  -20.4190   -6.0470 C.2   109  THR109      0.2642
     67  O         24.3910  -19.4830   -5.9850 O.2   109  THR109     -0.2714
     68  CB        21.8790  -20.1550   -7.8830 C.3   109  THR109      0.1808
     69  OG1       22.1940  -21.4310   -8.4310 O.3   109  THR109     -0.2208
     70  CG2       22.6900  -19.0940   -8.5910 C.3   109  THR109      0.0379
     71  N         23.9160  -21.6930   -5.9730 N.am  110  THR110     -0.1950
     72  CA        25.2140  -22.1390   -5.5450 C.3   110  THR110      0.1897
     73  C         25.6000  -23.3250   -6.4030 C.2   110  THR110      0.2313
     74  O         24.7450  -24.0450   -6.9210 O.2   110  THR110     -0.2863
     75  CB        25.1250  -22.5090   -4.0770 C.3   110  THR110      0.1794
     76  OG1       24.6240  -21.3670   -3.3760 O.3   110  THR110     -0.2208
     77  CG2       26.4980  -22.9230   -3.5380 C.3   110  THR110      0.0378
     78  N         27.9900  -26.7110   -6.1050 N.3   112  VAL112     -0.1245
     79  CA        28.7850  -27.6060   -5.2750 C.3   112  VAL112      0.1561
     80  C         29.4010  -28.5980   -6.2360 C.2   112  VAL112      0.2260
     81  O         28.6910  -29.3660   -6.9020 O.2   112  VAL112     -0.2867
     82  CB        27.9440  -28.2990   -4.1960 C.3   112  VAL112      0.0252
     83  CG1       28.8220  -29.1500   -3.2720 C.3   112  VAL112      0.0019
     84  CG2       27.1800  -27.2490   -3.3780 C.3   112  VAL112      0.0019
@<TRIPOS>BOND
     1     1     2    1
     2     2     3    1
     3     2     5    1
     4     3     4    2
     5     5     6    1
     6    33    34    1
     7    70    68    1
     8     6     7    1
     9    69    68    1
    10    35    34    1
    11    35    36    2
    12    34    37    1
    13    68    65    1
    14     9    10    1
    15    49    46    1
    16     7     8    1
    17    40    41    1
    18    74    73    2
    19    81    80    2
    20    37    38    1
    21    37    39    1
    22    73    72    1
    23    43    42    2
    24    65    66    1
    25    65    64    1
    26    10    11    1
    27    10    13    1
    28    80    79    1
    29    12    11    2
    30    42    41    1
    31    42    45   am
    32    78    79    1
    33    66    67    2
    34    66    71   am
    35    41    44    1
    36    71    72    1
    37    45    46    1
    38    46    47    1
    39    64    60   am
    40    72    75    1
    41    79    82    1
    42    13    14    1
    43    60    61    2
    44    60    59    1
    45    47    48    2
    46    47    50   am
    47    58    59    1
    48    59    62    1
    49    82    84    1
    50    82    83    1
    51    75    77    1
    52    75    76    1
    53    50    51    1
    54    14    15    1
    55    53    52    2
    56    18    19    1
    57    52    51    1
    58    62    63    1
    59    51    54    1
    60    21    20    2
    61    15    16    1
    62    19    20    1
    63    19    22    1
    64    28    29    2
    65    28    27    1
    66    54    55    1
    67    17    16    1
    68    30    27    1
    69    30    31    1
    70    27    26    1
    71    22    23    1
    72    23    25    1
    73    23    24    1
    74    55    56    1
    75    55    57    1
    76    31    32    1
    77    26    32    1
