@<TRIPOS>MOLECULE
tmp/5ihjA00.pdb
 89 83 0 0 0
SMALL
GASTEIGER

@<TRIPOS>ATOM
      1  N        -31.9940  -11.6630   30.3440 N.3   168  PHE168     -0.1241
      2  CA       -31.6370  -11.3830   31.7300 C.3   168  PHE168      0.1605
      3  C        -31.3820   -9.8790   31.8280 C.2   168  PHE168      0.2264
      4  O        -30.6340   -9.3360   31.0090 O.2   168  PHE168     -0.2867
      5  CB       -30.3610  -12.1350   32.1210 C.3   168  PHE168      0.0534
      6  CG       -30.4880  -13.6350   32.1000 C.ar  168  PHE168     -0.0203
      7  CD1      -31.2020  -14.3000   33.0860 C.ar  168  PHE168     -0.0042
      8  CD2      -29.8840  -14.3860   31.1120 C.ar  168  PHE168     -0.0042
      9  CE1      -31.3110  -15.6860   33.0750 C.ar  168  PHE168     -0.0003
     10  CE2      -29.9930  -15.7720   31.0920 C.ar  168  PHE168     -0.0003
     11  CZ       -30.7060  -16.4210   32.0770 C.ar  168  PHE168     -0.0000
     12  N        -29.5410  -12.6730   37.0570 N.3   177  ILE177     -0.1231
     13  CA       -30.0270  -13.9660   36.5670 C.3   177  ILE177      0.1692
     14  C        -31.4060  -14.4370   37.0940 C.2   177  ILE177      0.2591
     15  O        -31.9180  -15.4550   36.6040 O.2   177  ILE177     -0.2718
     16  CB       -28.9860  -15.0880   36.7860 C.3   177  ILE177      0.0266
     17  CG1      -28.6810  -15.2840   38.2770 C.3   177  ILE177      0.0019
     18  CG2      -27.7300  -14.7960   35.9620 C.3   177  ILE177      0.0020
     19  CD1      -27.8930  -16.5350   38.6000 C.3   177  ILE177      0.0001
     20  N        -31.9750  -13.7520   38.0930 N.am  178  LYS178     -0.1980
     21  CA       -33.3450  -14.0360   38.5580 C.3   178  LYS178      0.1596
     22  C        -34.3720  -13.0440   37.9890 C.2   178  LYS178      0.2287
     23  O        -35.5530  -13.1160   38.3330 O.2   178  LYS178     -0.2864
     24  CB       -33.4130  -14.0460   40.1030 C.3   178  LYS178      0.0298
     25  CG       -32.5070  -15.0620   40.8020 C.3   178  LYS178      0.0038
     26  CD       -32.8350  -16.4980   40.4190 C.3   178  LYS178      0.0206
     27  CE       -31.9940  -17.5010   41.1930 C.3   178  LYS178      0.1093
     28  NZ       -32.3320  -17.5710   42.6470 N.3   178  LYS178     -0.1314
     29  N        -35.5830  -12.6130   34.7010 N.3   180  VAL180     -0.1245
     30  CA       -35.8700  -13.0450   33.3430 C.3   180  VAL180      0.1561
     31  C        -36.9610  -12.1260   32.7430 C.2   180  VAL180      0.2260
     32  O        -37.8780  -11.7200   33.4520 O.2   180  VAL180     -0.2867
     33  CB       -36.2910  -14.5330   33.3070 C.3   180  VAL180      0.0252
     34  CG1      -36.5710  -14.9760   31.8750 C.3   180  VAL180      0.0019
     35  CG2      -35.2160  -15.4120   33.9520 C.3   180  VAL180      0.0019
     36  N        -26.0860  -19.7300   32.2280 N.3   334  GLN334     -0.1245
     37  CA       -27.5670  -19.8480   32.2610 C.3   334  GLN334      0.1566
     38  C        -28.2640  -19.6670   30.9110 C.2   334  GLN334      0.2260
     39  O        -29.4800  -19.8180   30.8230 O.2   334  GLN334     -0.2867
     40  CB       -28.1640  -18.8140   33.2380 C.3   334  GLN334      0.0367
     41  CG       -27.8070  -19.0250   34.7110 C.3   334  GLN334      0.0905
     42  CD       -26.4290  -18.4880   35.1190 C.2   334  GLN334      0.2608
     43  OE1      -25.7240  -17.8200   34.3430 O.2   334  GLN334     -0.2717
     44  NE2      -26.0500  -18.7770   36.3400 N.am  334  GLN334     -0.0878
     45  N        -30.2100  -22.7610   29.6220 N.3   337  ALA337     -0.1245
     46  CA       -31.4060  -22.8900   30.4280 C.3   337  ALA337      0.1562
     47  C        -32.4940  -21.9090   29.9720 C.2   337  ALA337      0.2260
     48  O        -33.6710  -22.2850   29.8670 O.2   337  ALA337     -0.2867
     49  CB       -31.0850  -22.6740   31.8940 C.3   337  ALA337      0.0290
     50  N        -39.4490  -18.7380   33.8690 N.3   364  GLN364     -0.1245
     51  CA       -38.4040  -18.6500   34.8800 C.3   364  GLN364      0.1566
     52  C        -38.2140  -19.9820   35.6260 C.2   364  GLN364      0.2260
     53  O        -37.0810  -20.4320   35.7890 O.2   364  GLN364     -0.2867
     54  CB       -38.6420  -17.4990   35.8750 C.3   364  GLN364      0.0367
     55  CG       -37.4090  -17.2230   36.7500 C.3   364  GLN364      0.0905
     56  CD       -37.2030  -15.7620   37.1100 C.2   364  GLN364      0.2608
     57  OE1      -37.4000  -14.8620   36.2970 O.2   364  GLN364     -0.2717
     58  NE2      -36.7920  -15.5210   38.3510 N.am  364  GLN364     -0.0878
     59  N        -36.6760  -22.7020   33.2300 N.3   367  ALA367     -0.1231
     60  CA       -35.2670  -22.3620   33.0890 C.3   367  ALA367      0.1694
     61  C        -34.4340  -22.8420   34.3070 C.2   367  ALA367      0.2591
     62  O        -33.3890  -23.4770   34.1440 O.2   367  ALA367     -0.2718
     63  CB       -35.1160  -20.8640   32.8920 C.3   367  ALA367      0.0304
     64  N        -34.9220  -22.5660   35.5150 N.am  368  ALA368     -0.1980
     65  CA       -34.2880  -23.0680   36.7620 C.3   368  ALA368      0.1597
     66  C        -34.1540  -24.5930   36.8080 C.2   368  ALA368      0.2287
     67  O        -33.0820  -25.1310   37.1560 O.2   368  ALA368     -0.2864
     68  CB       -35.0320  -22.5680   37.9890 C.3   368  ALA368      0.0319
     69  N        -31.3950  -25.4750   34.4690 N.3   371  TYR371     -0.1227
     70  CA       -30.0860  -25.1140   35.0250 C.3   371  TYR371      0.1736
     71  C        -29.6030  -26.0960   36.1040 C.2   371  TYR371      0.2595
     72  O        -28.4000  -26.4040   36.2070 O.2   371  TYR371     -0.2718
     73  CB       -30.0870  -23.6860   35.5740 C.3   371  TYR371      0.0548
     74  CG       -28.6860  -23.1680   35.7950 C.ar  371  TYR371     -0.0200
     75  CD1      -27.8210  -23.0140   34.7160 C.ar  371  TYR371     -0.0009
     76  CD2      -28.2050  -22.8720   37.0710 C.ar  371  TYR371     -0.0009
     77  CE1      -26.5320  -22.5600   34.8860 C.ar  371  TYR371      0.0417
     78  CE2      -26.9130  -22.4090   37.2580 C.ar  371  TYR371      0.0417
     79  CZ       -26.0830  -22.2590   36.1570 C.ar  371  TYR371      0.1957
     80  OH       -24.7980  -21.8070   36.2830 O.3   371  TYR371     -0.2866
     81  N        -30.5500  -26.5850   36.8880 N.am  372  GLN372     -0.1979
     82  CA       -30.2810  -27.5760   37.9210 C.3   372  GLN372      0.1601
     83  C        -29.7460  -28.8660   37.3080 C.2   372  GLN372      0.2287
     84  O        -28.8100  -29.4810   37.8500 O.2   372  GLN372     -0.2864
     85  CB       -31.5360  -27.8450   38.7620 C.3   372  GLN372      0.0394
     86  CG       -31.8060  -26.7860   39.8320 C.3   372  GLN372      0.0908
     87  CD       -33.2840  -26.6850   40.2430 C.2   372  GLN372      0.2608
     88  OE1      -34.1210  -27.5580   39.9410 O.2   372  GLN372     -0.2717
     89  NE2      -33.6100  -25.6030   40.9310 N.am  372  GLN372     -0.0878
@<TRIPOS>BOND
     1    45    46    1
     2    48    47    2
     3    47    46    1
     4     1     2    1
     5    46    49    1
     6    39    38    2
     7    38    37    1
     8     4     3    2
     9    10     8   ar
    10    10    11   ar
    11     8     6   ar
    12     2     3    1
    13     2     5    1
    14    34    33    1
    15    11     9   ar
    16     6     5    1
    17     6     7   ar
    18    36    37    1
    19    37    40    1
    20    31    30    1
    21    31    32    2
    22    63    60    1
    23     9     7   ar
    24    60    59    1
    25    60    61    1
    26    40    41    1
    27    33    30    1
    28    33    35    1
    29    30    29    1
    30    50    51    1
    31    62    61    2
    32    61    64   am
    33    43    42    2
    34    69    70    1
    35    41    42    1
    36    75    77   ar
    37    75    74   ar
    38    51    52    1
    39    51    54    1
    40    77    79   ar
    41    70    73    1
    42    70    71    1
    43    42    44   am
    44    64    65    1
    45    73    74    1
    46    52    53    2
    47    74    76   ar
    48    54    55    1
    49    18    16    1
    50    71    72    2
    51    71    81   am
    52    79    80    1
    53    79    78   ar
    54    57    56    2
    55    13    16    1
    56    13    12    1
    57    13    14    1
    58    15    14    2
    59    55    56    1
    60    65    66    1
    61    65    68    1
    62    16    17    1
    63    66    67    2
    64    81    82    1
    65    76    78   ar
    66    14    20   am
    67    56    58   am
    68    83    84    2
    69    83    82    1
    70    82    85    1
    71    22    23    2
    72    22    21    1
    73    20    21    1
    74    17    19    1
    75    21    24    1
    76    85    86    1
    77    86    87    1
    78    88    87    2
    79    24    25    1
    80    87    89   am
    81    26    25    1
    82    26    27    1
    83    27    28    1
