@<TRIPOS>MOLECULE
tmp/5ihjA01.pdb
 227 222 0 0 0
SMALL
GASTEIGER

@<TRIPOS>ATOM
      1  N        -21.5940  -27.2170   13.2190 N.3    11  ASN11      -0.1240
      2  CA       -22.9930  -27.5360   12.9880 C.3    11  ASN11       0.1653
      3  C        -23.2920  -27.7580   11.4970 C.2    11  ASN11       0.2266
      4  O        -22.6660  -27.1430   10.6360 O.2    11  ASN11      -0.2867
      5  CB       -23.8930  -26.4340   13.5530 C.3    11  ASN11       0.1155
      6  CG       -25.3360  -26.8830   13.6900 C.2    11  ASN11       0.2627
      7  OD1      -25.6260  -27.9420   14.2540 O.2    11  ASN11      -0.2716
      8  ND2      -26.2430  -26.0810   13.1820 N.am   11  ASN11      -0.0877
      9  N        -25.5090  -26.7940    9.4440 N.3    13  ASP13      -0.1225
     10  CA       -25.9430  -25.6670    8.6020 C.3    13  ASP13       0.1805
     11  C        -24.8000  -24.7160    8.1830 C.2    13  ASP13       0.2597
     12  O        -25.0500  -23.7590    7.4560 O.2    13  ASP13      -0.2718
     13  CB       -27.1050  -24.8950    9.2700 C.3    13  ASP13       0.1424
     14  CG       -26.7290  -24.2760   10.6160 C.2    13  ASP13       0.3668
     15  OD1      -25.5810  -24.4800   11.0900 O.co2  13  ASP13      -0.2456
     16  OD2      -27.5910  -23.5900   11.2160 O.co2  13  ASP13      -0.2456
     17  N        -23.5610  -24.9700    8.6250 N.am   14  LYS14      -0.1979
     18  CA       -22.4240  -24.1090    8.2860 C.3    14  LYS14       0.1596
     19  C        -21.5420  -24.7290    7.2130 C.2    14  LYS14       0.2287
     20  O        -21.6930  -25.9020    6.8860 O.2    14  LYS14      -0.2864
     21  CB       -21.5880  -23.8350    9.5320 C.3    14  LYS14       0.0298
     22  CG       -22.3730  -23.2130   10.6840 C.3    14  LYS14       0.0038
     23  CD       -23.0210  -21.8910   10.2860 C.3    14  LYS14       0.0206
     24  CE       -23.5130  -21.1120   11.4960 C.3    14  LYS14       0.1093
     25  NZ       -24.6120  -21.8280   12.1960 N.3    14  LYS14      -0.1314
     26  N        -27.0160  -32.4190   17.1530 N.3    41  LYS41      -0.1245
     27  CA       -26.9800  -31.8850   18.5200 C.3    41  LYS41       0.1561
     28  C        -25.5940  -31.9750   19.1810 C.2    41  LYS41       0.2260
     29  O        -25.4470  -32.4360   20.3170 O.2    41  LYS41      -0.2867
     30  CB       -28.0790  -32.5380   19.3650 C.3    41  LYS41       0.0271
     31  CG       -29.4960  -32.1770   18.9120 C.3    41  LYS41       0.0035
     32  CD       -29.8550  -30.7120   19.2210 C.3    41  LYS41       0.0206
     33  CE       -30.6630  -30.0280   18.1150 C.3    41  LYS41       0.1093
     34  NZ       -30.3610  -28.5670   18.0210 N.3    41  LYS41      -0.1314
     35  N        -23.6550  -29.5390   20.2210 N.3    43  GLU43      -0.1231
     36  CA       -23.5460  -28.5850   21.3290 C.3    43  GLU43       0.1699
     37  C        -24.0110  -29.1670   22.6840 C.2    43  GLU43       0.2592
     38  O        -23.5580  -28.7100   23.7310 O.2    43  GLU43      -0.2718
     39  CB       -24.2720  -27.2610   20.9920 C.3    43  GLU43       0.0402
     40  CG       -25.7840  -27.1860   21.2470 C.3    43  GLU43       0.1161
     41  CD       -26.6160  -28.0500   20.3130 C.2    43  GLU43       0.3649
     42  OE1      -26.0390  -28.7140   19.4290 O.co2  43  GLU43      -0.2457
     43  OE2      -27.8580  -28.0640   20.4550 O.co2  43  GLU43      -0.2457
     44  N        -24.9130  -30.1560   22.6440 N.am   44  GLU44      -0.1979
     45  CA       -25.2980  -30.9440   23.8340 C.3    44  GLU44       0.1602
     46  C        -24.5110  -32.2610   23.9940 C.2    44  GLU44       0.2287
     47  O        -24.4180  -32.7780   25.1010 O.2    44  GLU44      -0.2864
     48  CB       -26.8080  -31.2380   23.8440 C.3    44  GLU44       0.0415
     49  CG       -27.6620  -30.1250   24.4470 C.3    44  GLU44       0.1163
     50  CD       -27.4180  -29.8420   25.9470 C.2    44  GLU44       0.3649
     51  OE1      -26.7870  -30.6530   26.6700 O.co2  44  GLU44      -0.2457
     52  OE2      -27.8750  -28.7780   26.4230 O.co2  44  GLU44      -0.2457
     53  N        -19.3550  -23.1870   17.5380 N.3    61  TRP61      -0.1227
     54  CA       -20.7570  -22.8690   17.8150 C.3    61  TRP61       0.1737
     55  C        -20.8050  -21.3690   18.0360 C.2    61  TRP61       0.2595
     56  O        -19.7550  -20.7120   18.0870 O.2    61  TRP61      -0.2718
     57  CB       -21.2860  -23.6480   19.0530 C.3    61  TRP61       0.0564
     58  CG       -22.7760  -23.6300   19.2080 C.ar   61  TRP61       0.0003
     59  CD1      -23.4990  -22.7740   19.9780 C.ar   61  TRP61       0.0946
     60  CD2      -23.7260  -24.4700   18.5460 C.ar   61  TRP61       0.0152
     61  NE1      -24.8430  -23.0150   19.8380 N.ar   61  TRP61      -0.2442
     62  CE2      -25.0130  -24.0650   18.9760 C.ar   61  TRP61       0.0810
     63  CE3      -23.6180  -25.5340   17.6540 C.ar   61  TRP61       0.0012
     64  CZ2      -26.1880  -24.6930   18.5420 C.ar   61  TRP61       0.0191
     65  CZ3      -24.7810  -26.1560   17.2180 C.ar   61  TRP61       0.0001
     66  CH2      -26.0540  -25.7310   17.6670 C.ar   61  TRP61       0.0015
     67  N        -22.0090  -20.8230   18.1250 N.am   62  ALA62      -0.1980
     68  CA       -22.1960  -19.4650   18.6390 C.3    62  ALA62       0.1597
     69  C        -21.7280  -19.3190   20.0900 C.2    62  ALA62       0.2287
     70  O        -21.7850  -20.2650   20.9070 O.2    62  ALA62      -0.2864
     71  CB       -23.6500  -19.0270   18.5060 C.3    62  ALA62       0.0319
     72  N        -22.8660  -17.9280   22.7100 N.3    64  ASP64      -0.1225
     73  CA       -23.7650  -18.1000   23.8520 C.3    64  ASP64       0.1805
     74  C        -23.5100  -19.3700   24.6380 C.2    64  ASP64       0.2597
     75  O        -23.6370  -19.3440   25.8500 O.2    64  ASP64      -0.2718
     76  CB       -25.2720  -17.9760   23.4800 C.3    64  ASP64       0.1424
     77  CG       -25.7380  -19.0300   22.4900 C.2    64  ASP64       0.3668
     78  OD1      -25.1100  -19.1300   21.4220 O.co2  64  ASP64      -0.2456
     79  OD2      -26.7420  -19.7290   22.7620 O.co2  64  ASP64      -0.2456
     80  N        -23.1180  -20.4600   23.9780 N.am   65  ARG65      -0.1979
     81  CA       -22.8360  -21.7240   24.6950 C.3    65  ARG65       0.1597
     82  C        -21.4830  -21.8610   25.4210 C.2    65  ARG65       0.2287
     83  O        -21.3140  -22.7980   26.2230 O.2    65  ARG65      -0.2864
     84  CB       -23.0620  -22.9410   23.7900 C.3    65  ARG65       0.0334
     85  CG       -24.5440  -23.2970   23.6560 C.3    65  ARG65       0.0492
     86  CD       -24.7980  -24.7930   23.6550 C.3    65  ARG65       0.2205
     87  NE       -24.7340  -25.3660   24.9830 N.pl3  65  ARG65      -0.0865
     88  CZ       -25.6290  -26.1700   25.5630 C.cat  65  ARG65       0.5346
     89  NH1      -26.7670  -26.5280   24.9750 N.pl3  65  ARG65       0.1354
     90  NH2      -25.3630  -26.6320   26.7840 N.pl3  65  ARG65       0.1354
     91  N        -23.2980  -12.9160   13.0370 N.3   110  GLU110     -0.1245
     92  CA       -24.4760  -13.3080   12.2970 C.3   110  GLU110      0.1567
     93  C        -25.7200  -12.8230   13.0190 C.2   110  GLU110      0.2260
     94  O        -25.8330  -12.9560   14.2460 O.2   110  GLU110     -0.2867
     95  CB       -24.5020  -14.8270   12.0660 C.3   110  GLU110      0.0388
     96  CG       -23.9710  -15.6960   13.2060 C.3   110  GLU110      0.1160
     97  CD       -23.5190  -17.0810   12.7600 C.2   110  GLU110      0.3649
     98  OE1      -22.7070  -17.1710   11.8070 O.co2 110  GLU110     -0.2457
     99  OE2      -23.9580  -18.0760   13.3820 O.co2 110  GLU110     -0.2457
    100  N        -38.7310  -21.0680   10.6060 N.3   149  ASN149     -0.1240
    101  CA       -38.6180  -22.1140   11.6070 C.3   149  ASN149      0.1653
    102  C        -39.2650  -21.7140   12.9500 C.2   149  ASN149      0.2266
    103  O        -38.6680  -20.9990   13.7510 O.2   149  ASN149     -0.2867
    104  CB       -37.1430  -22.4610   11.8130 C.3   149  ASN149      0.1155
    105  CG       -36.9350  -23.6780   12.6870 C.2   149  ASN149      0.2627
    106  OD1      -37.8820  -24.3930   13.0470 O.2   149  ASN149     -0.2716
    107  ND2      -35.6780  -23.9380   13.0160 N.am  149  ASN149     -0.0877
    108  N        -37.5780  -23.4550   16.7300 N.3   152  GLU152     -0.1231
    109  CA       -36.3710  -22.9920   17.4120 C.3   152  GLU152      0.1684
    110  C        -36.5910  -21.5460   17.8270 C.2   152  GLU152      0.2434
    111  O        -36.8810  -20.7060   16.9690 O.2   152  GLU152     -0.2733
    112  CB       -35.1490  -23.1120   16.4700 C.3   152  GLU152      0.0402
    113  CG       -34.4730  -24.4780   16.4710 C.3   152  GLU152      0.1161
    114  CD       -33.9750  -24.8970   17.8620 C.2   152  GLU152      0.3649
    115  OE1      -33.5420  -24.0260   18.6600 O.co2 152  GLU152     -0.2457
    116  OE2      -34.0350  -26.1070   18.1750 O.co2 152  GLU152     -0.2457
    117  N        -36.4870  -21.2370   19.1450 N.am  153  PRO153     -0.2718
    118  CA       -36.8350  -19.8780   19.5950 C.3   153  PRO153      0.1535
    119  C        -35.9280  -18.7400   19.0740 C.2   153  PRO153      0.2599
    120  O        -36.3340  -17.5870   19.1230 O.2   153  PRO153     -0.2715
    121  CB       -36.7410  -19.9940   21.1240 C.3   153  PRO153      0.0310
    122  CG       -35.7270  -21.0690   21.3340 C.3   153  PRO153      0.0237
    123  CD       -36.0670  -22.0780   20.2840 C.3   153  PRO153      0.0939
    124  N        -34.7270  -19.0530   18.5810 N.am  154  TYR154     -0.1960
    125  CA       -33.8720  -18.0560   17.9070 C.3   154  TYR154      0.1771
    126  C        -34.6240  -17.2490   16.8560 C.2   154  TYR154      0.2619
    127  O        -34.3990  -16.0400   16.7150 O.2   154  TYR154     -0.2715
    128  CB       -32.6880  -18.7730   17.2680 C.3   154  TYR154      0.0574
    129  CG       -31.6630  -17.9340   16.5300 C.ar  154  TYR154     -0.0198
    130  CD1      -30.7310  -17.1590   17.2260 C.ar  154  TYR154     -0.0009
    131  CD2      -31.5570  -17.9930   15.1170 C.ar  154  TYR154     -0.0009
    132  CE1      -29.7510  -16.4390   16.5490 C.ar  154  TYR154      0.0417
    133  CE2      -30.5790  -17.2790   14.4320 C.ar  154  TYR154      0.0417
    134  CZ       -29.6780  -16.4970   15.1480 C.ar  154  TYR154      0.1957
    135  OH       -28.7170  -15.7650   14.4770 O.3   154  TYR154     -0.2866
    136  N        -35.5360  -17.9280   16.1520 N.am  155  PHE155     -0.1974
    137  CA       -36.2680  -17.3570   15.0170 C.3   155  PHE155      0.1639
    138  C        -37.4920  -16.5490   15.4200 C.2   155  PHE155      0.2290
    139  O        -37.8530  -15.6140   14.7270 O.2   155  PHE155     -0.2864
    140  CB       -36.6550  -18.4640   14.0360 C.3   155  PHE155      0.0560
    141  CG       -35.4790  -19.1410   13.3840 C.ar  155  PHE155     -0.0200
    142  CD1      -34.9560  -18.6540   12.1740 C.ar  155  PHE155     -0.0042
    143  CD2      -34.8990  -20.2780   13.9480 C.ar  155  PHE155     -0.0042
    144  CE1      -33.8790  -19.2800   11.5480 C.ar  155  PHE155     -0.0003
    145  CE2      -33.8080  -20.9000   13.3310 C.ar  155  PHE155     -0.0003
    146  CZ       -33.3010  -20.3980   12.1270 C.ar  155  PHE155     -0.0000
    147  N        -37.3030  -25.8810   10.1520 N.3   209  TYR209     -0.1241
    148  CA       -36.2670  -25.2780    9.2980 C.3   209  TYR209      0.1605
    149  C        -36.3360  -25.7320    7.8210 C.2   209  TYR209      0.2264
    150  O        -36.2730  -24.8890    6.9310 O.2   209  TYR209     -0.2867
    151  CB       -34.8600  -25.5260    9.8750 C.3   209  TYR209      0.0534
    152  CG       -33.7850  -24.6880    9.2190 C.ar  209  TYR209     -0.0201
    153  CD1      -33.2470  -25.0510    7.9780 C.ar  209  TYR209     -0.0009
    154  CD2      -33.3330  -23.5120    9.8090 C.ar  209  TYR209     -0.0009
    155  CE1      -32.2710  -24.2750    7.3580 C.ar  209  TYR209      0.0417
    156  CE2      -32.3640  -22.7370    9.1970 C.ar  209  TYR209      0.0417
    157  CZ       -31.8260  -23.1170    7.9680 C.ar  209  TYR209      0.1957
    158  OH       -30.8360  -22.3390    7.3570 O.3   209  TYR209     -0.2866
    159  N        -25.9640  -17.9920    6.4280 N.3   229  TRP229     -0.1241
    160  CA       -25.6990  -19.3890    6.0290 C.3   229  TRP229      0.1605
    161  C        -26.6850  -19.9600    4.9870 C.2   229  TRP229      0.2264
    162  O        -26.3080  -20.8250    4.2040 O.2   229  TRP229     -0.2867
    163  CB       -25.6250  -20.3170    7.2570 C.3   229  TRP229      0.0550
    164  CG       -26.8540  -20.2900    8.0560 C.ar  229  TRP229      0.0003
    165  CD1      -27.9980  -20.9870    7.8190 C.ar  229  TRP229      0.0946
    166  CD2      -27.0980  -19.4830    9.2080 C.ar  229  TRP229      0.0152
    167  NE1      -28.9360  -20.6750    8.7630 N.ar  229  TRP229     -0.2442
    168  CE2      -28.4160  -19.7500    9.6270 C.ar  229  TRP229      0.0810
    169  CE3      -26.3300  -18.5530    9.9260 C.ar  229  TRP229      0.0012
    170  CZ2      -28.9920  -19.1260   10.7370 C.ar  229  TRP229      0.0191
    171  CZ3      -26.9030  -17.9270   11.0400 C.ar  229  TRP229      0.0001
    172  CH2      -28.2240  -18.2240   11.4340 C.ar  229  TRP229      0.0015
    173  N        -25.3760  -13.5800   17.3190 N.3   259  GLY259     -0.1225
    174  CA       -24.3560  -14.5760   17.6360 C.3   259  GLY259      0.1811
    175  C        -23.0150  -14.3180   16.9390 C.2   259  GLY259      0.2280
    176  O        -22.9410  -13.9100   15.7740 O.2   259  GLY259     -0.2866
    177  N        -25.7870  -11.6760   22.2420 N.3   329  MET329     -0.1245
    178  CA       -26.2180  -12.6120   23.2780 C.3   329  MET329      0.1570
    179  C        -25.2670  -12.5710   24.4930 C.2   329  MET329      0.2261
    180  O        -24.0730  -12.3040   24.3400 O.2   329  MET329     -0.2867
    181  CB       -26.2750  -14.0560   22.7460 C.3   329  MET329      0.0387
    182  CG       -27.5220  -14.3940   21.9540 C.3   329  MET329      0.0595
    183  SD       -27.6070  -16.1010   21.3860 S.3   329  MET329     -0.1393
    184  CE       -26.4220  -16.0910   20.0510 C.3   329  MET329      0.0692
    185  N        -28.2060  -21.4640   28.0280 N.3   336  SER336     -0.1217
    186  CA       -28.8770  -22.6850   27.5680 C.3   336  SER336      0.1889
    187  C        -30.2200  -22.9110   28.2980 C.2   336  SER336      0.2288
    188  O        -31.2220  -23.2030   27.6670 O.2   336  SER336     -0.2866
    189  CB       -27.9640  -23.9090   27.7080 C.3   336  SER336      0.2089
    190  OG       -27.8650  -24.3120   29.0700 O.3   336  SER336     -0.2183
    191  N        -32.7760  -20.6150   26.8190 N.3   339  TRP339     -0.1227
    192  CA       -33.2600  -21.0370   25.5020 C.3   339  TRP339      0.1737
    193  C        -34.1810  -22.2650   25.5990 C.2   339  TRP339      0.2595
    194  O        -35.1480  -22.3470   24.8490 O.2   339  TRP339     -0.2718
    195  CB       -32.1240  -21.3140   24.5330 C.3   339  TRP339      0.0564
    196  CG       -31.4110  -20.1060   23.9410 C.ar  339  TRP339      0.0003
    197  CD1      -30.0740  -19.8290   24.0300 C.ar  339  TRP339      0.0946
    198  CD2      -31.9720  -19.0700   23.1100 C.ar  339  TRP339      0.0152
    199  NE1      -29.7700  -18.6920   23.3120 N.ar  339  TRP339     -0.2442
    200  CE2      -30.9150  -18.1930   22.7580 C.ar  339  TRP339      0.0810
    201  CE3      -33.2640  -18.7710   22.6730 C.ar  339  TRP339      0.0012
    202  CZ2      -31.1080  -17.0550   21.9600 C.ar  339  TRP339      0.0191
    203  CZ3      -33.4580  -17.6430   21.8770 C.ar  339  TRP339      0.0001
    204  CH2      -32.3790  -16.8000   21.5250 C.ar  339  TRP339      0.0015
    205  N        -33.9020  -23.1970   26.5100 N.am  340  TYR340     -0.1976
    206  CA       -34.8160  -24.3340   26.7200 C.3   340  TYR340      0.1639
    207  C        -36.1740  -23.8880   27.2310 C.2   340  TYR340      0.2290
    208  O        -37.1830  -24.4350   26.8240 O.2   340  TYR340     -0.2864
    209  CB       -34.2350  -25.3760   27.6770 C.3   340  TYR340      0.0560
    210  CG       -33.1650  -26.2580   27.0610 C.ar  340  TYR340     -0.0198
    211  CD1      -33.4600  -27.0870   25.9670 C.ar  340  TYR340     -0.0009
    212  CD2      -31.8650  -26.2940   27.5790 C.ar  340  TYR340     -0.0009
    213  CE1      -32.4920  -27.9000   25.3940 C.ar  340  TYR340      0.0417
    214  CE2      -30.8960  -27.1100   27.0100 C.ar  340  TYR340      0.0417
    215  CZ       -31.2140  -27.9030   25.9200 C.ar  340  TYR340      0.1957
    216  OH       -30.2700  -28.7090   25.3560 O.3   340  TYR340     -0.2866
    217  N        -38.0420  -22.1320   24.3470 N.3   343  ARG343     -0.1245
    218  CA       -38.4650  -23.1290   23.3660 C.3   343  ARG343      0.1563
    219  C        -39.7950  -23.7720   23.7860 C.2   343  ARG343      0.2260
    220  O        -40.7430  -23.8170   22.9980 O.2   343  ARG343     -0.2867
    221  CB       -37.4020  -24.2080   23.1650 C.3   343  ARG343      0.0307
    222  CG       -37.7010  -25.1410   21.9910 C.3   343  ARG343      0.0489
    223  CD       -36.7350  -26.3060   21.9030 C.3   343  ARG343      0.2205
    224  NE       -36.9920  -27.1370   20.7240 N.pl3 343  ARG343     -0.0865
    225  CZ       -37.7850  -28.2120   20.6730 C.cat 343  ARG343      0.5346
    226  NH1      -38.4480  -28.6540   21.7440 N.pl3 343  ARG343      0.1354
    227  NH2      -37.9210  -28.8570   19.5180 N.pl3 343  ARG343      0.1354
@<TRIPOS>BOND
     1   162   161    2
     2   161   160    1
     3   160   159    1
     4   160   163    1
     5    20    19    2
     6   150   149    2
     7    19    18    1
     8   163   164    1
     9   158   157    1
    10   155   157   ar
    11   155   153   ar
    12    12    11    2
    13   165   164   ar
    14   165   167   ar
    15   149   148    1
    16   157   156   ar
    17   153   152   ar
    18   164   166   ar
    19    11    10    1
    20    11    17   am
    21    18    17    1
    22    18    21    1
    23    10    13    1
    24    10     9    1
    25   167   168   ar
    26   156   154   ar
    27   166   168   ar
    28   166   169   ar
    29   152   154   ar
    30   152   151    1
    31    13    14    1
    32   148   151    1
    33   148   147    1
    34    21    22    1
    35   168   170   ar
    36   169   171   ar
    37    23    22    1
    38    23    24    1
    39   100   101    1
    40    14    15   ar
    41    14    16   ar
    42     4     3    2
    43   170   172   ar
    44   171   172   ar
    45    24    25    1
    46     3     2    1
    47   144   146   ar
    48   144   142   ar
    49   101   104    1
    50   101   102    1
    51    98    97   ar
    52   104   105    1
    53    95    92    1
    54    95    96    1
    55   146   145   ar
    56   142   141   ar
    57    92    93    1
    58    92    91    1
    59   105   107   am
    60   105   106    2
    61    97    96    1
    62    97    99   ar
    63   102   103    2
    64     2     1    1
    65     2     5    1
    66    93    94    2
    67     8     6   am
    68   145   143   ar
    69   141   143   ar
    70   141   140    1
    71     5     6    1
    72     6     7    2
    73   140   137    1
    74   133   131   ar
    75   133   134   ar
    76   135   134    1
    77   139   138    2
    78   137   138    1
    79   137   136    1
    80   131   129   ar
    81   134   132   ar
    82   176   175    2
    83   136   126   am
    84   112   113    1
    85   112   109    1
    86   113   114    1
    87   129   130   ar
    88   129   128    1
    89   132   130   ar
    90   127   126    2
    91   108   109    1
    92   126   125    1
    93   175   174    1
    94   111   110    2
    95    26    27    1
    96    65    63   ar
    97    65    66   ar
    98   128   125    1
    99   173   174    1
   100   109   110    1
   101    53    54    1
   102    63    60   ar
   103    66    64   ar
   104    54    55    1
   105    54    57    1
   106   110   117   am
   107   114   116   ar
   108   114   115   ar
   109   125   124    1
   110    34    33    1
   111    55    56    2
   112    55    67   am
   113    33    32    1
   114    67    68    1
   115    71    68    1
   116    27    28    1
   117    27    30    1
   118    64    62   ar
   119    60    62   ar
   120    60    58   ar
   121   124   119   am
   122    68    69    1
   123    31    32    1
   124    31    30    1
   125    62    61   ar
   126    57    58    1
   127   119   120    2
   128   119   118    1
   129   117   118    1
   130   117   123    1
   131    28    29    2
   132    58    59   ar
   133    42    41   ar
   134   227   225    1
   135   118   121    1
   136    61    59   ar
   137   184   183    1
   138    69    70    2
   139    35    36    1
   140   123   122    1
   141    41    43   ar
   142    41    40    1
   143   225   224    2
   144   225   226    1
   145   224   223    1
   146    39    40    1
   147    39    36    1
   148   121   122    1
   149    36    37    1
   150   183   182    1
   151    78    77   ar
   152   204   203   ar
   153   204   202   ar
   154   203   201   ar
   155   223   222    1
   156   182   181    1
   157   202   200   ar
   158   222   221    1
   159   177   178    1
   160    77    79   ar
   161    77    76    1
   162    44    37   am
   163    44    45    1
   164   201   198   ar
   165    37    38    2
   166    72    73    1
   167   181   178    1
   168   200   198   ar
   169   200   199   ar
   170   220   219    2
   171   198   196   ar
   172   221   218    1
   173   178   179    1
   174   199   197   ar
   175   218   219    1
   176   218   217    1
   177    76    73    1
   178    86    85    1
   179    86    87    1
   180    85    84    1
   181    84    81    1
   182    45    48    1
   183    45    46    1
   184    48    49    1
   185    73    74    1
   186   196   197   ar
   187   196   195    1
   188    80    74   am
   189    80    81    1
   190    46    47    2
   191   180   179    2
   192    49    50    1
   193   195   192    1
   194    74    75    2
   195    81    82    1
   196   194   193    2
   197    89    88    1
   198    87    88    2
   199   216   215    1
   200   213   215   ar
   201   213   211   ar
   202    82    83    2
   203   192   193    1
   204   192   191    1
   205    88    90    1
   206   193   205   am
   207   215   214   ar
   208    50    52   ar
   209    50    51   ar
   210   211   210   ar
   211   205   206    1
   212   206   207    1
   213   206   209    1
   214   208   207    2
   215   214   212   ar
   216   210   212   ar
   217   210   209    1
   218   186   189    1
   219   186   185    1
   220   186   187    1
   221   188   187    2
   222   189   190    1
