@<TRIPOS>MOLECULE
tmp/5ihpB00.pdb
 116 113 0 0 0
SMALL
GASTEIGER

@<TRIPOS>ATOM
      1  N        -14.7970   10.7930  -36.2870 N.3    12  GLY12      -0.1210
      2  CA       -13.4250   10.8980  -35.8160 C.3    12  GLY12       0.1956
      3  C        -12.5170    9.8330  -36.4070 C.2    12  GLY12       0.2612
      4  O        -12.9530    8.7520  -36.7970 O.2    12  GLY12      -0.2717
      5  N        -11.2250   10.1610  -36.4790 N.am   13  GLY13      -0.1942
      6  CA       -10.2120    9.2080  -36.8950 C.3    13  GLY13       0.2014
      7  C        -10.1140    8.9270  -38.3810 C.2    13  GLY13       0.2639
      8  O         -9.7280    7.8180  -38.7620 O.2    13  GLY13      -0.2714
      9  N        -10.4280    9.8990  -39.2400 N.am   14  VAL14      -0.1963
     10  CA       -10.3980    9.6940  -40.6910 C.3    14  VAL14       0.1727
     11  C         -9.2450   10.4530  -41.3530 C.2    14  VAL14       0.2616
     12  O         -9.1910   10.5440  -42.5920 O.2    14  VAL14      -0.2715
     13  CB       -11.7420   10.0660  -41.3390 C.3    14  VAL14       0.0290
     14  CG1      -12.8810    9.1920  -40.7830 C.3    14  VAL14       0.0023
     15  CG2      -12.0400   11.5430  -41.1190 C.3    14  VAL14       0.0023
     16  N         -8.3160   10.9760  -40.5510 N.am   15  ALA15      -0.1963
     17  CA        -7.0940   11.6800  -40.9260 C.3    15  ALA15       0.1728
     18  C         -7.3280   13.1380  -41.3080 C.2    15  ALA15       0.2616
     19  O         -6.5680   13.6740  -42.1130 O.2    15  ALA15      -0.2715
     20  CB        -6.3550   10.9740  -42.0700 C.3    15  ALA15       0.0334
     21  N         -8.3330   13.8060  -40.7260 N.am   16  LYS16      -0.1963
     22  CA        -8.4760   15.2480  -40.9520 C.3    16  LYS16       0.1728
     23  C         -7.1990   15.9840  -40.5620 C.2    16  LYS16       0.2617
     24  O         -6.5950   16.7050  -41.3690 O.2    16  LYS16      -0.2715
     25  CB        -9.6610   15.8080  -40.1550 C.3    16  LYS16       0.0311
     26  CG       -11.0490   15.3300  -40.5930 C.3    16  LYS16       0.0038
     27  CD       -12.1470   15.9760  -39.7290 C.3    16  LYS16       0.0206
     28  CE       -12.1160   15.5050  -38.2600 C.3    16  LYS16       0.1093
     29  NZ       -12.4000   14.0380  -38.0560 N.3    16  LYS16      -0.1314
     30  N         -6.7720   15.8020  -39.3130 N.am   17  THR17      -0.1937
     31  CA        -5.6280   16.5390  -38.8020 C.3    17  THR17       0.2028
     32  C         -4.3670   16.2060  -39.5810 C.2    17  THR17       0.2642
     33  O         -3.6070   17.1030  -39.9600 O.2    17  THR17      -0.2714
     34  CB        -5.4660   16.2380  -37.3160 C.3    17  THR17       0.1808
     35  OG1       -6.5900   16.7940  -36.6330 O.3    17  THR17      -0.2208
     36  CG2       -4.1740   16.8720  -36.7830 C.3    17  THR17       0.0379
     37  N         -4.1320   14.9180  -39.8410 N.am   18  THR18      -0.1950
     38  CA        -2.9730   14.5390  -40.6450 C.3    18  THR18       0.1897
     39  C         -3.0200   15.2070  -42.0180 C.2    18  THR18       0.2313
     40  O         -1.9980   15.6790  -42.5310 O.2    18  THR18      -0.2863
     41  CB        -2.9140   13.0190  -40.7970 C.3    18  THR18       0.1794
     42  OG1       -2.8190   12.4040  -39.5010 O.3    18  THR18      -0.2208
     43  CG2       -1.7130   12.6110  -41.6690 C.3    18  THR18       0.0378
     44  N         -5.2450   18.5250  -31.4350 N.3    44  CYS44      -0.1235
     45  CA        -4.4130   17.5150  -32.0870 C.3    44  CYS44       0.1677
     46  C         -3.4470   18.1410  -33.0950 C.2    44  CYS44       0.2270
     47  O         -2.2530   17.8240  -33.1080 O.2    44  CYS44      -0.2867
     48  CB        -5.3010   16.4700  -32.7710 C.3    44  CYS44       0.0956
     49  SG        -6.5910   15.7600  -31.6860 S.3    44  CYS44      -0.0801
     50  N        -14.4210   16.6810  -34.9730 N.3   127  PRO127     -0.2116
     51  CA       -15.4570   15.6800  -35.3340 C.3   127  PRO127      0.1372
     52  C        -16.8310   16.0350  -34.7770 C.2   127  PRO127      0.2244
     53  O        -17.3500   15.4330  -33.8170 O.2   127  PRO127     -0.2868
     54  CB       -14.8910   14.3910  -34.7300 C.3   127  PRO127      0.0268
     55  CG       -14.1150   14.8610  -33.5470 C.3   127  PRO127      0.0207
     56  CD       -13.4790   16.1610  -33.9680 C.3   127  PRO127      0.0892
     57  N         -8.6400    8.1960  -47.5170 N.3   183  THR183     -0.1203
     58  CA        -7.5710    8.0190  -46.5420 C.3   183  THR183      0.1994
     59  C         -7.5900    6.5840  -46.0300 C.2   183  THR183      0.2617
     60  O         -8.5770    5.8630  -46.1870 O.2   183  THR183     -0.2717
     61  CB        -7.6890    9.0050  -45.3640 C.3   183  THR183      0.1784
     62  OG1       -8.9340    8.7890  -44.6780 O.3   183  THR183     -0.2211
     63  CG2       -7.6130   10.4570  -45.8630 C.3   183  THR183      0.0376
     64  N         -6.4650    6.1750  -45.4290 N.am  184  LEU184     -0.1979
     65  CA        -6.2580    4.8000  -44.9390 C.3   184  LEU184      0.1596
     66  C         -6.4940    3.7580  -46.0380 C.2   184  LEU184      0.2287
     67  O         -7.0020    2.6570  -45.7840 O.2   184  LEU184     -0.2864
     68  CB        -7.1310    4.5030  -43.7150 C.3   184  LEU184      0.0297
     69  CG        -7.1460    5.5560  -42.6030 C.3   184  LEU184      0.0022
     70  CD1       -7.9970    5.0940  -41.4300 C.3   184  LEU184      0.0001
     71  CD2       -5.7360    5.8810  -42.1440 C.3   184  LEU184      0.0001
     72  N         -4.8670    8.4760  -50.1770 N.3   212  ILE212     -0.1231
     73  CA        -3.7580    8.5530  -49.2330 C.3   212  ILE212      0.1678
     74  C         -3.5580    7.1560  -48.6430 C.2   212  ILE212      0.2434
     75  O         -4.4520    6.6680  -47.9330 O.2   212  ILE212     -0.2733
     76  CB        -4.0060    9.5920  -48.1350 C.3   212  ILE212      0.0265
     77  CG1       -4.3540   10.9600  -48.7440 C.3   212  ILE212      0.0019
     78  CG2       -2.7610    9.7110  -47.2580 C.3   212  ILE212      0.0020
     79  CD1       -3.3280   11.4890  -49.7510 C.3   212  ILE212      0.0001
     80  N         -2.4440    6.4860  -48.9250 N.am  213  PRO213     -0.2718
     81  CA        -2.2840    5.1040  -48.4630 C.3   213  PRO213      0.1535
     82  C         -2.1410    5.0240  -46.9540 C.2   213  PRO213      0.2598
     83  O         -1.7030    5.9700  -46.2910 O.2   213  PRO213     -0.2715
     84  CB        -1.0000    4.6430  -49.1600 C.3   213  PRO213      0.0310
     85  CG        -0.2300    5.9090  -49.3950 C.3   213  PRO213      0.0237
     86  CD        -1.2880    6.9420  -49.7160 C.3   213  PRO213      0.0939
     87  N         -2.5230    3.8690  -46.4200 N.am  214  ARG214     -0.1964
     88  CA        -2.2230    3.5450  -45.0360 C.3   214  ARG214      0.1729
     89  C         -0.7120    3.4750  -44.8430 C.2   214  ARG214      0.2616
     90  O         -0.0010    2.8480  -45.6320 O.2   214  ARG214     -0.2715
     91  CB        -2.8790    2.2160  -44.6580 C.3   214  ARG214      0.0348
     92  CG        -3.1070    2.0700  -43.1730 C.3   214  ARG214      0.0492
     93  CD        -4.0050    0.8840  -42.8140 C.3   214  ARG214      0.2205
     94  NE        -5.1000    1.2790  -41.9230 N.pl3 214  ARG214     -0.0865
     95  CZ        -4.9370    1.7240  -40.6780 C.cat 214  ARG214      0.5346
     96  NH1       -3.7190    1.8420  -40.1570 N.pl3 214  ARG214      0.1354
     97  NH2       -5.9920    2.0620  -39.9480 N.pl3 214  ARG214      0.1354
     98  N         -0.2190    4.1440  -43.8060 N.am  215  THR215     -0.1951
     99  CA         1.2140    4.2010  -43.5460 C.3   215  THR215      0.1897
    100  C          1.6310    3.1610  -42.5180 C.2   215  THR215      0.2313
    101  O          1.7680    3.4760  -41.3390 O.2   215  THR215     -0.2863
    102  CB         1.6430    5.5900  -43.0500 C.3   215  THR215      0.1794
    103  OG1        0.9450    5.8700  -41.8460 O.3   215  THR215     -0.2208
    104  CG2        1.3820    6.6690  -44.0830 C.3   215  THR215      0.0378
    105  N          0.2540   12.9100  -50.6410 N.3   223  TYR223     -0.1241
    106  CA        -0.1510   14.2480  -50.2020 C.3   223  TYR223      0.1605
    107  C          0.4500   15.3350  -51.0900 C.2   223  TYR223      0.2264
    108  O         -0.2050   16.3460  -51.3800 O.2   223  TYR223     -0.2867
    109  CB         0.2400   14.4770  -48.7400 C.3   223  TYR223      0.0534
    110  CG        -0.8050   13.9960  -47.7570 C.ar  223  TYR223     -0.0201
    111  CD1       -2.0990   14.4960  -47.7950 C.ar  223  TYR223     -0.0009
    112  CD2       -0.4960   13.0450  -46.7900 C.ar  223  TYR223     -0.0009
    113  CE1       -3.0640   14.0580  -46.9080 C.ar  223  TYR223      0.0417
    114  CE2       -1.4520   12.6030  -45.8880 C.ar  223  TYR223      0.0417
    115  CZ        -2.7290   13.1120  -45.9480 C.ar  223  TYR223      0.1957
    116  OH        -3.6830   12.6730  -45.0610 O.3   223  TYR223     -0.2866
@<TRIPOS>BOND
     1   108   107    2
     2   107   106    1
     3   105   106    1
     4   106   109    1
     5    72    73    1
     6    79    77    1
     7    86    85    1
     8    86    80    1
     9    85    84    1
    10    73    74    1
    11    73    76    1
    12    84    81    1
    13    80    74   am
    14    80    81    1
    15    77    76    1
    16   109   110    1
    17    74    75    2
    18    81    82    1
    19    76    78    1
    20   111   110   ar
    21   111   113   ar
    22   110   112   ar
    23    57    58    1
    24    82    87   am
    25    82    83    2
    26   113   115   ar
    27   112   114   ar
    28    58    59    1
    29    58    61    1
    30    87    88    1
    31    60    59    2
    32    66    67    2
    33    66    65    1
    34    59    64   am
    35   115   114   ar
    36   115   116    1
    37    63    61    1
    38    90    89    2
    39    64    65    1
    40    61    62    1
    41    88    89    1
    42    88    91    1
    43    65    68    1
    44    89    98   am
    45    91    92    1
    46   104   102    1
    47    98    99    1
    48    68    69    1
    49    99   102    1
    50    99   100    1
    51    92    93    1
    52   102   103    1
    53    93    94    1
    54    69    71    1
    55    69    70    1
    56    12    11    2
    57    40    39    2
    58   100   101    2
    59    19    18    2
    60    20    17    1
    61    39    38    1
    62    94    95    2
    63    43    41    1
    64    24    23    2
    65    11    10    1
    66    11    16   am
    67    13    15    1
    68    13    14    1
    69    13    10    1
    70    18    17    1
    71    18    21   am
    72    22    21    1
    73    22    23    1
    74    22    25    1
    75    17    16    1
    76    41    38    1
    77    41    42    1
    78    10     9    1
    79    95    96    1
    80    95    97    1
    81    38    37    1
    82    26    25    1
    83    26    27    1
    84    23    30   am
    85    33    32    2
    86    37    32   am
    87    27    28    1
    88    32    31    1
    89    30    31    1
    90     9     7   am
    91    31    34    1
    92     8     7    2
    93     7     6    1
    94    28    29    1
    95    34    36    1
    96    34    35    1
    97     6     5    1
    98     4     3    2
    99     5     3   am
   100     3     2    1
   101     1     2    1
   102    51    50    1
   103    51    52    1
   104    51    54    1
   105    50    56    1
   106    52    53    2
   107    54    55    1
   108    56    55    1
   109    47    46    2
   110    46    45    1
   111    48    45    1
   112    48    49    1
   113    45    44    1
