@<TRIPOS>MOLECULE
tmp/5ihxA00.pdb
 142 131 0 0 0
SMALL
GASTEIGER

@<TRIPOS>ATOM
      1  N        -28.1050    2.8270   -1.2950 N.3    55  TYR55      -0.1241
      2  CA       -27.4470    2.4100   -0.0610 C.3    55  TYR55       0.1605
      3  C        -28.4280    1.9950    1.0220 C.2    55  TYR55       0.2264
      4  O        -29.5990    2.3800    1.0110 O.2    55  TYR55      -0.2867
      5  CB       -26.5380    3.5270    0.4700 C.3    55  TYR55       0.0534
      6  CG       -27.1860    4.4910    1.4450 C.ar   55  TYR55      -0.0201
      7  CD1      -27.0590    4.3050    2.8160 C.ar   55  TYR55      -0.0009
      8  CD2      -27.8950    5.6000    0.9990 C.ar   55  TYR55      -0.0009
      9  CE1      -27.6350    5.1810    3.7170 C.ar   55  TYR55       0.0417
     10  CE2      -28.4740    6.4890    1.8970 C.ar   55  TYR55       0.0417
     11  CZ       -28.3370    6.2730    3.2540 C.ar   55  TYR55       0.1957
     12  OH       -28.9070    7.1470    4.1540 O.3    55  TYR55      -0.2866
     13  N        -28.3020    1.4190    5.4440 N.3    57  GLY57      -0.1210
     14  CA       -27.5310    1.6670    6.6480 C.3    57  GLY57       0.1956
     15  C        -27.8010    0.6470    7.7360 C.2    57  GLY57       0.2612
     16  O        -28.8790    0.0590    7.7940 O.2    57  GLY57      -0.2717
     17  N        -26.8120    0.4350    8.5970 N.am   58  VAL58      -0.1965
     18  CA       -26.9780   -0.4430    9.7460 C.3    58  VAL58       0.1727
     19  C        -26.1680    0.0960   10.9210 C.2    58  VAL58       0.2616
     20  O        -25.0050    0.4680   10.7630 O.2    58  VAL58      -0.2715
     21  CB       -26.5530   -1.9010    9.4250 C.3    58  VAL58       0.0290
     22  CG1      -25.1230   -1.9530    8.8900 C.3    58  VAL58       0.0023
     23  CG2      -26.6940   -2.7870   10.6570 C.3    58  VAL58       0.0023
     24  N        -26.8000    0.1610   12.0900 N.am   59  ASP59      -0.1971
     25  CA       -26.1310    0.6180   13.3040 C.3    59  ASP59       0.1709
     26  C        -25.6140   -0.5850   14.0980 C.2    59  ASP59       0.2293
     27  O        -26.3890   -1.4780   14.4430 O.2    59  ASP59      -0.2864
     28  CB       -27.0730    1.4590   14.1710 C.3    59  ASP59       0.1436
     29  CG       -27.2310    2.8840   13.6590 C.2    59  ASP59       0.3671
     30  OD1      -28.0280    3.6430   14.2500 O.co2  59  ASP59      -0.2456
     31  OD2      -26.5320    3.2630   12.6940 O.co2  59  ASP59      -0.2456
     32  N        -31.8910   -8.3200    9.5890 N.3    69  HIS69      -0.1241
     33  CA       -31.2510   -7.2090    8.8790 C.3    69  HIS69       0.1621
     34  C        -31.1410   -7.4300    7.3760 C.2    69  HIS69       0.2264
     35  O        -30.7740   -6.5170    6.6390 O.2    69  HIS69      -0.2867
     36  CB       -29.8270   -6.9630    9.4010 C.3    69  HIS69       0.0745
     37  CG       -29.7560   -6.3760   10.7760 C.ar   69  HIS69       0.0817
     38  ND1      -29.4680   -7.1270   11.8960 N.ar   69  HIS69      -0.2268
     39  CD2      -29.8890   -5.0990   11.2040 C.ar   69  HIS69       0.1154
     40  CE1      -29.4500   -6.3400   12.9570 C.ar   69  HIS69       0.1986
     41  NE2      -29.7030   -5.1050   12.5640 N.ar   69  HIS69      -0.2212
     42  N        -23.6460    1.2130    4.4640 N.3    89  LEU89      -0.1245
     43  CA       -23.2790    2.2530    5.4160 C.3    89  LEU89       0.1561
     44  C        -23.3200    1.7320    6.8450 C.2    89  LEU89       0.2260
     45  O        -24.3790    1.3700    7.3540 O.2    89  LEU89      -0.2867
     46  CB       -24.2080    3.4600    5.2800 C.3    89  LEU89       0.0270
     47  CG       -23.8980    4.6250    6.2230 C.3    89  LEU89       0.0019
     48  CD1      -22.5510    5.2400    5.8820 C.3    89  LEU89       0.0001
     49  CD2      -24.9960    5.6660    6.1660 C.3    89  LEU89       0.0001
     50  N        -23.2120    2.5650   10.5980 N.3    91  GLY91      -0.1225
     51  CA       -23.5040    3.7310   11.4110 C.3    91  GLY91       0.1811
     52  C        -22.7000    3.7890   12.6930 C.2    91  GLY91       0.2280
     53  O        -23.2680    3.7510   13.7800 O.2    91  GLY91      -0.2866
     54  N        -23.7380    7.2250   14.3380 N.3    94  THR94      -0.1218
     55  CA       -25.1620    7.3200   14.6370 C.3    94  THR94       0.1862
     56  C        -25.6130    6.2590   15.6370 C.2    94  THR94       0.2287
     57  O        -26.6860    6.3740   16.2300 O.2    94  THR94      -0.2866
     58  CB       -26.0110    7.1830   13.3580 C.3    94  THR94       0.1770
     59  OG1      -25.5440    6.0690   12.5890 O.3    94  THR94      -0.2211
     60  CG2      -25.9230    8.4460   12.5140 C.3    94  THR94       0.0375
     61  N        -31.0790    5.1550   17.1240 N.3    99  ASP99      -0.1239
     62  CA       -32.3060    5.4650   16.3970 C.3    99  ASP99       0.1674
     63  C        -33.5300    5.2920   17.3020 C.2    99  ASP99       0.2266
     64  O        -33.8010    4.1830   17.7630 O.2    99  ASP99      -0.2867
     65  CB       -32.4360    4.5680   15.1640 C.3    99  ASP99       0.1410
     66  CG       -33.4830    5.0680   14.1880 C.2    99  ASP99       0.3668
     67  OD1      -33.4410    4.6600   13.0080 O.co2  99  ASP99      -0.2456
     68  OD2      -34.3420    5.8760   14.5990 O.co2  99  ASP99      -0.2456
     69  N        -32.1730    3.9340   24.5170 N.3   107  ARG107     -0.1245
     70  CA       -31.1290    2.9160   24.5650 C.3   107  ARG107      0.1563
     71  C        -30.2380    3.1070   25.7880 C.2   107  ARG107      0.2260
     72  O        -30.0450    4.2290   26.2570 O.2   107  ARG107     -0.2867
     73  CB       -30.2860    2.9550   23.2890 C.3   107  ARG107      0.0307
     74  CG       -31.1080    2.7860   22.0100 C.3   107  ARG107      0.0489
     75  CD       -30.2390    2.5910   20.7650 C.3   107  ARG107      0.2205
     76  NE       -31.0360    2.3300   19.5600 N.pl3 107  ARG107     -0.0865
     77  CZ       -31.0550    1.1690   18.9040 C.cat 107  ARG107      0.5346
     78  NH1      -30.3240    0.1440   19.3250 N.pl3 107  ARG107      0.1354
     79  NH2      -31.8000    1.0270   17.8140 N.pl3 107  ARG107      0.1354
     80  N        -19.9220    5.9630    8.6880 N.3   155  ASN155     -0.1240
     81  CA       -20.2850    7.3770    8.7230 C.3   155  ASN155      0.1653
     82  C        -19.4610    8.1560    9.7530 C.2   155  ASN155      0.2266
     83  O        -19.5720    9.3750    9.8420 O.2   155  ASN155     -0.2867
     84  CB       -21.7910    7.5590    8.9780 C.3   155  ASN155      0.1155
     85  CG       -22.2460    7.0250   10.3240 C.2   155  ASN155      0.2627
     86  OD1      -21.4450    6.6120   11.1620 O.2   155  ASN155     -0.2716
     87  ND2      -23.5580    7.0390   10.5370 N.am  155  ASN155     -0.0877
     88  N        -31.5120   12.6640   15.6270 N.3   203  TYR203     -0.1241
     89  CA       -31.1010   11.4860   14.8590 C.3   203  TYR203      0.1605
     90  C        -31.5510   11.5350   13.3900 C.2   203  TYR203      0.2264
     91  O        -30.7550   11.2450   12.4970 O.2   203  TYR203     -0.2867
     92  CB       -31.6170   10.2030   15.5240 C.3   203  TYR203      0.0534
     93  CG       -31.0850    8.9390   14.8820 C.ar  203  TYR203     -0.0201
     94  CD1      -29.9800    8.2890   15.4160 C.ar  203  TYR203     -0.0009
     95  CD2      -31.6750    8.4000   13.7430 C.ar  203  TYR203     -0.0009
     96  CE1      -29.4800    7.1400   14.8410 C.ar  203  TYR203      0.0417
     97  CE2      -31.1800    7.2490   13.1610 C.ar  203  TYR203      0.0417
     98  CZ       -30.0810    6.6230   13.7140 C.ar  203  TYR203      0.1957
     99  OH       -29.5790    5.4760   13.1420 O.3   203  TYR203     -0.2866
    100  N        -29.1600   11.0140    9.9490 N.3   207  GLN207     -0.1245
    101  CA       -29.4220   10.0690    8.8680 C.3   207  GLN207      0.1566
    102  C        -29.5710   10.8120    7.5440 C.2   207  GLN207      0.2260
    103  O        -29.1060   10.3480    6.5020 O.2   207  GLN207     -0.2867
    104  CB       -30.6690    9.2340    9.1580 C.3   207  GLN207      0.0367
    105  CG       -30.9150    8.1420    8.1160 C.3   207  GLN207      0.0905
    106  CD       -31.6760    6.9420    8.6610 C.2   207  GLN207      0.2608
    107  OE1      -31.7240    6.7110    9.8700 O.2   207  GLN207     -0.2717
    108  NE2      -32.2710    6.1670    7.7620 N.am  207  GLN207     -0.0878
    109  N        -26.1500   11.8460    6.4320 N.3   210  ASP210     -0.1239
    110  CA       -25.4980   10.6580    5.8740 C.3   210  ASP210      0.1674
    111  C        -25.8400   10.5080    4.3990 C.2   210  ASP210      0.2266
    112  O        -24.9580   10.3470    3.5570 O.2   210  ASP210     -0.2867
    113  CB       -25.9200    9.3870    6.6130 C.3   210  ASP210      0.1410
    114  CG       -25.2530    9.2370    7.9640 C.2   210  ASP210      0.3668
    115  OD1      -25.6900    8.3550    8.7320 O.co2 210  ASP210     -0.2456
    116  OD2      -24.3040    9.9930    8.2610 O.co2 210  ASP210     -0.2456
    117  N        -32.1440    5.4060   -1.2720 N.3   222  GLN222     -0.1245
    118  CA       -31.9090    4.7070   -0.0110 C.3   222  GLN222      0.1566
    119  C        -32.9520    3.6170    0.1950 C.2   222  GLN222      0.2260
    120  O        -34.1350    3.8260   -0.0710 O.2   222  GLN222     -0.2867
    121  CB       -31.9390    5.6690    1.1790 C.3   222  GLN222      0.0367
    122  CG       -31.7600    4.9590    2.5260 C.3   222  GLN222      0.0905
    123  CD       -31.7670    5.8910    3.7340 C.2   222  GLN222      0.2608
    124  OE1      -31.6650    5.4350    4.8730 O.2   222  GLN222     -0.2717
    125  NE2      -31.8820    7.1930    3.4930 N.am  222  GLN222     -0.0878
    126  N        -39.6370   -0.1930    9.2100 N.3   227  ASP227     -0.1225
    127  CA       -39.7920    0.8400   10.2330 C.3   227  ASP227      0.1805
    128  C        -38.9900    2.1060    9.9280 C.2   227  ASP227      0.2597
    129  O        -39.0040    3.0550   10.7120 O.2   227  ASP227     -0.2718
    130  CB       -39.3740    0.2960   11.6010 C.3   227  ASP227      0.1424
    131  CG       -37.8830    0.0290   11.6910 C.2   227  ASP227      0.3668
    132  OD1      -37.2760   -0.3280   10.6590 O.co2 227  ASP227     -0.2456
    133  OD2      -37.3160    0.1840   12.7930 O.co2 227  ASP227     -0.2456
    134  N        -38.3020    2.1240    8.7900 N.am  228  GLN228     -0.1979
    135  CA       -37.4560    3.2580    8.4230 C.3   228  GLN228      0.1601
    136  C        -38.1570    4.2280    7.4790 C.2   228  GLN228      0.2287
    137  O        -37.5350    5.1650    6.9790 O.2   228  GLN228     -0.2864
    138  CB       -36.1550    2.7620    7.7860 C.3   228  GLN228      0.0394
    139  CG       -35.2210    2.0760    8.7660 C.3   228  GLN228      0.0908
    140  CD       -34.7320    3.0240    9.8430 C.2   228  GLN228      0.2608
    141  OE1      -34.1660    4.0770    9.5450 O.2   228  GLN228     -0.2717
    142  NE2      -34.9680    2.6690   11.0990 N.am  228  GLN228     -0.0878
@<TRIPOS>BOND
     1     1     2    1
     2   117   118    1
     3   120   119    2
     4     2     5    1
     5     2     3    1
     6   118   119    1
     7   118   121    1
     8     5     6    1
     9     8     6   ar
    10     8    10   ar
    11     4     3    2
    12   121   122    1
    13     6     7   ar
    14    10    11   ar
    15   122   123    1
    16     7     9   ar
    17    11     9   ar
    18    11    12    1
    19   125   123   am
    20   112   111    2
    21   123   124    2
    22   111   110    1
    23    42    43    1
    24    46    43    1
    25    46    47    1
    26    43    44    1
    27    13    14    1
    28   110   109    1
    29   110   113    1
    30    48    47    1
    31    49    47    1
    32   103   102    2
    33   113   114    1
    34    35    34    2
    35    14    15    1
    36    44    45    2
    37   137   136    2
    38    34    33    1
    39   136   135    1
    40   102   101    1
    41    15    16    2
    42    15    17   am
    43   108   106   am
    44   138   135    1
    45   138   139    1
    46   114   116   ar
    47   114   115   ar
    48   105   106    1
    49   105   104    1
    50   135   134    1
    51    17    18    1
    52   106   107    2
    53    80    81    1
    54    81    84    1
    55    81    82    1
    56   139   140    1
    57   134   128   am
    58   101   104    1
    59   101   100    1
    60    33    36    1
    61    33    32    1
    62    22    21    1
    63    84    85    1
    64   126   127    1
    65    36    37    1
    66    21    18    1
    67    21    23    1
    68   141   140    2
    69    18    19    1
    70    82    83    2
    71   140   142   am
    72   128   127    1
    73   128   129    2
    74   127   130    1
    75    85    87   am
    76    85    86    2
    77    50    51    1
    78   132   131   ar
    79    20    19    2
    80    37    39   ar
    81    37    38   ar
    82    19    24   am
    83    39    41   ar
    84    51    52    1
    85   130   131    1
    86   131   133   ar
    87    38    40   ar
    88    24    25    1
    89    91    90    2
    90    60    58    1
    91    41    40   ar
    92    59    58    1
    93    52    53    2
    94    31    29   ar
    95    67    66   ar
    96    99    98    1
    97    97    98   ar
    98    97    95   ar
    99    25    26    1
   100    25    28    1
   101    58    55    1
   102    90    89    1
   103    29    28    1
   104    29    30   ar
   105    98    96   ar
   106    95    93   ar
   107    26    27    2
   108    66    68   ar
   109    66    65    1
   110    54    55    1
   111    55    56    1
   112    96    94   ar
   113    89    92    1
   114    89    88    1
   115    93    94   ar
   116    93    92    1
   117    65    62    1
   118    56    57    2
   119    62    61    1
   120    62    63    1
   121    63    64    2
   122    79    77    1
   123    77    78    1
   124    77    76    2
   125    76    75    1
   126    75    74    1
   127    74    73    1
   128    73    70    1
   129    69    70    1
   130    70    71    1
   131    71    72    2
