@<TRIPOS>MOLECULE
tmp/5ii0B00.pdb
 169 170 0 0 0
SMALL
GASTEIGER

@<TRIPOS>ATOM
      1  N         30.9320   14.3150   14.9940 N.3    44  ASP44      -0.1225
      2  CA        30.3060   13.4320   15.9720 C.3    44  ASP44       0.1805
      3  C         30.1490   11.9980   15.4430 C.2    44  ASP44       0.2598
      4  O         29.6170   11.1350   16.1330 O.2    44  ASP44      -0.2718
      5  CB        28.9410   13.9990   16.4470 C.3    44  ASP44       0.1424
      6  CG        27.8360   13.9130   15.3870 C.2    44  ASP44       0.3668
      7  OD1       28.0200   13.2600   14.3310 O.co2  44  ASP44      -0.2456
      8  OD2       26.7360   14.4540   15.6360 O.co2  44  ASP44      -0.2456
      9  N         30.5780   11.7510   14.2100 N.am   45  GLY45      -0.1942
     10  CA        30.3700   10.4400   13.6180 C.3    45  GLY45       0.2014
     11  C         29.4440   10.4870   12.4160 C.2    45  GLY45       0.2638
     12  O         29.5400    9.6520   11.5230 O.2    45  GLY45      -0.2714
     13  N         28.5300   11.4580   12.4120 N.am   46  TRP46      -0.1973
     14  CA        27.5830   11.6470   11.3110 C.3    46  TRP46       0.1640
     15  C         27.5850   13.0850   10.7660 C.2    46  TRP46       0.2290
     16  O         27.2760   13.3010    9.5980 O.2    46  TRP46      -0.2864
     17  CB        26.1600   11.2860   11.7570 C.3    46  TRP46       0.0576
     18  CG        25.8690    9.8150   11.8820 C.ar   46  TRP46       0.0006
     19  CD1       26.6060    8.7730   11.3800 C.ar   46  TRP46       0.0946
     20  CD2       24.7420    9.2270   12.5390 C.ar   46  TRP46       0.0152
     21  NE1       26.0070    7.5750   11.6960 N.ar   46  TRP46      -0.2442
     22  CE2       24.8620    7.8250   12.4080 C.ar   46  TRP46       0.0810
     23  CE3       23.6410    9.7500   13.2230 C.ar   46  TRP46       0.0012
     24  CZ2       23.9220    6.9370   12.9470 C.ar   46  TRP46       0.0191
     25  CZ3       22.7070    8.8670   13.7680 C.ar   46  TRP46       0.0001
     26  CH2       22.8550    7.4730   13.6210 C.ar   46  TRP46       0.0015
     27  N         20.7960    7.4550    5.5360 N.3    66  PHE66      -0.1228
     28  CA        19.8860    6.3400    5.7570 C.3    66  PHE66       0.1721
     29  C         18.5430    6.5470    5.1010 C.2    66  PHE66       0.2437
     30  O         18.0360    7.6660    5.0410 O.2    66  PHE66      -0.2733
     31  CB        19.7030    6.0960    7.2490 C.3    66  PHE66       0.0547
     32  CG        20.9920    6.0620    8.0030 C.ar   66  PHE66      -0.0202
     33  CD1       21.8390    4.9710    7.8870 C.ar   66  PHE66      -0.0042
     34  CD2       21.3710    7.1290    8.8020 C.ar   66  PHE66      -0.0042
     35  CE1       23.0300    4.9300    8.5690 C.ar   66  PHE66      -0.0003
     36  CE2       22.5620    7.1020    9.4980 C.ar   66  PHE66      -0.0003
     37  CZ        23.3990    6.0010    9.3800 C.ar   66  PHE66      -0.0000
     38  N         17.9660    5.4600    4.5850 N.am   67  PRO67      -0.2718
     39  CA        16.6820    5.5740    3.8940 C.3    67  PRO67       0.1535
     40  C         15.5720    6.1180    4.7890 C.2    67  PRO67       0.2599
     41  O         14.6670    6.7600    4.2570 O.2    67  PRO67      -0.2715
     42  CB        16.3820    4.1310    3.4630 C.3    67  PRO67       0.0310
     43  CG        17.2730    3.2650    4.3010 C.3    67  PRO67       0.0237
     44  CD        18.4960    4.0870    4.5610 C.3    67  PRO67       0.0939
     45  N         15.6540    5.9200    6.1100 N.am   68  ASP68      -0.1958
     46  CA        14.6010    6.4290    6.9940 C.3    68  ASP68       0.1840
     47  C         14.8830    7.8250    7.5620 C.2    68  ASP68       0.2622
     48  O         14.0560    8.3620    8.3000 O.2    68  ASP68      -0.2715
     49  CB        14.3240    5.4500    8.1490 C.3    68  ASP68       0.1450
     50  CG        15.5300    5.2250    9.0600 C.2    68  ASP68       0.3671
     51  OD1       16.6810    5.4170    8.6070 O.co2  68  ASP68      -0.2456
     52  OD2       15.3100    4.8430   10.2390 O.co2  68  ASP68      -0.2456
     53  N         16.0090    8.4300    7.1880 N.am   69  PHE69      -0.1974
     54  CA        16.2900    9.8120    7.5840 C.3    69  PHE69       0.1639
     55  C         15.6420   10.8000    6.6190 C.2    69  PHE69       0.2290
     56  O         15.7650   10.6640    5.4030 O.2    69  PHE69      -0.2864
     57  CB        17.7960   10.0990    7.6360 C.3    69  PHE69       0.0560
     58  CG        18.4300    9.8230    8.9700 C.ar   69  PHE69      -0.0200
     59  CD1       17.9190    8.8410    9.8020 C.ar   69  PHE69      -0.0042
     60  CD2       19.5470   10.5410    9.3840 C.ar   69  PHE69      -0.0042
     61  CE1       18.5090    8.5730   11.0310 C.ar   69  PHE69      -0.0003
     62  CE2       20.1440   10.2800   10.6030 C.ar   69  PHE69      -0.0003
     63  CZ        19.6270    9.3000   11.4360 C.ar   69  PHE69      -0.0000
     64  N         22.3620   19.6620   18.9380 N.3    77  LYS77      -0.1245
     65  CA        23.4750   19.3110   19.8210 C.3    77  LYS77       0.1561
     66  C         23.6180   20.4330   20.8310 C.2    77  LYS77       0.2260
     67  O         23.7350   21.6120   20.4640 O.2    77  LYS77      -0.2867
     68  CB        24.7830   19.0930   19.0340 C.3    77  LYS77       0.0271
     69  CG        25.9030   18.3650   19.7930 C.3    77  LYS77       0.0035
     70  CD        27.1690   18.2210   18.9300 C.3    77  LYS77       0.0206
     71  CE        28.2480   17.3690   19.6070 C.3    77  LYS77       0.1093
     72  NZ        27.6870   16.0250   20.0270 N.3    77  LYS77      -0.1314
     73  N         24.6770   11.9270   26.7960 N.3    88  HIS88      -0.1241
     74  CA        23.4060   11.2250   26.9590 C.3    88  HIS88       0.1621
     75  C         23.2180   10.7800   28.4160 C.2    88  HIS88       0.2264
     76  O         24.1480   10.2890   29.0320 O.2    88  HIS88      -0.2867
     77  CB        23.3340   10.0140   26.0070 C.3    88  HIS88       0.0745
     78  CG        21.9390    9.5170   25.7750 C.ar   88  HIS88       0.0817
     79  ND1       21.2090    8.8590   26.7440 N.ar   88  HIS88      -0.2268
     80  CD2       21.1260    9.6210   24.6960 C.ar   88  HIS88       0.1154
     81  CE1       20.0100    8.5690   26.2700 C.ar   88  HIS88       0.1986
     82  NE2       19.9340    9.0130   25.0280 N.ar   88  HIS88      -0.2212
     83  N         21.8040    8.2840   29.6440 N.3    90  GLU90      -0.1231
     84  CA        21.9080    6.8390   29.8630 C.3    90  GLU90       0.1699
     85  C         23.3370    6.3310   30.0580 C.2    90  GLU90       0.2592
     86  O         23.6140    5.6170   31.0130 O.2    90  GLU90      -0.2718
     87  CB        21.2890    6.0700   28.6940 C.3    90  GLU90       0.0402
     88  CG        19.7880    5.8700   28.7750 C.3    90  GLU90       0.1161
     89  CD        19.2710    5.0220   27.6140 C.2    90  GLU90       0.3649
     90  OE1       19.5860    3.8180   27.5690 O.co2  90  GLU90      -0.2457
     91  OE2       18.5640    5.5650   26.7370 O.co2  90  GLU90      -0.2457
     92  N         24.2530    6.7170   29.1800 N.am   91  ASN91      -0.1974
     93  CA        25.5900    6.1360   29.2120 C.3    91  ASN91       0.1688
     94  C         26.6690    7.1850   29.3820 C.2    91  ASN91       0.2292
     95  O         27.8610    6.8710   29.3330 O.2    91  ASN91      -0.2864
     96  CB        25.8530    5.3290   27.9280 C.3    91  ASN91       0.1181
     97  CG        26.0060    6.2110   26.6930 C.2    91  ASN91       0.2629
     98  OD1       25.5670    7.3650   26.6730 O.2    91  ASN91      -0.2716
     99  ND2       26.6530    5.6730   25.6610 N.am   91  ASN91      -0.0877
    100  N         27.8110    9.4250   27.4400 N.3    93  ARG93      -0.1231
    101  CA        28.7230    9.6650   26.3320 C.3    93  ARG93       0.1694
    102  C         28.1830   10.8120   25.4990 C.2    93  ARG93       0.2593
    103  O         26.9690   11.0170   25.4230 O.2    93  ARG93      -0.2718
    104  CB        28.9110    8.4170   25.4600 C.3    93  ARG93       0.0321
    105  CG        29.7230    7.3140   26.1250 C.3    93  ARG93       0.0489
    106  CD        30.1550    6.2720   25.1040 C.3    93  ARG93       0.2205
    107  NE        30.9910    5.2260   25.6910 N.pl3  93  ARG93      -0.0865
    108  CZ        31.4950    4.2030   25.0080 C.cat  93  ARG93       0.5346
    109  NH1       31.2460    4.0830   23.7100 N.pl3  93  ARG93       0.1354
    110  NH2       32.2440    3.2950   25.6220 N.pl3  93  ARG93       0.1354
    111  N         29.1010   11.5900   24.9370 N.am   94  THR94      -0.1939
    112  CA        28.7570   12.7380   24.1250 C.3    94  THR94       0.2028
    113  C         27.8060   12.3270   23.0170 C.2    94  THR94       0.2642
    114  O         28.0870   11.3870   22.2750 O.2    94  THR94      -0.2714
    115  CB        30.0080   13.3660   23.5200 C.3    94  THR94       0.1808
    116  OG1       30.9480   13.6230   24.5710 O.3    94  THR94      -0.2208
    117  CG2       29.6530   14.6590   22.8430 C.3    94  THR94       0.0379
    118  N         26.7090   13.0640   22.8800 N.am   95  TRP95      -0.1959
    119  CA        25.5870   12.6150   22.0540 C.3    95  TRP95       0.1771
    120  C         24.8200   13.7610   21.4090 C.2    95  TRP95       0.2620
    121  O         24.3340   14.6530   22.1110 O.2    95  TRP95      -0.2715
    122  CB        24.6320   11.7780   22.9120 C.3    95  TRP95       0.0590
    123  CG        23.4020   11.2190   22.2140 C.ar   95  TRP95       0.0006
    124  CD1       23.3250   10.0570   21.4910 C.ar   95  TRP95       0.0946
    125  CD2       22.0690   11.7620   22.2390 C.ar   95  TRP95       0.0152
    126  NE1       22.0370    9.8560   21.0480 N.ar   95  TRP95      -0.2442
    127  CE2       21.2450   10.8850   21.4920 C.ar   95  TRP95       0.0810
    128  CE3       21.4940   12.9020   22.8120 C.ar   95  TRP95       0.0012
    129  CZ2       19.8800   11.1180   21.2940 C.ar   95  TRP95       0.0191
    130  CZ3       20.1240   13.1330   22.6230 C.ar   95  TRP95       0.0001
    131  CH2       19.3360   12.2380   21.8710 C.ar   95  TRP95       0.0015
    132  N         24.7300   13.7430   20.0860 N.am   96  SER96      -0.1950
    133  CA        23.8360   14.6420   19.3650 C.3    96  SER96       0.1924
    134  C         22.4700   13.9610   19.2000 C.2    96  SER96       0.2314
    135  O         22.3760   12.7240   19.1450 O.2    96  SER96      -0.2863
    136  CB        24.3990   15.0120   17.9720 C.3    96  SER96       0.2116
    137  OG        25.7420   15.4630   18.0380 O.3    96  SER96      -0.2180
    138  N         19.5970   13.0380   16.9540 N.3    98  TYR98      -0.1227
    139  CA        19.1160   12.7310   15.6100 C.3    98  TYR98       0.1736
    140  C         17.7030   12.1460   15.6300 C.2    98  TYR98       0.2596
    141  O         17.2410   11.6490   14.6120 O.2    98  TYR98      -0.2718
    142  CB        20.0520   11.7270   14.9170 C.3    98  TYR98       0.0548
    143  CG        21.4070   12.2990   14.5730 C.ar   98  TYR98      -0.0200
    144  CD1       22.4440   12.2900   15.5030 C.ar   98  TYR98      -0.0009
    145  CD2       21.6470   12.8630   13.3140 C.ar   98  TYR98      -0.0009
    146  CE1       23.6780   12.8350   15.1960 C.ar   98  TYR98       0.0417
    147  CE2       22.8720   13.4160   13.0000 C.ar   98  TYR98       0.0417
    148  CZ        23.8830   13.4000   13.9400 C.ar   98  TYR98       0.1957
    149  OH        25.1020   13.9440   13.6180 O.3    98  TYR98      -0.2866
    150  N         17.0450   12.1490   16.7890 N.am   99  THR99      -0.1953
    151  CA        15.7900   11.3960   16.9440 C.3    99  THR99       0.1897
    152  C         14.6640   11.9160   16.0320 C.2    99  THR99       0.2313
    153  O         13.7620   11.1610   15.6800 O.2    99  THR99      -0.2863
    154  CB        15.2930   11.3840   18.4160 C.3    99  THR99       0.1794
    155  OG1       14.9340   12.7050   18.8400 O.3    99  THR99      -0.2208
    156  CG2       16.3700   10.8050   19.3420 C.3    99  THR99       0.0378
    157  N         14.2070   10.4270   11.9420 N.3   102  ASN102     -0.1225
    158  CA        13.3550    9.3120   11.5300 C.3   102  ASN102      0.1785
    159  C         12.1860    9.0620   12.4780 C.2   102  ASN102      0.2597
    160  O         11.6880    7.9400   12.5730 O.2   102  ASN102     -0.2718
    161  CB        14.1800    8.0250   11.3870 C.3   102  ASN102      0.1169
    162  CG        14.8880    7.6350   12.6630 C.2   102  ASN102      0.2627
    163  OD1       14.8810    8.3750   13.6410 O.2   102  ASN102     -0.2716
    164  ND2       15.4850    6.4510   12.6670 N.am  102  ASN102     -0.0877
    165  N         11.7640   10.0970   13.1950 N.am  103  ALA103     -0.1979
    166  CA        10.6200    9.9790   14.0930 C.3   103  ALA103      0.1597
    167  C          9.3380    9.7230   13.2980 C.2   103  ALA103      0.2287
    168  O          8.4440    9.0030   13.7500 O.2   103  ALA103     -0.2864
    169  CB        10.4860   11.2290   14.9510 C.3   103  ALA103      0.0319
@<TRIPOS>BOND
     1    42    39    1
     2    42    43    1
     3    39    38    1
     4    39    40    1
     5    41    40    2
     6    43    44    1
     7    44    38    1
     8    38    29   am
     9    40    45   am
    10    30    29    2
    11    29    28    1
    12    56    55    2
    13    27    28    1
    14    28    31    1
    15    45    46    1
    16    55    54    1
    17    46    47    1
    18    46    49    1
    19    53    47   am
    20    53    54    1
    21    31    32    1
    22    47    48    2
    23    54    57    1
    24    57    58    1
    25    33    32   ar
    26    33    35   ar
    27    32    34   ar
    28    49    50    1
    29    35    37   ar
    30    51    50   ar
    31    34    36   ar
    32    58    60   ar
    33    58    59   ar
    34    50    52   ar
    35    37    36   ar
    36    60    62   ar
    37    16    15    2
    38    59    61   ar
    39    62    63   ar
    40    15    14    1
    41    61    63   ar
    42    14    17    1
    43    14    13    1
    44    19    21   ar
    45    19    18   ar
    46   161   158    1
    47   161   162    1
    48    12    11    2
    49   158   157    1
    50   158   159    1
    51    21    22   ar
    52    17    18    1
    53    18    20   ar
    54    22    20   ar
    55    22    24   ar
    56    13    11   am
    57    11    10    1
    58   159   160    2
    59   159   165   am
    60    20    23   ar
    61   162   164   am
    62   162   163    2
    63    24    26   ar
    64   147   145   ar
    65   147   148   ar
    66   165   166    1
    67    23    25   ar
    68   167   168    2
    69   167   166    1
    70   145   143   ar
    71    10     9    1
    72   149   148    1
    73    26    25   ar
    74   148   146   ar
    75   166   169    1
    76     9     3   am
    77     7     6   ar
    78   143   142    1
    79   143   144   ar
    80   141   140    2
    81   142   139    1
    82     1     2    1
    83   146   144   ar
    84     6     8   ar
    85     6     5    1
    86     3     2    1
    87     3     4    2
    88   139   140    1
    89   139   138    1
    90   140   150   am
    91   153   152    2
    92     2     5    1
    93   152   151    1
    94   150   151    1
    95   151   154    1
    96   136   137    1
    97   136   133    1
    98   154   155    1
    99   154   156    1
   100    70    71    1
   101    70    69    1
   102    64    65    1
   103    68    69    1
   104    68    65    1
   105   135   134    2
   106   134   133    1
   107   133   132    1
   108    71    72    1
   109    65    66    1
   110   132   120   am
   111    67    66    2
   112   126   124   ar
   113   126   127   ar
   114   129   127   ar
   115   129   131   ar
   116   120   119    1
   117   120   121    2
   118   124   123   ar
   119   127   125   ar
   120   131   130   ar
   121   119   118    1
   122   119   122    1
   123   123   125   ar
   124   123   122    1
   125   125   128   ar
   126   114   113    2
   127   130   128   ar
   128   117   115    1
   129   118   113   am
   130   113   112    1
   131   115   112    1
   132   115   116    1
   133   109   108    1
   134   112   111    1
   135    80    82   ar
   136    80    78   ar
   137   111   102   am
   138   108   110    1
   139   108   107    2
   140    82    81   ar
   141   106   107    1
   142   106   105    1
   143   103   102    2
   144   104   105    1
   145   104   101    1
   146   102   101    1
   147    99    97   am
   148    78    77    1
   149    78    79   ar
   150    77    74    1
   151    81    79   ar
   152   101   100    1
   153    98    97    2
   154    97    96    1
   155    91    89   ar
   156    73    74    1
   157    74    75    1
   158    90    89   ar
   159    89    88    1
   160    96    93    1
   161    75    76    2
   162    87    88    1
   163    87    84    1
   164    92    93    1
   165    92    85   am
   166    93    94    1
   167    95    94    2
   168    83    84    1
   169    84    85    1
   170    85    86    2
