@<TRIPOS>MOLECULE
tmp/5ii2A01.pdb
 130 125 0 0 0
SMALL
GASTEIGER

@<TRIPOS>ATOM
      1  N          8.8290  -14.9750  -24.1110 N.3    32  ILE32      -0.1231
      2  CA         9.6520  -14.5260  -25.2470 C.3    32  ILE32       0.1692
      3  C          9.8460  -12.9990  -25.2930 C.2    32  ILE32       0.2592
      4  O         10.8460  -12.4980  -25.8590 O.2    32  ILE32      -0.2718
      5  CB         9.0050  -15.0800  -26.5880 C.3    32  ILE32       0.0266
      6  CG1       10.0300  -15.3350  -27.6630 C.3    32  ILE32       0.0019
      7  CG2        7.9040  -14.1740  -27.1200 C.3    32  ILE32       0.0020
      8  CD1        9.4480  -15.9890  -28.8910 C.3    32  ILE32       0.0001
      9  N          8.9070  -12.2490  -24.6970 N.am   33  PHE33      -0.1976
     10  CA         8.8930  -10.7750  -24.8050 C.3    33  PHE33       0.1639
     11  C          9.7660  -10.0630  -23.7930 C.2    33  PHE33       0.2290
     12  O         10.0900   -8.8810  -24.0040 O.2    33  PHE33      -0.2864
     13  CB         7.4910  -10.2290  -24.6950 C.3    33  PHE33       0.0560
     14  CG         6.5890  -10.6040  -25.8220 C.ar   33  PHE33      -0.0200
     15  CD1        6.5550   -9.8320  -26.9870 C.ar   33  PHE33      -0.0042
     16  CD2        5.7200  -11.6680  -25.7110 C.ar   33  PHE33      -0.0042
     17  CE1        5.7020  -10.1630  -28.0220 C.ar   33  PHE33      -0.0003
     18  CE2        4.8700  -12.0070  -26.7420 C.ar   33  PHE33      -0.0003
     19  CZ         4.8530  -11.2380  -27.9070 C.ar   33  PHE33      -0.0000
     20  N         13.0150  -10.0350  -22.8060 N.3    35  ARG35      -0.1231
     21  CA        14.2360   -9.4710  -23.3090 C.3    35  ARG35       0.1694
     22  C         14.4330   -9.7530  -24.7690 C.2    35  ARG35       0.2592
     23  O         14.5310  -10.9310  -25.1790 O.2    35  ARG35      -0.2718
     24  CB        15.4550  -10.0080  -22.5170 C.3    35  ARG35       0.0321
     25  CG        16.7120   -9.2480  -22.7560 C.3    35  ARG35       0.0489
     26  CD        16.7000   -7.8000  -22.2230 C.3    35  ARG35       0.2205
     27  NE        18.0010   -7.1640  -22.4820 N.pl3  35  ARG35      -0.0865
     28  CZ        18.3000   -6.3590  -23.5120 C.cat  35  ARG35       0.5346
     29  NH1       17.3820   -5.9390  -24.3730 N.pl3  35  ARG35       0.1354
     30  NH2       19.5510   -5.9000  -23.6460 N.pl3  35  ARG35       0.1354
     31  N         14.5250   -8.6650  -25.5420 N.am   36  LEU36      -0.1966
     32  CA        14.8330   -8.7390  -26.9860 C.3    36  LEU36       0.1713
     33  C         16.1650   -9.3670  -27.1880 C.2    36  LEU36       0.2458
     34  O         17.1140   -9.0340  -26.4690 O.2    36  LEU36      -0.2730
     35  CB        14.9050   -7.3630  -27.6400 C.3    36  LEU36       0.0310
     36  CG        13.6380   -6.9280  -28.3310 C.3    36  LEU36       0.0022
     37  CD1       13.7390   -5.4490  -28.7110 C.3    36  LEU36       0.0001
     38  CD2       13.3600   -7.7780  -29.5540 C.3    36  LEU36       0.0001
     39  N         16.2480  -10.2870  -28.1670 N.am   37  PRO37      -0.2727
     40  CA        17.5370  -10.7450  -28.5980 C.3    37  PRO37       0.1402
     41  C         18.3250   -9.6340  -29.2890 C.2    37  PRO37       0.2269
     42  O         17.7890   -8.5680  -29.5900 O.2    37  PRO37      -0.2865
     43  CB        17.1900  -11.8550  -29.5900 C.3    37  PRO37       0.0296
     44  CG        15.8620  -12.3800  -29.1610 C.3    37  PRO37       0.0237
     45  CD        15.1500  -11.1420  -28.6640 C.3    37  PRO37       0.0939
     46  N         18.6470  -11.6240  -34.2270 N.3    42  LEU42      -0.1245
     47  CA        17.4160  -11.3620  -34.9570 C.3    42  LEU42       0.1561
     48  C         17.6960  -10.5360  -36.2590 C.2    42  LEU42       0.2260
     49  O         17.5890   -9.3140  -36.2310 O.2    42  LEU42      -0.2867
     50  CB        16.4070  -10.6250  -34.0660 C.3    42  LEU42       0.0270
     51  CG        15.6490  -11.4280  -33.0020 C.3    42  LEU42       0.0019
     52  CD1       14.6560  -10.5480  -32.2640 C.3    42  LEU42       0.0001
     53  CD2       14.9110  -12.6050  -33.5920 C.3    42  LEU42       0.0001
     54  N         16.1100   -6.9250  -37.5000 N.3    45  TYR45      -0.1241
     55  CA        15.2130   -6.3560  -36.5010 C.3    45  TYR45       0.1605
     56  C         15.5240   -4.8840  -36.2690 C.2    45  TYR45       0.2264
     57  O         14.6590   -4.0260  -36.4170 O.2    45  TYR45      -0.2867
     58  CB        15.3020   -7.1020  -35.1770 C.3    45  TYR45       0.0534
     59  CG        14.1300   -6.7680  -34.2660 C.ar   45  TYR45      -0.0201
     60  CD1       12.9800   -7.5200  -34.3140 C.ar   45  TYR45      -0.0009
     61  CD2       14.1850   -5.7200  -33.3640 C.ar   45  TYR45      -0.0009
     62  CE1       11.9390   -7.2790  -33.4640 C.ar   45  TYR45       0.0417
     63  CE2       13.1190   -5.4320  -32.5220 C.ar   45  TYR45       0.0417
     64  CZ        12.0060   -6.2220  -32.5570 C.ar   45  TYR45       0.1957
     65  OH        10.9080   -5.9680  -31.7950 O.3    45  TYR45      -0.2866
     66  N         11.6420   -2.3850  -28.0230 N.3    53  MET53      -0.1230
     67  CA        11.0100   -2.3460  -26.7490 C.3    53  MET53       0.1702
     68  C         10.8470   -3.7480  -26.2740 C.2    53  MET53       0.2592
     69  O         10.4400   -4.6270  -27.0340 O.2    53  MET53      -0.2718
     70  CB         9.6270   -1.6820  -26.8910 C.3    53  MET53       0.0401
     71  CG         8.9020   -1.4180  -25.5800 C.3    53  MET53       0.0596
     72  SD         9.8290   -0.4210  -24.3900 S.3    53  MET53      -0.1393
     73  CE         9.9650    1.1240  -25.2920 C.3    53  MET53       0.0692
     74  N         11.1720   -3.9730  -25.0170 N.am   54  ASP54      -0.1974
     75  CA        10.9220   -5.2710  -24.4030 C.3    54  ASP54       0.1709
     76  C         10.4450   -5.0690  -22.9910 C.2    54  ASP54       0.2293
     77  O         10.4570   -3.9700  -22.4900 O.2    54  ASP54      -0.2864
     78  CB        12.1470   -6.1720  -24.5410 C.3    54  ASP54       0.1436
     79  CG        13.3690   -5.6810  -23.7880 C.2    54  ASP54       0.3671
     80  OD1       13.2590   -4.7910  -22.9100 O.co2  54  ASP54      -0.2456
     81  OD2       14.4460   -6.2170  -24.1340 O.co2  54  ASP54      -0.2456
     82  N          5.7370   -2.4990  -28.2110 N.3    80  MET80      -0.1245
     83  CA         6.3200   -3.8350  -28.2480 C.3    80  MET80       0.1570
     84  C          5.5060   -4.8420  -29.0750 C.2    80  MET80       0.2261
     85  O          6.0560   -5.5890  -29.9070 O.2    80  MET80      -0.2867
     86  CB         6.5390   -4.3890  -26.8180 C.3    80  MET80       0.0387
     87  CG         7.3570   -5.6690  -26.6900 C.3    80  MET80       0.0595
     88  SD         7.3370   -6.2940  -24.9560 S.3    80  MET80      -0.1393
     89  CE         5.6330   -6.7420  -24.7030 C.3    80  MET80       0.0692
     90  N          5.7480   -4.0070  -32.7280 N.3    83  ASN83      -0.1225
     91  CA         7.0670   -4.3840  -33.2000 C.3    83  ASN83       0.1785
     92  C          7.1110   -5.8370  -33.5350 C.2    83  ASN83       0.2597
     93  O          7.5560   -6.1860  -34.6020 O.2    83  ASN83      -0.2718
     94  CB         8.1520   -4.0540  -32.2100 C.3    83  ASN83       0.1169
     95  CG         8.3860   -2.5760  -32.0820 C.2    83  ASN83       0.2627
     96  OD1        7.9900   -1.8060  -32.9300 O.2    83  ASN83      -0.2716
     97  ND2        9.0650   -2.1750  -31.0240 N.am   83  ASN83      -0.0877
     98  N          6.5940   -6.6790  -32.6430 N.am   84  ALA84      -0.1979
     99  CA         6.6070   -8.0860  -32.8170 C.3    84  ALA84       0.1597
    100  C          5.7360   -8.4560  -34.0050 C.2    84  ALA84       0.2287
    101  O          6.0750   -9.3560  -34.7810 O.2    84  ALA84      -0.2864
    102  CB         6.1460   -8.8090  -31.5090 C.3    84  ALA84       0.0319
    103  N          7.7010   -7.4160  -37.2480 N.3    87  TYR87      -0.1227
    104  CA         8.7720   -8.3190  -37.6050 C.3    87  TYR87       0.1736
    105  C          8.3770   -9.7400  -37.9670 C.2    87  TYR87       0.2595
    106  O          9.0540  -10.3540  -38.7790 O.2    87  TYR87      -0.2718
    107  CB         9.7430   -8.4510  -36.4530 C.3    87  TYR87       0.0548
    108  CG        11.0320   -9.1140  -36.7640 C.ar   87  TYR87      -0.0200
    109  CD1       11.9480   -8.5220  -37.6410 C.ar   87  TYR87      -0.0009
    110  CD2       11.3910  -10.3140  -36.1320 C.ar   87  TYR87      -0.0009
    111  CE1       13.1560   -9.1150  -37.9080 C.ar   87  TYR87       0.0417
    112  CE2       12.6280  -10.9020  -36.3580 C.ar   87  TYR87       0.0417
    113  CZ        13.5090  -10.2950  -37.2190 C.ar   87  TYR87       0.1957
    114  OH        14.7210  -10.9230  -37.4390 O.3    87  TYR87      -0.2866
    115  N          7.3740  -10.2840  -37.2950 N.am   88  ASN88      -0.1974
    116  CA         7.0160  -11.6960  -37.4750 C.3    88  ASN88       0.1688
    117  C          5.7760  -11.8320  -38.3090 C.2    88  ASN88       0.2292
    118  O          5.0320  -10.8390  -38.5120 O.2    88  ASN88      -0.2864
    119  CB         6.7920  -12.3170  -36.1170 C.3    88  ASN88       0.1181
    120  CG         8.0450  -12.2480  -35.2740 C.2    88  ASN88       0.2629
    121  OD1        8.9080  -13.0720  -35.4340 O.2    88  ASN88      -0.2716
    122  ND2        8.1380  -11.2630  -34.3830 N.am   88  ASN88      -0.0877
    123  N          4.6470  -15.9520  -31.8210 N.3    94  ILE94      -0.1245
    124  CA         4.9040  -14.6630  -31.1880 C.3    94  ILE94       0.1561
    125  C          3.8180  -13.6160  -31.6000 C.2    94  ILE94       0.2260
    126  O          3.2550  -12.9300  -30.7580 O.2    94  ILE94      -0.2867
    127  CB         6.3690  -14.1880  -31.3970 C.3    94  ILE94       0.0252
    128  CG1        6.6290  -12.9540  -30.4870 C.3    94  ILE94       0.0019
    129  CG2        6.6450  -13.8600  -32.8490 C.3    94  ILE94       0.0019
    130  CD1        8.0030  -12.3890  -30.4320 C.3    94  ILE94       0.0001
@<TRIPOS>BOND
     1   106   105    2
     2   118   117    2
     3   117   116    1
     4   105   104    1
     5   105   115   am
     6   111   109   ar
     7   111   113   ar
     8   109   108   ar
     9   104   103    1
    10   104   107    1
    11    54    55    1
    12   116   115    1
    13   116   119    1
    14   114   113    1
    15   113   112   ar
    16   108   107    1
    17   108   110   ar
    18    55    56    1
    19    55    58    1
    20    57    56    2
    21   112   110   ar
    22    48    49    2
    23    48    47    1
    24   119   120    1
    25   121   120    2
    26   120   122   am
    27    58    59    1
    28    47    46    1
    29    47    50    1
    30   101   100    2
    31    93    92    2
    32    60    59   ar
    33    60    62   ar
    34    59    61   ar
    35    50    51    1
    36   100    99    1
    37    53    51    1
    38    92    91    1
    39    92    98   am
    40    62    64   ar
    41    61    63   ar
    42    91    90    1
    43    91    94    1
    44    51    52    1
    45    96    95    2
    46   129   127    1
    47    99    98    1
    48    99   102    1
    49    64    63   ar
    50    64    65    1
    51    94    95    1
    52    95    97   am
    53   123   124    1
    54   125   124    1
    55   125   126    2
    56   127   124    1
    57   127   128    1
    58   128   130    1
    59    85    84    2
    60    42    41    2
    61    43    44    1
    62    43    40    1
    63    38    36    1
    64    41    40    1
    65    44    45    1
    66    84    83    1
    67     8     6    1
    68    37    36    1
    69    45    39    1
    70    40    39    1
    71    36    35    1
    72    83    82    1
    73    83    86    1
    74    39    33   am
    75    66    67    1
    76    17    19   ar
    77    17    15   ar
    78    19    18   ar
    79     6     5    1
    80    35    32    1
    81    33    32    1
    82    33    34    2
    83     7     5    1
    84    69    68    2
    85    15    14   ar
    86    32    31    1
    87    70    67    1
    88    70    71    1
    89    86    87    1
    90    67    68    1
    91    18    16   ar
    92    87    88    1
    93     5     2    1
    94    68    74   am
    95     4     3    2
    96    14    16   ar
    97    14    13    1
    98    71    72    1
    99    31    22   am
   100     3     2    1
   101     3     9   am
   102    73    72    1
   103     2     1    1
   104    23    22    2
   105    74    75    1
   106    88    89    1
   107    10     9    1
   108    10    13    1
   109    10    11    1
   110    22    21    1
   111    78    75    1
   112    78    79    1
   113    75    76    1
   114    29    28    1
   115    81    79   ar
   116    12    11    2
   117    79    80   ar
   118    30    28    1
   119    28    27    2
   120    21    20    1
   121    21    24    1
   122    76    77    2
   123    25    24    1
   124    25    26    1
   125    27    26    1
