@<TRIPOS>MOLECULE
tmp/5ii4A02.pdb
 85 81 0 0 0
SMALL
GASTEIGER

@<TRIPOS>ATOM
      1  N        100.9790   38.3970   -4.8340 N.3   439  ARG439     -0.1245
      2  CA       102.0420   37.9240   -3.9560 C.3   439  ARG439      0.1563
      3  C        101.4450   36.9910   -2.9120 C.2   439  ARG439      0.2260
      4  O        100.5860   37.3930   -2.1270 O.2   439  ARG439     -0.2867
      5  CB       102.7580   39.0890   -3.2780 C.3   439  ARG439      0.0307
      6  CG       103.5150   39.9860   -4.2350 C.3   439  ARG439      0.0489
      7  CD       104.7350   40.5730   -3.5660 C.3   439  ARG439      0.2205
      8  NE       104.4090   41.1520   -2.2660 N.pl3 439  ARG439     -0.0865
      9  CZ       105.2940   41.3680   -1.2960 C.cat 439  ARG439      0.5346
     10  NH1      106.5730   41.0530   -1.4690 N.pl3 439  ARG439      0.1354
     11  NH2      104.8970   41.8970   -0.1480 N.pl3 439  ARG439      0.1354
     12  N        100.4030   33.3070    1.4950 N.3   442  TYR442     -0.1227
     13  CA       100.9540   33.4450    2.8330 C.3   442  TYR442      0.1736
     14  C        100.0820   32.6460    3.7900 C.2   442  TYR442      0.2596
     15  O         98.8570   32.6230    3.6490 O.2   442  TYR442     -0.2718
     16  CB       101.0210   34.9130    3.2460 C.3   442  TYR442      0.0548
     17  CG       102.0390   35.7170    2.4680 C.ar  442  TYR442     -0.0200
     18  CD1      101.7210   36.2830    1.2390 C.ar  442  TYR442     -0.0009
     19  CD2      103.3240   35.9050    2.9620 C.ar  442  TYR442     -0.0009
     20  CE1      102.6580   37.0160    0.5270 C.ar  442  TYR442      0.0417
     21  CE2      104.2600   36.6340    2.2610 C.ar  442  TYR442      0.0417
     22  CZ       103.9240   37.1890    1.0490 C.ar  442  TYR442      0.1957
     23  OH       104.8680   37.9140    0.3620 O.3   442  TYR442     -0.2866
     24  N        100.7130   31.9780    4.7480 N.am  443  SER443     -0.1938
     25  CA        99.9820   31.1890    5.7280 C.3   443  SER443      0.2055
     26  C         99.2650   32.0960    6.7190 C.2   443  SER443      0.2643
     27  O         99.8110   33.1100    7.1510 O.2   443  SER443     -0.2714
     28  CB       100.9270   30.2470    6.4730 C.3   443  SER443      0.2130
     29  OG       101.7890   30.9750    7.3290 O.3   443  SER443     -0.2179
     30  N         98.0360   31.7290    7.0660 N.am  444  VAL444     -0.1963
     31  CA        97.2640   32.4590    8.0650 C.3   444  VAL444      0.1712
     32  C         97.4010   31.7550    9.4200 C.2   444  VAL444      0.2458
     33  O         96.9880   30.6030    9.5590 O.2   444  VAL444     -0.2730
     34  CB        95.7770   32.5500    7.6790 C.3   444  VAL444      0.0289
     35  CG1       95.0760   33.5920    8.5330 C.3   444  VAL444      0.0023
     36  CG2       95.6270   32.8860    6.2030 C.3   444  VAL444      0.0023
     37  N         97.9810   32.4390   10.4250 N.am  445  PRO445     -0.2727
     38  CA        98.2920   31.7530   11.6880 C.3   445  PRO445      0.1402
     39  C         97.0560   31.2620   12.4370 C.2   445  PRO445      0.2269
     40  O         97.1290   30.2630   13.1520 O.2   445  PRO445     -0.2865
     41  CB        99.0230   32.8280   12.4980 C.3   445  PRO445      0.0296
     42  CG        98.5160   34.1160   11.9580 C.3   445  PRO445      0.0237
     43  CD        98.2860   33.8800   10.4960 C.3   445  PRO445      0.0939
     44  N         96.5600   33.4270    2.0420 N.3   452  MET452     -0.1245
     45  CA        96.4160   34.8470    1.7540 C.3   452  MET452      0.1570
     46  C         97.2580   35.2620    0.5550 C.2   452  MET452      0.2261
     47  O         98.4560   34.9930    0.4980 O.2   452  MET452     -0.2867
     48  CB        96.8240   35.6860    2.9590 C.3   452  MET452      0.0387
     49  CG        96.6300   37.1820    2.7590 C.3   452  MET452      0.0595
     50  SD        97.5260   38.1630    3.9770 S.3   452  MET452     -0.1393
     51  CE        99.1220   38.2850    3.1800 C.3   452  MET452      0.0692
     52  N         98.1840   38.7950   -1.7680 N.3   454  THR454     -0.1218
     53  CA        98.1560   40.2420   -1.5920 C.3   454  THR454      0.1862
     54  C         98.7490   41.0160   -2.7740 C.2   454  THR454      0.2287
     55  O         99.6190   40.5160   -3.4980 O.2   454  THR454     -0.2866
     56  CB        98.9070   40.6430   -0.3020 C.3   454  THR454      0.1770
     57  OG1       98.7920   42.0550   -0.0880 O.3   454  THR454     -0.2211
     58  CG2      100.3760   40.2490   -0.3720 C.3   454  THR454      0.0375
     59  N         97.3170   48.0880    0.7080 N.3   470  SER470     -0.1217
     60  CA        97.4530   46.7100    0.2670 C.3   470  SER470      0.1889
     61  C         96.0780   46.0710    0.2260 C.2   470  SER470      0.2288
     62  O         95.2180   46.3900    1.0440 O.2   470  SER470     -0.2866
     63  CB        98.3930   45.9220    1.1840 C.3   470  SER470      0.2089
     64  OG        97.8660   45.7990    2.4870 O.3   470  SER470     -0.2183
     65  N         94.0820   42.2630   -0.0570 N.3   472  GLU472     -0.1245
     66  CA        94.2480   40.8280    0.1280 C.3   472  GLU472      0.1567
     67  C         93.0510   40.0140   -0.3740 C.2   472  GLU472      0.2260
     68  O         91.9120   40.4910   -0.4000 O.2   472  GLU472     -0.2867
     69  CB        94.4880   40.5100    1.6080 C.3   472  GLU472      0.0388
     70  CG        95.8590   40.9250    2.1340 C.3   472  GLU472      0.1160
     71  CD        95.9730   42.4130    2.4070 C.2   472  GLU472      0.3649
     72  OE1       95.1810   42.9330    3.2170 O.co2 472  GLU472     -0.2457
     73  OE2       96.8640   43.0620    1.8150 O.co2 472  GLU472     -0.2457
     74  N         91.6280   35.9370    0.3780 N.3   474  TYR474     -0.1241
     75  CA        91.8110   34.7150    1.1480 C.3   474  TYR474      0.1605
     76  C         91.1200   33.5480    0.4530 C.2   474  TYR474      0.2264
     77  O         89.9870   33.6760   -0.0160 O.2   474  TYR474     -0.2867
     78  CB        91.2920   34.9070    2.5730 C.3   474  TYR474      0.0534
     79  CG        92.0440   35.9950    3.3030 C.ar  474  TYR474     -0.0201
     80  CD1       91.6410   37.3210    3.2200 C.ar  474  TYR474     -0.0009
     81  CD2       93.1750   35.7020    4.0460 C.ar  474  TYR474     -0.0009
     82  CE1       92.3310   38.3190    3.8710 C.ar  474  TYR474      0.0417
     83  CE2       93.8700   36.6950    4.7040 C.ar  474  TYR474      0.0417
     84  CZ        93.4440   38.0010    4.6090 C.ar  474  TYR474      0.1957
     85  OH        94.1350   38.9940    5.2560 O.3   474  TYR474     -0.2866
@<TRIPOS>BOND
     1     1     2    1
     2     6     7    1
     3     6     5    1
     4     2     5    1
     5     2     3    1
     6     7     8    1
     7    55    54    2
     8     3     4    2
     9    54    53    1
    10     8     9    2
    11    52    53    1
    12    53    56    1
    13    10     9    1
    14     9    11    1
    15    68    67    2
    16    67    66    1
    17    58    56    1
    18    56    57    1
    19    65    66    1
    20    77    76    2
    21    66    69    1
    22    61    60    1
    23    61    62    2
    24    60    59    1
    25    60    63    1
    26    23    22    1
    27    74    75    1
    28    76    75    1
    29    47    46    2
    30    20    22   ar
    31    20    18   ar
    32    46    45    1
    33    22    21   ar
    34    75    78    1
    35    63    64    1
    36    18    17   ar
    37    12    13    1
    38    69    70    1
    39    45    44    1
    40    45    48    1
    41    73    71   ar
    42    70    71    1
    43    21    19   ar
    44    71    72   ar
    45    17    19   ar
    46    17    16    1
    47    78    79    1
    48    49    48    1
    49    49    50    1
    50    13    16    1
    51    13    14    1
    52    51    50    1
    53    80    79   ar
    54    80    82   ar
    55    79    81   ar
    56    15    14    2
    57    14    24   am
    58    82    84   ar
    59    81    83   ar
    60    84    83   ar
    61    84    85    1
    62    24    25    1
    63    25    28    1
    64    25    26    1
    65    36    34    1
    66    28    29    1
    67    26    30   am
    68    26    27    2
    69    30    31    1
    70    34    31    1
    71    34    35    1
    72    31    32    1
    73    32    33    2
    74    32    37   am
    75    37    43    1
    76    37    38    1
    77    43    42    1
    78    38    39    1
    79    38    41    1
    80    42    41    1
    81    39    40    2
