@<TRIPOS>MOLECULE
tmp/5ii4A04.pdb
 74 68 0 0 0
SMALL
GASTEIGER

@<TRIPOS>ATOM
      1  N         80.4050   40.9130   16.3670 N.3   195  VAL195     -0.1245
      2  CA        80.4690   39.5750   15.7910 C.3   195  VAL195      0.1561
      3  C         80.3760   38.5320   16.9010 C.2   195  VAL195      0.2260
      4  O         79.7240   37.5100   16.7280 O.2   195  VAL195     -0.2867
      5  CB        81.7560   39.3720   14.9630 C.3   195  VAL195      0.0252
      6  CG1       81.8890   37.9270   14.4840 C.3   195  VAL195      0.0019
      7  CG2       81.7530   40.3000   13.7570 C.3   195  VAL195      0.0019
      8  N         76.9050   38.0500   17.7660 N.3   198  ILE198     -0.1231
      9  CA        76.2790   37.1700   16.7790 C.3   198  ILE198      0.1692
     10  C         76.7000   35.6920   16.9260 C.2   198  ILE198      0.2591
     11  O         75.8490   34.8030   16.8570 O.2   198  ILE198     -0.2718
     12  CB        76.5750   37.6690   15.3470 C.3   198  ILE198      0.0266
     13  CG1       76.0240   39.0880   15.1950 C.3   198  ILE198      0.0019
     14  CG2       75.9290   36.7610   14.3140 C.3   198  ILE198      0.0020
     15  CD1       76.3560   39.7550   13.8930 C.3   198  ILE198      0.0001
     16  N         77.9900   35.4290   17.1410 N.am  199  LYS199     -0.1980
     17  CA        78.4990   34.0580   17.3020 C.3   199  LYS199      0.1596
     18  C         77.7830   33.2960   18.4160 C.2   199  LYS199      0.2287
     19  O         77.5650   32.0890   18.3220 O.2   199  LYS199     -0.2864
     20  CB        80.0030   34.0590   17.6180 C.3   199  LYS199      0.0298
     21  CG        80.9380   34.4100   16.4680 C.3   199  LYS199      0.0038
     22  CD        82.4000   34.2340   16.8960 C.3   199  LYS199      0.0206
     23  CE        83.3600   34.9700   15.9620 C.3   199  LYS199      0.1093
     24  NZ        84.7810   34.5440   16.1180 N.3   199  LYS199     -0.1314
     25  N         74.7770   33.8340   19.4670 N.3   201  LYS201     -0.1245
     26  CA        73.3400   33.7960   19.2070 C.3   201  LYS201      0.1561
     27  C         72.5730   34.7270   20.1420 C.2   201  LYS201      0.2260
     28  O         71.4260   34.4620   20.5000 O.2   201  LYS201     -0.2867
     29  CB        72.8080   32.3630   19.3250 C.3   201  LYS201      0.0271
     30  CG        73.4170   31.3890   18.3170 C.3   201  LYS201      0.0035
     31  CD        72.8240   29.9930   18.4630 C.3   201  LYS201      0.0206
     32  CE        73.3550   29.0340   17.4080 C.3   201  LYS201      0.1093
     33  NZ        72.8380   27.6450   17.5990 N.3   201  LYS201     -0.1314
     34  N         72.4260   37.7010   12.3780 N.3   205  ALA205     -0.1245
     35  CA        73.1070   38.4820   11.3420 C.3   205  ALA205      0.1562
     36  C         72.1510   39.0280   10.2750 C.2   205  ALA205      0.2260
     37  O         72.4650   40.0190    9.6180 O.2   205  ALA205     -0.2867
     38  CB        74.1900   37.6410   10.6830 C.3   205  ALA205      0.0290
     39  N         81.4240   40.4720    8.0230 N.3   349  ALA349     -0.1231
     40  CA        81.9130   40.0050    9.3240 C.3   349  ALA349      0.1694
     41  C         80.7930   39.3690   10.1400 C.2   349  ALA349      0.2592
     42  O         81.0000   38.3500   10.8010 O.2   349  ALA349     -0.2718
     43  CB        82.5430   41.1500   10.1120 C.3   349  ALA349      0.0304
     44  N         79.6120   39.9760   10.0880 N.am  350  ALA350     -0.1966
     45  CA        78.4660   39.4980   10.8520 C.3   350  ALA350      0.1728
     46  C         77.9860   38.1430   10.3450 C.2   350  ALA350      0.2617
     47  O         77.5590   37.2900   11.1300 O.2   350  ALA350     -0.2715
     48  CB        77.3320   40.5140   10.7900 C.3   350  ALA350      0.0334
     49  N         78.0590   37.9520    9.0310 N.am  351  SER351     -0.1936
     50  CA        77.5760   36.7250    8.4050 C.3   351  SER351      0.2055
     51  C         78.6240   35.6250    8.4440 C.2   351  SER351      0.2643
     52  O         78.3240   34.4670    8.1520 O.2   351  SER351     -0.2714
     53  CB        77.1680   36.9850    6.9510 C.3   351  SER351      0.2130
     54  OG        78.2840   37.3740    6.1630 O.3   351  SER351     -0.2179
     55  N         79.8560   35.9940    8.7770 N.am  352  GLY352     -0.1954
     56  CA        80.9550   35.0450    8.7960 C.3   352  GLY352      0.1869
     57  C         81.6640   34.8650    7.4600 C.2   352  GLY352      0.2309
     58  O         82.4580   33.9410    7.3060 O.2   352  GLY352     -0.2863
     59  N         83.8090   37.0040    6.1310 N.3   354  GLN354     -0.1231
     60  CA        85.1730   37.4750    6.3460 C.3   354  GLN354      0.1698
     61  C         85.4490   37.5950    7.8390 C.2   354  GLN354      0.2592
     62  O         84.5310   37.8130    8.6170 O.2   354  GLN354     -0.2718
     63  CB        85.4030   38.8420    5.7020 C.3   354  GLN354      0.0381
     64  CG        85.1840   38.9440    4.2120 C.3   354  GLN354      0.0905
     65  CD        85.5660   40.3280    3.7110 C.2   354  GLN354      0.2608
     66  OE1       84.7450   41.2520    3.6890 O.2   354  GLN354     -0.2717
     67  NE2       86.8340   40.4900    3.3560 N.am  354  GLN354     -0.0878
     68  N         86.7140   37.4880    8.2310 N.am  355  THR355     -0.1953
     69  CA        87.1180   37.8400    9.5890 C.3   355  THR355      0.1897
     70  C         86.9660   39.3480    9.7680 C.2   355  THR355      0.2313
     71  O         86.8540   40.0810    8.7850 O.2   355  THR355     -0.2863
     72  CB        88.5710   37.4360    9.8910 C.3   355  THR355      0.1794
     73  OG1       89.4580   38.1340    9.0040 O.3   355  THR355     -0.2208
     74  CG2       88.7590   35.9320    9.7260 C.3   355  THR355      0.0378
@<TRIPOS>BOND
     1    67    65   am
     2    66    65    2
     3    65    64    1
     4    64    63    1
     5    63    60    1
     6    59    60    1
     7    54    53    1
     8    60    61    1
     9    53    50    1
    10    58    57    2
    11    57    56    1
    12    61    68   am
    13    61    62    2
    14    39    40    1
    15    52    51    2
    16    68    69    1
    17    50    51    1
    18    50    49    1
    19    51    55   am
    20    55    56    1
    21    71    70    2
    22    73    72    1
    23    49    46   am
    24    40    43    1
    25    40    41    1
    26    69    70    1
    27    69    72    1
    28    37    36    2
    29    74    72    1
    30    44    41   am
    31    44    45    1
    32    41    42    2
    33    36    35    1
    34    46    45    1
    35    46    47    2
    36    38    35    1
    37    48    45    1
    38    35    34    1
    39     7     5    1
    40    15    13    1
    41    14    12    1
    42     6     5    1
    43     5     2    1
    44    13    12    1
    45    12     9    1
    46     2     1    1
    47     2     3    1
    48    23    24    1
    49    23    22    1
    50    21    22    1
    51    21    20    1
    52     4     3    2
    53     9    10    1
    54     9     8    1
    55    11    10    2
    56    10    16   am
    57    16    17    1
    58    17    20    1
    59    17    18    1
    60    32    33    1
    61    32    31    1
    62    30    31    1
    63    30    29    1
    64    19    18    2
    65    26    29    1
    66    26    25    1
    67    26    27    1
    68    27    28    2
