@<TRIPOS>MOLECULE
tmp/5iibB00.pdb
 76 75 0 0 0
SMALL
GASTEIGER

@<TRIPOS>ATOM
      1  N         22.2550   -6.8030  -14.6740 N.3    37  ASN37      -0.1225
      2  CA        21.0190   -7.2910  -14.0840 C.3    37  ASN37       0.1785
      3  C         20.1330   -6.1690  -13.5610 C.2    37  ASN37       0.2598
      4  O         19.0420   -6.4540  -13.0580 O.2    37  ASN37      -0.2718
      5  CB        21.3240   -8.2740  -12.9460 C.3    37  ASN37       0.1169
      6  CG        22.1600   -7.6500  -11.8550 C.2    37  ASN37       0.2627
      7  OD1       23.2230   -7.0770  -12.1120 O.2    37  ASN37      -0.2716
      8  ND2       21.6780   -7.7350  -10.6380 N.am   37  ASN37      -0.0877
      9  N         20.5640   -4.9210  -13.6620 N.am   38  GLY38      -0.1942
     10  CA        19.7250   -3.7980  -13.2860 C.3    38  GLY38       0.2014
     11  C         20.5420   -2.6540  -12.7170 C.2    38  GLY38       0.2639
     12  O         21.7700   -2.6890  -12.6670 O.2    38  GLY38      -0.2714
     13  N         19.8120   -1.6280  -12.2780 N.am   39  LEU39      -0.1963
     14  CA        20.3870   -0.4220  -11.7070 C.3    39  LEU39       0.1728
     15  C         20.4300   -0.5860  -10.1870 C.2    39  LEU39       0.2616
     16  O         19.3970   -0.8710   -9.5680 O.2    39  LEU39      -0.2715
     17  CB        19.5410    0.7900  -12.0920 C.3    39  LEU39       0.0311
     18  CG        20.2550    2.1180  -12.3050 C.3    39  LEU39       0.0022
     19  CD1       21.1450    2.0440  -13.5250 C.3    39  LEU39       0.0001
     20  CD2       19.2440    3.2340  -12.4550 C.3    39  LEU39       0.0001
     21  N         21.6040   -0.4340   -9.6000 N.am   40  VAL40      -0.1977
     22  CA        21.7920   -0.6440   -8.1620 C.3    40  VAL40       0.1596
     23  C         22.1590    0.6980   -7.5250 C.2    40  VAL40       0.2287
     24  O         23.2160    1.2510   -7.8460 O.2    40  VAL40      -0.2864
     25  CB        22.8820   -1.6840   -7.8810 C.3    40  VAL40       0.0276
     26  CG1       23.0940   -1.8580   -6.3710 C.3    40  VAL40       0.0022
     27  CG2       22.5200   -3.0190   -8.5220 C.3    40  VAL40       0.0022
     28  N         24.0640  -14.7400   -9.0040 N.3    60  LEU60      -0.1231
     29  CA        22.9830  -14.0230   -8.3340 C.3    60  LEU60       0.1693
     30  C         22.2040  -14.9460   -7.4120 C.2    60  LEU60       0.2592
     31  O         21.8950  -16.0870   -7.7660 O.2    60  LEU60      -0.2718
     32  CB        22.0170  -13.4230   -9.3470 C.3    60  LEU60       0.0284
     33  CG        22.5180  -12.2600  -10.1880 C.3    60  LEU60       0.0019
     34  CD1       21.5760  -12.0770  -11.3770 C.3    60  LEU60       0.0001
     35  CD2       22.6050  -10.9980   -9.3320 C.3    60  LEU60       0.0001
     36  N         21.8800  -14.4240   -6.2270 N.am   61  LEU61      -0.1966
     37  CA        20.9780  -15.0440   -5.2700 C.3    61  LEU61       0.1728
     38  C         19.9150  -14.0350   -4.8550 C.2    61  LEU61       0.2616
     39  O         20.0230  -12.8390   -5.1210 O.2    61  LEU61      -0.2715
     40  CB        21.7400  -15.5080   -4.0280 C.3    61  LEU61       0.0311
     41  CG        22.8330  -16.5240   -4.2920 C.3    61  LEU61       0.0022
     42  CD1       23.6380  -16.7090   -3.0460 C.3    61  LEU61       0.0001
     43  CD2       22.1830  -17.8160   -4.6990 C.3    61  LEU61       0.0001
     44  N         18.8990  -14.5100   -4.1400 N.am   62  ASP62      -0.1957
     45  CA        17.8480  -13.6040   -3.6830 C.3    62  ASP62       0.1840
     46  C         18.3910  -12.8370   -2.4790 C.2    62  ASP62       0.2623
     47  O         18.2370  -13.2460   -1.3280 O.2    62  ASP62      -0.2715
     48  CB        16.5730  -14.3680   -3.3530 C.3    62  ASP62       0.1450
     49  CG        15.4340  -13.4460   -2.9730 C.2    62  ASP62       0.3671
     50  OD1       15.6020  -12.2100   -3.1010 O.co2  62  ASP62      -0.2456
     51  OD2       14.3710  -13.9550   -2.5580 O.co2  62  ASP62      -0.2456
     52  N         19.0400  -11.7120   -2.7590 N.am   63  SER63      -0.1936
     53  CA        19.6990  -10.8790   -1.7600 C.3    63  SER63       0.2040
     54  C         19.7880   -9.4660   -2.3200 C.2    63  SER63       0.2485
     55  O         19.7390   -9.2850   -3.5410 O.2    63  SER63      -0.2729
     56  CB        21.1020  -11.4130   -1.4340 C.3    63  SER63       0.2129
     57  OG        21.9170  -11.4070   -2.5920 O.3    63  SER63      -0.2179
     58  N         19.9360   -8.4510   -1.4700 N.am   64  PRO64      -0.2715
     59  CA        19.9290   -7.0770   -1.9880 C.3    64  PRO64       0.1536
     60  C         21.2170   -6.6730   -2.7060 C.2    64  PRO64       0.2599
     61  O         22.3240   -7.1070   -2.3730 O.2    64  PRO64      -0.2715
     62  CB        19.7260   -6.2280   -0.7310 C.3    64  PRO64       0.0310
     63  CG        20.2850   -7.0530    0.3560 C.3    64  PRO64       0.0237
     64  CD        19.9550   -8.4620    0.0120 C.3    64  PRO64       0.0939
     65  N         21.0480   -5.8130   -3.7050 N.am   65  GLY65      -0.1941
     66  CA        22.1550   -5.0280   -4.2340 C.3    65  GLY65       0.2014
     67  C         23.1770   -5.7660   -5.0700 C.2    65  GLY65       0.2638
     68  O         24.2610   -5.2200   -5.3070 O.2    65  GLY65      -0.2714
     69  N         22.8820   -6.9690   -5.5510 N.am   66  MET66      -0.1976
     70  CA        23.8760   -7.6860   -6.3380 C.3    66  MET66       0.1605
     71  C         24.0280   -7.0290   -7.7020 C.2    66  MET66       0.2287
     72  O         23.0600   -6.5290   -8.2800 O.2    66  MET66      -0.2864
     73  CB        23.4870   -9.1580   -6.4930 C.3    66  MET66       0.0413
     74  CG        23.5150   -9.8860   -5.1570 C.3    66  MET66       0.0598
     75  SD        23.7300  -11.6610   -5.2990 S.3    66  MET66      -0.1393
     76  CE        25.4730  -11.7700   -5.6850 C.3    66  MET66       0.0692
@<TRIPOS>BOND
     1     1     2    1
     2     2     3    1
     3     2     5    1
     4     9     3   am
     5     9    10    1
     6     3     4    2
     7    19    18    1
     8    10    11    1
     9     5     6    1
    10    11    12    2
    11    11    13   am
    12    20    18    1
    13    18    17    1
    14    13    14    1
    15     7     6    2
    16    17    14    1
    17     6     8   am
    18    14    15    1
    19    34    33    1
    20    33    32    1
    21    33    35    1
    22    15    21   am
    23    15    16    2
    24    21    22    1
    25    32    29    1
    26    28    29    1
    27    27    25    1
    28    29    30    1
    29    72    71    2
    30    22    25    1
    31    22    23    1
    32    25    26    1
    33    24    23    2
    34    31    30    2
    35    71    70    1
    36    30    36   am
    37    73    70    1
    38    73    74    1
    39    70    69    1
    40    36    37    1
    41    76    75    1
    42    69    67   am
    43    68    67    2
    44    75    74    1
    45    37    38    1
    46    37    40    1
    47    39    38    2
    48    67    66    1
    49    38    44   am
    50    43    41    1
    51    41    40    1
    52    41    42    1
    53    66    65    1
    54    44    45    1
    55    65    60   am
    56    45    48    1
    57    45    46    1
    58    55    54    2
    59    48    49    1
    60    50    49   ar
    61    49    51   ar
    62    52    46   am
    63    52    53    1
    64    60    61    2
    65    60    59    1
    66    57    56    1
    67    46    47    2
    68    54    53    1
    69    54    58   am
    70    59    58    1
    71    59    62    1
    72    53    56    1
    73    58    64    1
    74    62    63    1
    75    64    63    1
