@<TRIPOS>MOLECULE
tmp/5iiqA00.pdb
 115 108 0 0 0
SMALL
GASTEIGER

@<TRIPOS>ATOM
      1  N         35.1580   20.3490  271.9460 N.3   229  TYR229     -0.1241
      2  CA        33.8360   20.1310  272.5390 C.3   229  TYR229      0.1605
      3  C         33.2520   18.7950  272.1170 C.2   229  TYR229      0.2264
      4  O         33.3120   18.4080  270.9470 O.2   229  TYR229     -0.2867
      5  CB        32.8510   21.2470  272.1740 C.3   229  TYR229      0.0534
      6  CG        33.0840   22.5520  272.8940 C.ar  229  TYR229     -0.0201
      7  CD1       32.4420   22.8300  274.1000 C.ar  229  TYR229     -0.0009
      8  CD2       33.9210   23.5270  272.3600 C.ar  229  TYR229     -0.0009
      9  CE1       32.6390   24.0450  274.7610 C.ar  229  TYR229      0.0417
     10  CE2       34.1390   24.7370  273.0180 C.ar  229  TYR229      0.0417
     11  CZ        33.4880   24.9960  274.2140 C.ar  229  TYR229      0.1957
     12  OH        33.7020   26.1930  274.8530 O.3   229  TYR229     -0.2866
     13  N         34.3240   19.6530  277.3820 N.3   252  ARG252     -0.1245
     14  CA        35.3950   20.0670  276.4750 C.3   252  ARG252      0.1563
     15  C         36.7750   19.6430  276.9620 C.2   252  ARG252      0.2260
     16  O         37.0060   19.5680  278.1680 O.2   252  ARG252     -0.2867
     17  CB        35.3370   21.5780  276.1580 C.3   252  ARG252      0.0307
     18  CG        35.8190   22.4690  277.2830 C.3   252  ARG252      0.0489
     19  CD        35.5630   23.9180  277.0040 C.3   252  ARG252      0.2205
     20  NE        36.0990   24.7510  278.0770 N.pl3 252  ARG252     -0.0865
     21  CZ        35.7710   26.0200  278.2600 C.cat 252  ARG252      0.5346
     22  NH1       34.9030   26.6120  277.4510 N.pl3 252  ARG252      0.1354
     23  NH2       36.2990   26.7080  279.2610 N.pl3 252  ARG252      0.1354
     24  N         40.5680   20.7660  276.8090 N.3   254  ARG254     -0.1245
     25  CA        41.3710   21.9630  276.5910 C.3   254  ARG254      0.1563
     26  C         42.8990   21.8160  276.8080 C.2   254  ARG254      0.2260
     27  O         43.3520   21.1610  277.7490 O.2   254  ARG254     -0.2867
     28  CB        40.7990   23.0900  277.4880 C.3   254  ARG254      0.0307
     29  CG        41.5760   24.4040  277.5050 C.3   254  ARG254      0.0489
     30  CD        40.8600   25.4970  278.2540 C.3   254  ARG254      0.2205
     31  NE        39.7530   26.0420  277.4750 N.pl3 254  ARG254     -0.0865
     32  CZ        39.2750   27.2740  277.6140 C.cat 254  ARG254      0.5346
     33  NH1       39.8320   28.1160  278.4770 N.pl3 254  ARG254      0.1354
     34  NH2       38.2630   27.6880  276.8620 N.pl3 254  ARG254      0.1354
     35  N         31.1500   22.2250  282.0430 N.3   269  LYS269     -0.1245
     36  CA        30.3710   23.3770  282.4790 C.3   269  LYS269      0.1561
     37  C         28.9290   22.9330  282.7860 C.2   269  LYS269      0.2260
     38  O         28.2940   22.3120  281.9330 O.2   269  LYS269     -0.2867
     39  CB        30.3920   24.4890  281.4200 C.3   269  LYS269      0.0271
     40  CG        31.6800   25.2980  281.3890 C.3   269  LYS269      0.0035
     41  CD        31.8090   26.0980  280.1010 C.3   269  LYS269      0.0206
     42  CE        31.5690   27.5660  280.3160 C.3   269  LYS269      0.1093
     43  NZ        32.4370   28.3850  279.4340 N.3   269  LYS269     -0.1314
     44  N         32.0450   25.4390  286.7240 N.3   282  LYS282     -0.1245
     45  CA        33.0720   25.0220  285.7840 C.3   282  LYS282      0.1561
     46  C         34.0300   24.1530  286.6120 C.2   282  LYS282      0.2260
     47  O         34.4930   24.5850  287.6660 O.2   282  LYS282     -0.2867
     48  CB        33.7880   26.2400  285.1690 C.3   282  LYS282      0.0271
     49  CG        34.6840   25.8820  283.9890 C.3   282  LYS282      0.0035
     50  CD        35.3910   27.0890  283.4170 C.3   282  LYS282      0.0206
     51  CE        36.7750   26.7030  282.9670 C.3   282  LYS282      0.1093
     52  NZ        37.5120   27.8470  282.3730 N.3   282  LYS282     -0.1314
     53  N         37.1910   24.7610  269.3650 N.3   345  SER345     -0.1217
     54  CA        37.2260   26.1950  269.5290 C.3   345  SER345      0.1889
     55  C         38.6790   26.5730  269.7480 C.2   345  SER345      0.2288
     56  O         39.3690   25.9540  270.5580 O.2   345  SER345     -0.2866
     57  CB        36.3250   26.6510  270.6710 C.3   345  SER345      0.2089
     58  OG        37.0010   26.7090  271.9120 O.3   345  SER345     -0.2183
     59  N         41.3480   30.2020  269.8980 N.3   347  TYR347     -0.1241
     60  CA        41.5440   31.6380  270.0230 C.3   347  TYR347      0.1605
     61  C         42.8510   31.8840  270.7290 C.2   347  TYR347      0.2264
     62  O         43.2890   31.0190  271.4910 O.2   347  TYR347     -0.2867
     63  CB        40.3810   32.3250  270.7640 C.3   347  TYR347      0.0534
     64  CG        40.1640   31.8660  272.1880 C.ar  347  TYR347     -0.0201
     65  CD1       39.2200   30.8880  272.4880 C.ar  347  TYR347     -0.0009
     66  CD2       40.8450   32.4630  273.2460 C.ar  347  TYR347     -0.0009
     67  CE1       38.9990   30.4760  273.8030 C.ar  347  TYR347      0.0417
     68  CE2       40.6280   32.0660  274.5640 C.ar  347  TYR347      0.0417
     69  CZ        39.7020   31.0730  274.8390 C.ar  347  TYR347      0.1957
     70  OH        39.4890   30.6870  276.1400 O.3   347  TYR347     -0.2866
     71  N         44.7710   34.1640  273.5260 N.3   349  ARG349     -0.1245
     72  CA        44.4930   35.0460  274.6610 C.3   349  ARG349      0.1563
     73  C         45.7090   35.8810  275.1220 C.2   349  ARG349      0.2260
     74  O         46.7640   35.3190  275.4280 O.2   349  ARG349     -0.2867
     75  CB        43.8890   34.2490  275.8370 C.3   349  ARG349      0.0307
     76  CG        43.6470   35.0690  277.1010 C.3   349  ARG349      0.0489
     77  CD        42.8300   34.3170  278.1190 C.3   349  ARG349      0.2205
     78  NE        41.4160   34.2820  277.7460 N.pl3 349  ARG349     -0.0865
     79  CZ        40.5540   33.3630  278.1670 C.cat 349  ARG349      0.5346
     80  NH1       40.9520   32.3940  278.9850 N.pl3 349  ARG349      0.1354
     81  NH2       39.2900   33.3970  277.7660 N.pl3 349  ARG349      0.1354
     82  N         40.8230   38.1080  273.4230 N.3   365  ASP365     -0.1239
     83  CA        40.7750   36.8550  272.6790 C.3   365  ASP365      0.1674
     84  C         40.6840   37.2030  271.2180 C.2   365  ASP365      0.2266
     85  O         39.7680   37.9180  270.8050 O.2   365  ASP365     -0.2867
     86  CB        39.6080   35.9610  273.1320 C.3   365  ASP365      0.1410
     87  CG        39.7040   35.4590  274.5650 C.2   365  ASP365      0.3668
     88  OD1       38.6790   34.9700  275.0890 O.co2 365  ASP365     -0.2456
     89  OD2       40.8200   35.5160  275.1510 O.co2 365  ASP365     -0.2456
     90  N         28.5840   35.2800  274.3020 N.3   444  PHE444     -0.1227
     91  CA        28.0160   34.2640  273.4040 C.3   444  PHE444      0.1736
     92  C         28.7960   32.9550  273.6030 C.2   444  PHE444      0.2596
     93  O         29.8890   32.9810  274.1790 O.2   444  PHE444     -0.2718
     94  CB        28.0760   34.7560  271.9330 C.3   444  PHE444      0.0547
     95  CG        29.3420   34.4750  271.1440 C.ar  444  PHE444     -0.0202
     96  CD1       29.3060   33.6910  269.9950 C.ar  444  PHE444     -0.0042
     97  CD2       30.5660   35.0130  271.5390 C.ar  444  PHE444     -0.0042
     98  CE1       30.4720   33.4280  269.2700 C.ar  444  PHE444     -0.0003
     99  CE2       31.7330   34.7330  270.8240 C.ar  444  PHE444     -0.0003
    100  CZ        31.6770   33.9460  269.6920 C.ar  444  PHE444     -0.0000
    101  N         28.2430   31.8250  273.1520 N.am  445  SER445     -0.1938
    102  CA        28.8960   30.5270  273.2890 C.3   445  SER445      0.2055
    103  C         29.6150   30.1460  272.0080 C.2   445  SER445      0.2642
    104  O         29.0150   30.1570  270.9340 O.2   445  SER445     -0.2714
    105  CB        27.8860   29.4520  273.6860 C.3   445  SER445      0.2130
    106  OG        28.2810   28.1460  273.2930 O.3   445  SER445     -0.2179
    107  N         30.8980   29.7830  272.1290 N.am  446  LYS446     -0.1977
    108  CA        31.7160   29.3430  271.0050 C.3   446  LYS446      0.1596
    109  C         31.2670   27.9390  270.5390 C.2   446  LYS446      0.2287
    110  O         31.3460   27.6350  269.3440 O.2   446  LYS446     -0.2864
    111  CB        33.2030   29.4000  271.3690 C.3   446  LYS446      0.0298
    112  CG        33.7490   30.8370  271.4070 C.3   446  LYS446      0.0038
    113  CD        35.0000   31.0280  272.2720 C.3   446  LYS446      0.0206
    114  CE        35.1770   32.4960  272.5760 C.3   446  LYS446      0.1093
    115  NZ        36.3850   32.7750  273.3960 N.3   446  LYS446     -0.1314
@<TRIPOS>BOND
     1    98   100   ar
     2    98    96   ar
     3   110   109    2
     4    53    54    1
     5    54    55    1
     6    54    57    1
     7   100    99   ar
     8    55    56    2
     9    59    60    1
    10    96    95   ar
    11    60    61    1
    12    60    63    1
    13   109   108    1
    14    57    58    1
    15    61    62    2
    16    63    64    1
    17    85    84    2
    18    99    97   ar
    19   104   103    2
    20     4     3    2
    21   108   111    1
    22   108   107    1
    23    95    97   ar
    24    95    94    1
    25    84    83    1
    26   111   112    1
    27   112   113    1
    28    94    91    1
    29     1     2    1
    30   103   107   am
    31   103   102    1
    32     3     2    1
    33     5     2    1
    34     5     6    1
    35    64    65   ar
    36    64    66   ar
    37   113   114    1
    38     8     6   ar
    39     8    10   ar
    40    65    67   ar
    41   114   115    1
    42    83    86    1
    43    83    82    1
    44     6     7   ar
    45    10    11   ar
    46    86    87    1
    47   101   102    1
    48   101    92   am
    49    66    68   ar
    50   102   105    1
    51   106   105    1
    52    91    92    1
    53    91    90    1
    54    71    72    1
    55    92    93    2
    56    67    69   ar
    57     7     9   ar
    58    11     9   ar
    59    11    12    1
    60    68    69   ar
    61    87    88   ar
    62    87    89   ar
    63    72    73    1
    64    72    75    1
    65    69    70    1
    66    73    74    2
    67    75    76    1
    68    17    14    1
    69    17    18    1
    70    14    15    1
    71    14    13    1
    72    25    26    1
    73    25    24    1
    74    25    28    1
    75    26    27    2
    76    34    32    1
    77    15    16    2
    78    19    18    1
    79    19    20    1
    80    76    77    1
    81    22    21    1
    82    31    32    2
    83    31    30    1
    84    28    29    1
    85    29    30    1
    86    32    33    1
    87    78    77    1
    88    78    79    2
    89    81    79    1
    90    20    21    2
    91    79    80    1
    92    21    23    1
    93    43    42    1
    94    41    42    1
    95    41    40    1
    96    40    39    1
    97    39    36    1
    98    38    37    2
    99    35    36    1
   100    52    51    1
   101    36    37    1
   102    51    50    1
   103    50    49    1
   104    49    48    1
   105    48    45    1
   106    45    46    1
   107    45    44    1
   108    46    47    2
