@<TRIPOS>MOLECULE
tmp/5iisA00.pdb
 115 109 0 0 0
SMALL
GASTEIGER

@<TRIPOS>ATOM
      1  N        -12.9800   43.1350   -8.7130 N.3    99  PHE99      -0.1241
      2  CA       -12.6920   42.5610  -10.0480 C.3    99  PHE99       0.1605
      3  C        -13.7440   43.0480  -11.0780 C.2    99  PHE99       0.2264
      4  O        -13.3830   43.4650  -12.1810 O.2    99  PHE99      -0.2867
      5  CB       -12.6940   41.0220   -9.9760 C.3    99  PHE99       0.0534
      6  CG       -12.5760   40.3070  -11.3050 C.ar   99  PHE99      -0.0203
      7  CD1      -13.7130   40.0090  -12.0600 C.ar   99  PHE99      -0.0042
      8  CD2      -11.3350   39.9090  -11.7920 C.ar   99  PHE99      -0.0042
      9  CE1      -13.6040   39.3620  -13.2990 C.ar   99  PHE99      -0.0003
     10  CE2      -11.2290   39.2440  -13.0220 C.ar   99  PHE99      -0.0003
     11  CZ       -12.3630   38.9870  -13.7720 C.ar   99  PHE99      -0.0000
     12  N        -13.4140   46.8760  -11.7430 N.3   102  ILE102     -0.1231
     13  CA       -12.2960   47.1660  -12.6390 C.3   102  ILE102      0.1692
     14  C        -12.6400   46.7150  -14.0740 C.2   102  ILE102      0.2592
     15  O        -12.2950   47.4110  -15.0190 O.2   102  ILE102     -0.2718
     16  CB       -10.9440   46.5720  -12.1060 C.3   102  ILE102      0.0266
     17  CG1      -10.4260   47.3710  -10.8680 C.3   102  ILE102      0.0019
     18  CG2       -9.8670   46.5130  -13.2140 C.3   102  ILE102      0.0020
     19  CD1       -9.3710   46.6140   -9.9790 C.3   102  ILE102      0.0001
     20  N        -13.2900   45.5580  -14.2380 N.am  103  THR103     -0.1953
     21  CA       -13.6940   45.0690  -15.5680 C.3   103  THR103      0.1897
     22  C        -14.5990   46.1130  -16.2740 C.2   103  THR103      0.2313
     23  O        -14.3810   46.4170  -17.4480 O.2   103  THR103     -0.2863
     24  CB       -14.3640   43.6960  -15.4350 C.3   103  THR103      0.1794
     25  OG1      -13.4270   42.8100  -14.8330 O.3   103  THR103     -0.2208
     26  CG2      -14.8680   43.1220  -16.7900 C.3   103  THR103      0.0378
     27  N         -6.6780   39.8660   -3.3390 N.3   138  LYS138     -0.1231
     28  CA        -6.8390   40.0400   -4.7910 C.3   138  LYS138      0.1693
     29  C         -8.1200   40.7990   -5.0460 C.2   138  LYS138      0.2592
     30  O         -8.9720   40.8440   -4.1570 O.2   138  LYS138     -0.2718
     31  CB        -6.8660   38.6750   -5.5270 C.3   138  LYS138      0.0285
     32  CG        -7.9750   37.7140   -5.0800 C.3   138  LYS138      0.0035
     33  CD        -7.9840   36.5260   -6.0700 C.3   138  LYS138      0.0206
     34  CE        -8.9360   35.4510   -5.6320 C.3   138  LYS138      0.1093
     35  NZ        -8.9500   34.3230   -6.6130 N.3   138  LYS138     -0.1314
     36  N         -8.2920   41.3400   -6.2630 N.am  139  ASP139     -0.1960
     37  CA        -9.5130   42.1060   -6.6230 C.3   139  ASP139      0.1840
     38  C        -10.8240   41.3460   -6.3290 C.2   139  ASP139      0.2621
     39  O        -11.7610   41.9390   -5.8180 O.2   139  ASP139     -0.2715
     40  CB        -9.4420   42.5690   -8.1030 C.3   139  ASP139      0.1450
     41  CG        -9.1750   41.4740   -9.1320 C.2   139  ASP139      0.3671
     42  OD1       -9.1320   40.2720   -8.7440 O.co2 139  ASP139     -0.2456
     43  OD2       -9.0070   41.8100  -10.3120 O.co2 139  ASP139     -0.2456
     44  N        -10.8660   40.0240   -6.5900 N.am  140  GLU140     -0.1977
     45  CA       -12.0680   39.1820   -6.3570 C.3   140  GLU140      0.1602
     46  C        -12.4370   39.0360   -4.8980 C.2   140  GLU140      0.2287
     47  O        -13.6000   38.7280   -4.6000 O.2   140  GLU140     -0.2864
     48  CB       -11.8790   37.7770   -6.9480 C.3   140  GLU140      0.0415
     49  CG       -11.7870   37.7460   -8.4630 C.3   140  GLU140      0.1163
     50  CD       -11.4500   36.3710   -9.0080 C.2   140  GLU140      0.3649
     51  OE1      -12.3250   35.7700   -9.6700 O.co2 140  GLU140     -0.2457
     52  OE2      -10.3230   35.8850   -8.7590 O.co2 140  GLU140     -0.2457
     53  N         -4.1420   32.4780   -4.7030 N.3   173  THR173     -0.1218
     54  CA        -4.0800   32.6620   -6.1670 C.3   173  THR173      0.1862
     55  C         -2.6340   32.7860   -6.6510 C.2   173  THR173      0.2287
     56  O         -1.9200   33.6960   -6.2240 O.2   173  THR173     -0.2866
     57  CB        -4.9670   33.8460   -6.5520 C.3   173  THR173      0.1770
     58  OG1       -6.2570   33.6030   -5.9770 O.3   173  THR173     -0.2211
     59  CG2       -5.0830   34.0470   -8.0770 C.3   173  THR173      0.0375
     60  N         -1.1150   33.7990   -9.4740 N.3   175  VAL175     -0.1231
     61  CA        -0.7020   35.0480  -10.1370 C.3   175  VAL175      0.1692
     62  C         -0.4790   36.2130   -9.1510 C.2   175  VAL175      0.2592
     63  O          0.1200   37.2220   -9.5300 O.2   175  VAL175     -0.2718
     64  CB        -1.6170   35.4590  -11.3280 C.3   175  VAL175      0.0266
     65  CG1       -1.4030   34.5290  -12.5380 C.3   175  VAL175      0.0020
     66  CG2       -3.0930   35.5270  -10.9190 C.3   175  VAL175      0.0020
     67  N         -0.9250   36.0610   -7.8950 N.am  176  TYR176     -0.1976
     68  CA        -0.7100   37.0430   -6.8080 C.3   176  TYR176      0.1639
     69  C          0.3400   36.4990   -5.8390 C.2   176  TYR176      0.2290
     70  O          0.6670   37.1770   -4.8790 O.2   176  TYR176     -0.2864
     71  CB        -2.0100   37.2630   -6.0310 C.3   176  TYR176      0.0560
     72  CG        -2.9710   38.2210   -6.6940 C.ar  176  TYR176     -0.0198
     73  CD1       -3.8050   37.7990   -7.7340 C.ar  176  TYR176     -0.0009
     74  CD2       -3.0710   39.5460   -6.2670 C.ar  176  TYR176     -0.0009
     75  CE1       -4.6680   38.6900   -8.3720 C.ar  176  TYR176      0.0417
     76  CE2       -3.9490   40.4360   -6.8790 C.ar  176  TYR176      0.0417
     77  CZ        -4.7440   40.0030   -7.9310 C.ar  176  TYR176      0.1957
     78  OH        -5.6440   40.8690   -8.4860 O.3   176  TYR176     -0.2866
     79  N         -2.8610   46.1490  -10.6620 N.3   203  ASP203     -0.1239
     80  CA        -4.1510   45.7690  -11.2330 C.3   203  ASP203      0.1674
     81  C         -5.1410   46.9420  -11.2440 C.2   203  ASP203      0.2266
     82  O         -5.8400   47.1630  -12.2350 O.2   203  ASP203     -0.2867
     83  CB        -4.7380   44.6040  -10.4270 C.3   203  ASP203      0.1410
     84  CG        -6.0810   44.1380  -10.9790 C.2   203  ASP203      0.3668
     85  OD1       -6.1510   43.8240  -12.1920 O.co2 203  ASP203     -0.2456
     86  OD2       -7.0390   44.0660  -10.2030 O.co2 203  ASP203     -0.2456
     87  N         -5.5690   48.1160  -14.8360 N.3   207  GLY207     -0.1210
     88  CA        -6.7640   47.3990  -15.2710 C.3   207  GLY207      0.1956
     89  C         -6.5370   45.9250  -15.5470 C.2   207  GLY207      0.2612
     90  O         -7.4280   45.2620  -16.0670 O.2   207  GLY207     -0.2717
     91  N         -5.3440   45.3980  -15.2340 N.am  208  ASP208     -0.1959
     92  CA        -5.0080   43.9680  -15.3900 C.3   208  ASP208      0.1840
     93  C         -3.7820   43.6690  -14.5520 C.2   208  ASP208      0.2621
     94  O         -3.0770   44.5910  -14.1750 O.2   208  ASP208     -0.2715
     95  CB        -4.7490   43.5750  -16.8560 C.3   208  ASP208      0.1450
     96  CG        -4.9980   42.1000  -17.1920 C.2   208  ASP208      0.3671
     97  OD1       -5.4200   41.3250  -16.2740 O.co2 208  ASP208     -0.2456
     98  OD2       -4.7840   41.7170  -18.3630 O.co2 208  ASP208     -0.2456
     99  N         -3.5320   42.3970  -14.2510 N.am  209  ILE209     -0.1977
    100  CA        -2.3860   41.9870  -13.4300 C.3   209  ILE209      0.1596
    101  C         -1.0810   42.0730  -14.2250 C.2   209  ILE209      0.2287
    102  O         -1.1290   41.9990  -15.4600 O.2   209  ILE209     -0.2864
    103  CB        -2.6120   40.5900  -12.8100 C.3   209  ILE209      0.0276
    104  CG1       -2.9830   39.5510  -13.9030 C.3   209  ILE209      0.0022
    105  CG2       -3.6300   40.6680  -11.6630 C.3   209  ILE209      0.0022
    106  CD1       -3.0390   38.1230  -13.4200 C.3   209  ILE209      0.0001
    107  N          1.4530   36.8190  -15.7360 N.3   212  GLU212     -0.1245
    108  CA         0.5440   35.6970  -15.9900 C.3   212  GLU212      0.1567
    109  C          1.2310   34.3520  -15.7610 C.2   212  GLU212      0.2260
    110  O          0.5880   33.4070  -15.3010 O.2   212  GLU212     -0.2867
    111  CB        -0.0270   35.7710  -17.4150 C.3   212  GLU212      0.0388
    112  CG        -1.1350   36.8140  -17.5790 C.3   212  GLU212      0.1160
    113  CD        -2.4730   36.5610  -16.8950 C.2   212  GLU212      0.3649
    114  OE1       -2.7430   35.4070  -16.4880 O.co2 212  GLU212     -0.2457
    115  OE2       -3.2660   37.5250  -16.7920 O.co2 212  GLU212     -0.2457
@<TRIPOS>BOND
     1    98    96   ar
     2   112   111    1
     3   112   113    1
     4    23    22    2
     5   111   108    1
     6    96    95    1
     7    96    97   ar
     8   113   115   ar
     9   113   114   ar
    10    95    92    1
    11    26    24    1
    12    22    21    1
    13    90    89    2
    14   108   109    1
    15   108   107    1
    16   109   110    2
    17    21    24    1
    18    21    20    1
    19    89    88    1
    20    89    91   am
    21   102   101    2
    22    24    25    1
    23    92    91    1
    24    92    93    1
    25    88    87    1
    26    15    14    2
    27    93    99   am
    28    93    94    2
    29    99   100    1
    30    20    14   am
    31   101   100    1
    32    14    13    1
    33   104   106    1
    34   104   103    1
    35    11     9   ar
    36    11    10   ar
    37   100   103    1
    38     9     7   ar
    39    18    16    1
    40    10     8   ar
    41   103   105    1
    42    13    16    1
    43    13    12    1
    44    65    64    1
    45    82    81    2
    46    85    84   ar
    47     4     3    2
    48    16    17    1
    49     7     6   ar
    50     8     6   ar
    51    64    66    1
    52    64    61    1
    53     6     5    1
    54    81    80    1
    55    80    79    1
    56    80    83    1
    57     3     2    1
    58    84    83    1
    59    84    86   ar
    60    17    19    1
    61    43    41   ar
    62    61    60    1
    63    61    62    1
    64     2     5    1
    65     2     1    1
    66    51    50   ar
    67    63    62    2
    68    62    67   am
    69    41    42   ar
    70    41    40    1
    71    50    52   ar
    72    50    49    1
    73    78    77    1
    74    49    48    1
    75    75    77   ar
    76    75    73   ar
    77    40    37    1
    78    59    57    1
    79    77    76   ar
    80    67    68    1
    81    73    72   ar
    82    48    45    1
    83    76    74   ar
    84    68    71    1
    85    68    69    1
    86    72    74   ar
    87    72    71    1
    88    55    56    2
    89    55    54    1
    90    37    38    1
    91    37    36    1
    92    35    34    1
    93    44    45    1
    94    44    38   am
    95    57    54    1
    96    57    58    1
    97    45    46    1
    98    38    39    2
    99    36    29   am
   100    54    53    1
   101    33    34    1
   102    33    32    1
   103    69    70    2
   104    31    32    1
   105    31    28    1
   106    29    28    1
   107    29    30    2
   108    46    47    2
   109    28    27    1
