@<TRIPOS>MOLECULE
tmp/5iisA01.pdb
 169 158 0 0 0
SMALL
GASTEIGER

@<TRIPOS>ATOM
      1  N        -25.0900   33.6610   -5.4010 N.3    13  LEU13      -0.1231
      2  CA       -24.2550   34.8110   -5.7940 C.3    13  LEU13       0.1693
      3  C        -23.0660   34.3250   -6.6040 C.2    13  LEU13       0.2592
      4  O        -22.6640   34.9680   -7.5610 O.2    13  LEU13      -0.2718
      5  CB       -23.7880   35.6270   -4.5720 C.3    13  LEU13       0.0284
      6  CG       -24.8620   36.3980   -3.7830 C.3    13  LEU13       0.0019
      7  CD1      -24.3190   36.8650   -2.4320 C.3    13  LEU13       0.0001
      8  CD2      -25.3780   37.6130   -4.5680 C.3    13  LEU13       0.0001
      9  N        -22.5100   33.1870   -6.2270 N.am   14  GLY14      -0.1957
     10  CA       -21.3760   32.6120   -6.9380 C.3    14  GLY14       0.1869
     11  C        -20.8620   31.3780   -6.2530 C.2    14  GLY14       0.2309
     12  O        -21.2380   31.0980   -5.1150 O.2    14  GLY14      -0.2863
     13  N        -13.8410   28.0590   -3.1850 N.3    18  PHE18      -0.1241
     14  CA       -14.2410   28.5100   -1.8510 C.3    18  PHE18       0.1605
     15  C        -15.5670   27.8940   -1.3180 C.2    18  PHE18       0.2264
     16  O        -15.8800   28.0590   -0.1400 O.2    18  PHE18      -0.2867
     17  CB       -14.3930   30.0290   -1.8800 C.3    18  PHE18       0.0534
     18  CG       -15.3260   30.5750   -2.9440 C.ar   18  PHE18      -0.0203
     19  CD1      -16.6960   30.6790   -2.7050 C.ar   18  PHE18      -0.0042
     20  CD2      -14.8230   31.0800   -4.1400 C.ar   18  PHE18      -0.0042
     21  CE1      -17.5500   31.2320   -3.6660 C.ar   18  PHE18      -0.0003
     22  CE2      -15.6770   31.6290   -5.1050 C.ar   18  PHE18      -0.0003
     23  CZ       -17.0330   31.7200   -4.8540 C.ar   18  PHE18      -0.0000
     24  N        -21.8550   30.4960   -2.3670 N.3    21  VAL21      -0.1245
     25  CA       -22.3420   31.6490   -1.6120 C.3    21  VAL21       0.1561
     26  C        -23.6880   32.1110   -2.1520 C.2    21  VAL21       0.2260
     27  O        -23.7870   32.4220   -3.3340 O.2    21  VAL21      -0.2867
     28  CB       -21.3140   32.8190   -1.5930 C.3    21  VAL21       0.0252
     29  CG1      -21.8690   34.0110   -0.8210 C.3    21  VAL21       0.0019
     30  CG2      -19.9720   32.3690   -1.0050 C.3    21  VAL21       0.0019
     31  N        -25.0200   37.0350    3.5480 N.3    34  ALA34      -0.1245
     32  CA       -24.4760   36.1470    2.5350 C.3    34  ALA34       0.1562
     33  C        -24.3250   34.8300    3.2460 C.2    34  ALA34       0.2260
     34  O        -23.8880   34.8010    4.3840 O.2    34  ALA34      -0.2867
     35  CB       -23.1330   36.6480    2.0200 C.3    34  ALA34       0.0290
     36  N        -22.7120   31.2270    3.1220 N.3    36  LYS36      -0.1245
     37  CA       -21.6390   30.4790    2.4870 C.3    36  LYS36       0.1561
     38  C        -21.6280   29.0430    2.9610 C.2    36  LYS36       0.2260
     39  O        -21.5720   28.8020    4.1630 O.2    36  LYS36      -0.2867
     40  CB       -20.2810   31.1760    2.7730 C.3    36  LYS36       0.0271
     41  CG       -19.0670   30.4680    2.1740 C.3    36  LYS36       0.0035
     42  CD       -17.7740   31.2500    2.4830 C.3    36  LYS36       0.0206
     43  CE       -16.5430   30.5120    2.0180 C.3    36  LYS36       0.1093
     44  NZ       -15.3270   31.3710    2.0460 N.3    36  LYS36      -0.1314
     45  N        -11.4600   29.6280    8.2700 N.3    58  GLU58      -0.1245
     46  CA       -12.1860   30.8940    8.1220 C.3    58  GLU58       0.1567
     47  C        -12.9760   31.2800    9.3600 C.2    58  GLU58       0.2260
     48  O        -13.0130   32.4580    9.6830 O.2    58  GLU58      -0.2867
     49  CB       -13.0880   30.9090    6.8660 C.3    58  GLU58       0.0388
     50  CG       -13.6680   32.2890    6.5630 C.3    58  GLU58       0.1160
     51  CD       -14.3530   32.4940    5.2240 C.2    58  GLU58       0.3649
     52  OE1      -14.9310   31.5090    4.7140 O.co2  58  GLU58      -0.2457
     53  OE2      -14.3310   33.6340    4.6960 O.co2  58  GLU58      -0.2457
     54  N        -15.0070   41.7320    6.3710 N.3    73  ILE73      -0.1245
     55  CA       -16.3600   41.1600    6.3770 C.3    73  ILE73       0.1561
     56  C        -16.6730   40.5590    7.7860 C.2    73  ILE73       0.2260
     57  O        -15.8070   39.9300    8.4030 O.2    73  ILE73      -0.2867
     58  CB       -16.5110   40.1310    5.2160 C.3    73  ILE73       0.0252
     59  CG1      -17.9950   39.9860    4.7900 C.3    73  ILE73       0.0019
     60  CG2      -15.8160   38.7430    5.5100 C.3    73  ILE73       0.0019
     61  CD1      -18.5200   41.2630    3.9890 C.3    73  ILE73       0.0001
     62  N        -22.5880   35.6300    6.7590 N.3    89  LEU89      -0.1231
     63  CA       -21.7050   36.7800    6.7030 C.3    89  LEU89       0.1693
     64  C        -22.4780   38.0260    6.3960 C.2    89  LEU89       0.2592
     65  O        -23.5720   37.9580    5.8500 O.2    89  LEU89      -0.2718
     66  CB       -20.6310   36.5370    5.6030 C.3    89  LEU89       0.0284
     67  CG       -19.7580   35.2790    5.7790 C.3    89  LEU89       0.0019
     68  CD1      -19.2900   34.7190    4.4350 C.3    89  LEU89       0.0001
     69  CD2      -18.5590   35.5690    6.6420 C.3    89  LEU89       0.0001
     70  N        -21.8700   39.1750    6.6960 N.am   90  GLU90      -0.1966
     71  CA       -22.3830   40.4910    6.3740 C.3    90  GLU90       0.1733
     72  C        -22.5360   40.5820    4.8520 C.2    90  GLU90       0.2616
     73  O        -21.7500   39.9760    4.1170 O.2    90  GLU90      -0.2715
     74  CB       -21.3310   41.5070    6.8530 C.3    90  GLU90       0.0429
     75  CG       -21.5190   42.9470    6.4160 C.3    90  GLU90       0.1163
     76  CD       -20.3110   43.8270    6.6770 C.2    90  GLU90       0.3649
     77  OE1      -19.2930   43.3130    7.1990 O.co2  90  GLU90      -0.2457
     78  OE2      -20.3890   45.0400    6.3700 O.co2  90  GLU90      -0.2457
     79  N        -23.5360   41.3340    4.3810 N.am   91  ARG91      -0.1964
     80  CA       -23.7210   41.6060    2.9560 C.3    91  ARG91       0.1714
     81  C        -24.0840   43.0650    2.7800 C.2    91  ARG91       0.2458
     82  O        -25.2400   43.4160    2.9900 O.2    91  ARG91      -0.2730
     83  CB       -24.7610   40.6880    2.2800 C.3    91  ARG91       0.0347
     84  CG       -25.0050   41.0230    0.7870 C.3    91  ARG91       0.0492
     85  CD       -25.8650   40.0020    0.0490 C.3    91  ARG91       0.2205
     86  NE       -27.2110   39.8400    0.6240 N.pl3  91  ARG91      -0.0865
     87  CZ       -28.2780   40.5520    0.2690 C.cat  91  ARG91       0.5346
     88  NH1      -29.4610   40.2970    0.8060 N.pl3  91  ARG91       0.1354
     89  NH2      -28.1720   41.5100   -0.6450 N.pl3  91  ARG91       0.1354
     90  N        -23.1290   43.9290    2.3530 N.am   92  PRO92      -0.2727
     91  CA       -23.4840   45.3320    2.0570 C.3    92  PRO92       0.1402
     92  C        -24.3880   45.3320    0.8180 C.2    92  PRO92       0.2269
     93  O        -24.3490   44.3890    0.0130 O.2    92  PRO92      -0.2865
     94  CB       -22.1260   45.9940    1.7440 C.3    92  PRO92       0.0296
     95  CG       -21.0650   44.9900    2.2150 C.3    92  PRO92       0.0237
     96  CD       -21.7120   43.6530    2.0250 C.3    92  PRO92       0.0939
     97  N        -23.6280   46.3080   -3.5590 N.3    95  VAL95      -0.1231
     98  CA       -22.2370   45.8840   -3.4360 C.3    95  VAL95       0.1692
     99  C        -21.7220   45.4600   -4.8050 C.2    95  VAL95       0.2592
    100  O        -22.5130   45.0550   -5.6670 O.2    95  VAL95      -0.2718
    101  CB       -22.0960   44.7540   -2.3560 C.3    95  VAL95       0.0266
    102  CG1      -22.6240   43.4130   -2.8680 C.3    95  VAL95       0.0020
    103  CG2      -20.6610   44.6080   -1.8530 C.3    95  VAL95       0.0020
    104  N        -20.3950   45.5440   -4.9960 N.am   96  GLN96      -0.1966
    105  CA       -19.7200   45.0450   -6.1970 C.3    96  GLN96       0.1733
    106  C        -18.3110   44.6470   -5.8170 C.2    96  GLN96       0.2616
    107  O        -17.6450   45.4150   -5.1280 O.2    96  GLN96      -0.2715
    108  CB       -19.6710   46.0950   -7.3060 C.3    96  GLN96       0.0408
    109  CG       -19.2160   45.5060   -8.6510 C.3    96  GLN96       0.0908
    110  CD       -19.2810   46.5280   -9.7610 C.2    96  GLN96       0.2608
    111  OE1      -19.0190   47.7090   -9.5500 O.2    96  GLN96      -0.2717
    112  NE2      -19.6270   46.0920  -10.9680 N.am   96  GLN96      -0.0878
    113  N        -17.8370   43.4800   -6.2750 N.am   97  ASP97      -0.1971
    114  CA       -16.4550   43.1320   -5.9680 C.3    97  ASP97       0.1709
    115  C        -15.5350   43.9810   -6.8490 C.2    97  ASP97       0.2293
    116  O        -15.9630   44.4700   -7.9150 O.2    97  ASP97      -0.2864
    117  CB       -16.1790   41.6200   -6.0610 C.3    97  ASP97       0.1436
    118  CG       -16.2430   41.0130   -7.4490 C.2    97  ASP97       0.3671
    119  OD1      -15.4650   41.4370   -8.3170 O.co2  97  ASP97      -0.2456
    120  OD2      -16.9730   40.0310   -7.6260 O.co2  97  ASP97      -0.2456
    121  N        -15.0350   42.9660  -10.7180 N.3   100  ASP100     -0.1239
    122  CA       -16.1340   43.3960  -11.6030 C.3   100  ASP100      0.1674
    123  C        -16.1030   44.8800  -11.8080 C.2   100  ASP100      0.2266
    124  O        -16.3410   45.3510  -12.9140 O.2   100  ASP100     -0.2867
    125  CB       -17.4950   42.9750  -11.0280 C.3   100  ASP100      0.1410
    126  CG       -17.7830   41.4920  -11.1410 C.2   100  ASP100      0.3668
    127  OD1      -17.0910   40.8040  -11.9410 O.co2 100  ASP100     -0.2456
    128  OD2      -18.6760   41.0110  -10.4230 O.co2 100  ASP100     -0.2456
    129  N        -10.8660   40.0240   -6.5900 N.3   140  GLU140     -0.1231
    130  CA       -12.0680   39.1820   -6.3570 C.3   140  GLU140      0.1699
    131  C        -12.4370   39.0360   -4.8980 C.2   140  GLU140      0.2592
    132  O        -13.6000   38.7280   -4.6000 O.2   140  GLU140     -0.2718
    133  CB       -11.8790   37.7770   -6.9480 C.3   140  GLU140      0.0402
    134  CG       -11.7870   37.7460   -8.4630 C.3   140  GLU140      0.1161
    135  CD       -11.4500   36.3710   -9.0080 C.2   140  GLU140      0.3649
    136  OE1      -12.3250   35.7700   -9.6700 O.co2 140  GLU140     -0.2457
    137  OE2      -10.3230   35.8850   -8.7590 O.co2 140  GLU140     -0.2457
    138  N        -11.4600   39.2210   -3.9810 N.am  141  ASN141     -0.1974
    139  CA       -11.7040   39.0890   -2.5270 C.3   141  ASN141      0.1688
    140  C        -11.8880   40.4270   -1.8360 C.2   141  ASN141      0.2292
    141  O        -11.7720   40.5320   -0.6110 O.2   141  ASN141     -0.2864
    142  CB       -10.6000   38.2480   -1.8870 C.3   141  ASN141      0.1181
    143  CG       -10.7480   36.8160   -2.3050 C.2   141  ASN141      0.2629
    144  OD1      -11.8400   36.3960   -2.7020 O.2   141  ASN141     -0.2716
    145  ND2       -9.6800   36.0280   -2.2620 N.am  141  ASN141     -0.0877
    146  N        -14.6600   43.6180   -1.5640 N.3   143  LEU143     -0.1245
    147  CA       -15.9930   44.1260   -1.8830 C.3   143  LEU143      0.1561
    148  C        -16.0550   45.5990   -1.6990 C.2   143  LEU143      0.2260
    149  O        -15.4510   46.1320   -0.7590 O.2   143  LEU143     -0.2867
    150  CB       -17.0680   43.4830   -1.0120 C.3   143  LEU143      0.0270
    151  CG       -17.2130   41.9680   -1.1030 C.3   143  LEU143      0.0019
    152  CD1      -18.4110   41.5050   -0.2560 C.3   143  LEU143      0.0001
    153  CD2      -17.4210   41.5270   -2.5440 C.3   143  LEU143      0.0001
    154  N        -12.8730   39.8510    1.9520 N.3   154  ILE154     -0.1231
    155  CA       -13.6900   38.6400    2.1090 C.3   154  ILE154      0.1692
    156  C        -12.7910   37.4290    1.8430 C.2   154  ILE154      0.2592
    157  O        -11.6400   37.5820    1.4070 O.2   154  ILE154     -0.2718
    158  CB       -14.9700   38.6420    1.2060 C.3   154  ILE154      0.0266
    159  CG1      -14.5940   38.7820   -0.2930 C.3   154  ILE154      0.0019
    160  CG2      -15.9090   39.7650    1.6360 C.3   154  ILE154      0.0020
    161  CD1      -15.6600   38.3300   -1.3380 C.3   154  ILE154      0.0001
    162  N        -13.3370   36.2360    2.0780 N.am  155  ASP155     -0.1974
    163  CA       -12.7020   34.9390    1.8420 C.3   155  ASP155      0.1709
    164  C        -11.4380   34.7130    2.6450 C.2   155  ASP155      0.2293
    165  O        -10.3290   34.8280    2.1230 O.2   155  ASP155     -0.2864
    166  CB       -12.4440   34.6660    0.3500 C.3   155  ASP155      0.1436
    167  CG       -11.9780   33.2330    0.0580 C.2   155  ASP155      0.3671
    168  OD1      -12.1310   32.3610    0.9410 O.co2 155  ASP155     -0.2456
    169  OD2      -11.5770   32.9700   -1.0770 O.co2 155  ASP155     -0.2456
@<TRIPOS>BOND
     1   124   123    2
     2   127   126   ar
     3   123   122    1
     4   122   125    1
     5   122   121    1
     6   126   125    1
     7   126   128   ar
     8   112   110   am
     9   110   111    2
    10   110   109    1
    11   136   135   ar
    12   135   137   ar
    13   135   134    1
    14   109   108    1
    15   134   133    1
    16   119   118   ar
    17   116   115    2
    18   120   118   ar
    19     4     3    2
    20   118   117    1
    21   108   105    1
    22   133   130    1
    23    10    11    1
    24    10     9    1
    25   115   114    1
    26     3     9   am
    27     3     2    1
    28   129   130    1
    29   130   131    1
    30   113   114    1
    31   113   106   am
    32    11    12    2
    33   105   106    1
    34   105   104    1
    35   117   114    1
    36   106   107    2
    37     2     1    1
    38     2     5    1
    39   100    99    2
    40    22    23   ar
    41    22    20   ar
    42   104    99   am
    43   131   132    2
    44   131   138   am
    45    23    21   ar
    46    99    98    1
    47     5     6    1
    48     8     6    1
    49    20    18   ar
    50   138   139    1
    51     6     7    1
    52    21    19   ar
    53    97    98    1
    54    98   101    1
    55    27    26    2
    56    13    14    1
    57    18    19   ar
    58    18    17    1
    59   102   101    1
    60   144   143    2
    61   153   151    1
    62   139   142    1
    63   139   140    1
    64    24    25    1
    65   101   103    1
    66   143   145   am
    67   143   142    1
    68    26    25    1
    69   147   148    1
    70   147   146    1
    71   147   150    1
    72    17    14    1
    73    14    15    1
    74   140   141    2
    75   148   149    2
    76    25    28    1
    77    28    30    1
    78    28    29    1
    79   161   159    1
    80    15    16    2
    81   151   150    1
    82   151   152    1
    83   169   167   ar
    84    89    87    1
    85   159   158    1
    86    93    92    2
    87    85    86    1
    88    85    84    1
    89   167   166    1
    90   167   168   ar
    91    87    86    2
    92    87    88    1
    93   166   163    1
    94    84    83    1
    95    92    91    1
    96   158   160    1
    97   158   155    1
    98   157   156    2
    99    94    91    1
   100    94    95    1
   101   163   162    1
   102   163   164    1
   103   156   162   am
   104   156   155    1
   105   154   155    1
   106    43    44    1
   107    43    42    1
   108    35    32    1
   109    96    95    1
   110    96    90    1
   111    91    90    1
   112   165   164    2
   113    41    42    1
   114    41    40    1
   115    83    80    1
   116    90    81   am
   117    37    40    1
   118    37    38    1
   119    37    36    1
   120    32    33    1
   121    32    31    1
   122    81    80    1
   123    81    82    2
   124    80    79    1
   125    38    39    2
   126    33    34    2
   127    61    59    1
   128    73    72    2
   129    79    72   am
   130    68    67    1
   131    53    51   ar
   132    52    51   ar
   133    59    58    1
   134    72    71    1
   135    58    60    1
   136    58    55    1
   137    51    50    1
   138    66    67    1
   139    66    63    1
   140    67    69    1
   141    65    64    2
   142    78    76   ar
   143    54    55    1
   144    71    70    1
   145    71    74    1
   146    55    56    1
   147    64    70   am
   148    64    63    1
   149    75    76    1
   150    75    74    1
   151    50    49    1
   152    76    77   ar
   153    63    62    1
   154    49    46    1
   155    56    57    2
   156    46    45    1
   157    46    47    1
   158    47    48    2
