@<TRIPOS>MOLECULE
tmp/5iitC00.pdb
 94 90 0 0 0
SMALL
GASTEIGER

@<TRIPOS>ATOM
      1  N        -49.0310    4.5110  -13.7550 N.3   204  PRO204     -0.2102
      2  CA       -48.0320    3.6720  -14.4250 C.3   204  PRO204      0.1504
      3  C        -46.9130    3.2870  -13.4670 C.2   204  PRO204      0.2576
      4  O        -46.3580    4.1430  -12.7980 O.2   204  PRO204     -0.2718
      5  CB       -47.5080    4.5620  -15.5590 C.3   204  PRO204      0.0282
      6  CG       -47.8350    5.9550  -15.1550 C.3   204  PRO204      0.0208
      7  CD       -49.0400    5.8970  -14.2550 C.3   204  PRO204      0.0893
      8  N        -46.5850    2.0060  -13.3960 N.am  205  THR205     -0.1939
      9  CA       -45.5930    1.5580  -12.4400 C.3   205  THR205      0.2028
     10  C        -44.7450    0.4430  -13.0380 C.2   205  THR205      0.2642
     11  O        -44.7490    0.2230  -14.2510 O.2   205  THR205     -0.2714
     12  CB       -46.2630    1.0790  -11.1240 C.3   205  THR205      0.1808
     13  OG1      -45.2610    0.7420  -10.1580 O.3   205  THR205     -0.2208
     14  CG2      -47.1580   -0.1260  -11.3720 C.3   205  THR205      0.0379
     15  N        -44.0090   -0.2510  -12.1820 N.am  206  ASN206     -0.1971
     16  CA       -43.2040   -1.3780  -12.6110 C.3   206  ASN206      0.1688
     17  C        -43.7380   -2.6580  -11.9890 C.2   206  ASN206      0.2292
     18  O        -44.8060   -2.6550  -11.3750 O.2   206  ASN206     -0.2864
     19  CB       -41.7290   -1.1520  -12.2530 C.3   206  ASN206      0.1181
     20  CG       -41.4890   -1.0690  -10.7480 C.2   206  ASN206      0.2629
     21  OD1      -42.4180   -1.1610   -9.9450 O.2   206  ASN206     -0.2716
     22  ND2      -40.2300   -0.8980  -10.3660 N.am  206  ASN206     -0.0877
     23  N        -43.7790    0.1390   -7.7340 N.3   210  TYR210     -0.1241
     24  CA       -43.0270    1.3210   -7.3270 C.3   210  TYR210      0.1605
     25  C        -43.8720    2.6030   -7.3820 C.2   210  TYR210      0.2264
     26  O        -44.5920    2.8490   -8.3540 O.2   210  TYR210     -0.2867
     27  CB       -41.7790    1.4640   -8.1990 C.3   210  TYR210      0.0534
     28  CG       -40.9770    2.7040   -7.9170 C.ar  210  TYR210     -0.0201
     29  CD1      -40.2350    2.8240   -6.7480 C.ar  210  TYR210     -0.0009
     30  CD2      -40.9410    3.7480   -8.8300 C.ar  210  TYR210     -0.0009
     31  CE1      -39.4970    3.9560   -6.4880 C.ar  210  TYR210      0.0417
     32  CE2      -40.1960    4.8860   -8.5800 C.ar  210  TYR210      0.0417
     33  CZ       -39.4760    4.9810   -7.4070 C.ar  210  TYR210      0.1957
     34  OH       -38.7400    6.1120   -7.1450 O.3   210  TYR210     -0.2866
     35  N        -42.6540    7.5200   -8.7390 N.3   213  GLY213     -0.1210
     36  CA       -42.6350    8.1200  -10.0650 C.3   213  GLY213      0.1956
     37  C        -43.3920    9.4340  -10.1220 C.2   213  GLY213      0.2611
     38  O        -43.9390    9.8760   -9.1110 O.2   213  GLY213     -0.2717
     39  N        -43.4210   10.0640  -11.2960 N.am  214  GLU214     -0.1979
     40  CA       -44.0850   11.3610  -11.4590 C.3   214  GLU214      0.1602
     41  C        -45.5410   11.3190  -10.9900 C.2   214  GLU214      0.2287
     42  O        -45.9440   12.0970  -10.1260 O.2   214  GLU214     -0.2864
     43  CB       -44.0000   11.8310  -12.9170 C.3   214  GLU214      0.0415
     44  CG       -44.4350   13.2780  -13.1260 C.3   214  GLU214      0.1163
     45  CD       -43.4370   14.2810  -12.5620 C.2   214  GLU214      0.3649
     46  OE1      -42.2520   13.9190  -12.3930 O.co2 214  GLU214     -0.2457
     47  OE2      -43.8420   15.4300  -12.2830 O.co2 214  GLU214     -0.2457
     48  N        -46.4720   -0.9040  -17.9290 N.3   264  SER264     -0.1217
     49  CA       -46.2680   -0.7400  -19.3600 C.3   264  SER264      0.1889
     50  C        -44.9660   -1.4020  -19.7880 C.2   264  SER264      0.2288
     51  O        -44.0220   -1.4680  -19.0110 O.2   264  SER264     -0.2866
     52  CB       -46.2610    0.7490  -19.7210 C.3   264  SER264      0.2089
     53  OG       -45.7350    0.9690  -21.0160 O.3   264  SER264     -0.2183
     54  N        -49.8400   10.0450  -19.9370 N.3   299  SER299     -0.1202
     55  CA       -49.3470    9.4260  -21.1690 C.3   299  SER299      0.2020
     56  C        -48.3930    8.2790  -20.8600 C.2   299  SER299      0.2619
     57  O        -47.1890    8.4780  -20.7130 O.2   299  SER299     -0.2717
     58  CB       -48.6620   10.4510  -22.0740 C.3   299  SER299      0.2103
     59  OG       -48.5520    9.9440  -23.3970 O.3   299  SER299     -0.2182
     60  N        -48.9470    7.0770  -20.7530 N.am  300  ILE300     -0.1965
     61  CA       -48.1580    5.8990  -20.4260 C.3   300  ILE300      0.1727
     62  C        -47.2180    5.5050  -21.5660 C.2   300  ILE300      0.2616
     63  O        -47.5450    5.6790  -22.7400 O.2   300  ILE300     -0.2715
     64  CB       -49.0590    4.6930  -20.0600 C.3   300  ILE300      0.0290
     65  CG1      -50.0270    4.3510  -21.1900 C.3   300  ILE300      0.0022
     66  CG2      -49.8480    4.9870  -18.7980 C.3   300  ILE300      0.0023
     67  CD1      -50.7640    3.0510  -20.9480 C.3   300  ILE300      0.0001
     68  N        -46.0440    4.9920  -21.2070 N.am  301  GLY301     -0.1955
     69  CA       -45.0830    4.5130  -22.1820 C.3   301  GLY301      0.1869
     70  C        -44.0620    5.5560  -22.5950 C.2   301  GLY301      0.2309
     71  O        -42.8780    5.2470  -22.7600 O.2   301  GLY301     -0.2863
     72  N        -43.0110    8.0350  -20.9080 N.3   303  GLY303     -0.1210
     73  CA       -42.1960    8.4820  -19.7900 C.3   303  GLY303      0.1956
     74  C        -40.8260    7.8270  -19.7540 C.2   303  GLY303      0.2612
     75  O        -40.0460    7.9210  -20.7040 O.2   303  GLY303     -0.2717
     76  N        -40.5290    7.1750  -18.6360 N.am  304  ARG304     -0.1965
     77  CA       -39.2730    6.4660  -18.4700 C.3   304  ARG304      0.1729
     78  C        -39.2350    5.1750  -19.2810 C.2   304  ARG304      0.2616
     79  O        -38.1760    4.5820  -19.4530 O.2   304  ARG304     -0.2715
     80  CB       -39.0320    6.1540  -16.9940 C.3   304  ARG304      0.0348
     81  CG       -38.6990    7.3610  -16.1290 C.3   304  ARG304      0.0492
     82  CD       -38.5730    6.9210  -14.6810 C.3   304  ARG304      0.2205
     83  NE       -38.2030    7.9960  -13.7670 N.pl3 304  ARG304     -0.0865
     84  CZ       -39.0000    8.4830  -12.8210 C.cat 304  ARG304      0.5346
     85  NH1      -40.2210    7.9920  -12.6630 N.pl3 304  ARG304      0.1354
     86  NH2      -38.5750    9.4600  -12.0290 N.pl3 304  ARG304      0.1354
     87  N        -40.3900    4.7190  -19.7540 N.am  305  ASN305     -0.1972
     88  CA       -40.4140    3.5180  -20.5820 C.3   305  ASN305      0.1688
     89  C        -39.9530    3.7700  -22.0190 C.2   305  ASN305      0.2292
     90  O        -39.7750    2.8300  -22.7910 O.2   305  ASN305     -0.2864
     91  CB       -41.8030    2.8840  -20.5570 C.3   305  ASN305      0.1181
     92  CG       -42.0670    2.1390  -19.2600 C.2   305  ASN305      0.2629
     93  OD1      -41.5260    2.4920  -18.2130 O.2   305  ASN305     -0.2716
     94  ND2      -42.8730    1.0890  -19.3280 N.am  305  ASN305     -0.0877
@<TRIPOS>BOND
     1    59    58    1
     2    90    89    2
     3    71    70    2
     4    63    62    2
     5    70    69    1
     6    69    68    1
     7    58    55    1
     8    89    88    1
     9    62    68   am
    10    62    61    1
    11    65    67    1
    12    65    64    1
    13    55    56    1
    14    55    54    1
    15    53    52    1
    16    72    73    1
    17    56    60   am
    18    56    57    2
    19    60    61    1
    20    75    74    2
    21    88    91    1
    22    88    87    1
    23    91    92    1
    24    61    64    1
    25    64    66    1
    26    73    74    1
    27    50    49    1
    28    50    51    2
    29    74    76   am
    30    87    78   am
    31    52    49    1
    32    79    78    2
    33    49    48    1
    34    94    92   am
    35    78    77    1
    36    92    93    2
    37    76    77    1
    38    77    80    1
    39    80    81    1
    40    81    82    1
    41     5     6    1
    42     5     2    1
    43     6     7    1
    44    82    83    1
    45     2     1    1
    46     2     3    1
    47     7     1    1
    48    11    10    2
    49    83    84    2
    50     3     8   am
    51     3     4    2
    52     8     9    1
    53    44    43    1
    54    44    45    1
    55    10     9    1
    56    10    15   am
    57    43    40    1
    58    84    85    1
    59    84    86    1
    60    16    19    1
    61    16    15    1
    62    16    17    1
    63    45    46   ar
    64    45    47   ar
    65     9    12    1
    66    19    20    1
    67    17    18    2
    68    40    39    1
    69    40    41    1
    70    14    12    1
    71    39    37   am
    72    12    13    1
    73    41    42    2
    74    20    22   am
    75    20    21    2
    76    37    36    1
    77    37    38    2
    78    36    35    1
    79    30    32   ar
    80    30    28   ar
    81    32    33   ar
    82    26    25    2
    83    27    28    1
    84    27    24    1
    85    28    29   ar
    86    23    24    1
    87    33    34    1
    88    33    31   ar
    89    25    24    1
    90    29    31   ar
