@<TRIPOS>MOLECULE
tmp/5ij2A00.pdb
 96 95 0 0 0
SMALL
GASTEIGER

@<TRIPOS>ATOM
      1  N         14.7920    6.5880    0.3280 N.3    45  THR45      -0.1218
      2  CA        14.3320    7.4850    1.3830 C.3    45  THR45       0.1862
      3  C         13.0580    8.1440    0.8640 C.2    45  THR45       0.2287
      4  O         13.0810    9.2530    0.3340 O.2    45  THR45      -0.2866
      5  CB        15.4120    8.5780    1.8100 C.3    45  THR45       0.1770
      6  OG1       16.6590    7.9520    2.1470 O.3    45  THR45      -0.2211
      7  CG2       14.9010    9.3280    3.0190 C.3    45  THR45       0.0375
      8  N         29.7110    7.1790   13.1960 N.3    86  GLU86      -0.1231
      9  CA        28.4110    7.7420   12.8850 C.3    86  GLU86       0.1684
     10  C         27.9220    8.5570   14.0780 C.2    86  GLU86       0.2434
     11  O         27.8720    8.0300   15.2020 O.2    86  GLU86      -0.2733
     12  CB        27.3880    6.6600   12.5420 C.3    86  GLU86       0.0402
     13  CG        26.0820    7.2290   11.9880 C.3    86  GLU86       0.1161
     14  CD        26.2390    7.7550   10.5660 C.2    86  GLU86       0.3649
     15  OE1       27.0440    7.1840    9.7920 O.co2  86  GLU86      -0.2457
     16  OE2       25.5900    8.7530   10.2270 O.co2  86  GLU86      -0.2457
     17  N         27.5390    9.8180   13.8720 N.am   87  PRO87      -0.2729
     18  CA        27.1830   10.7030   14.9930 C.3    87  PRO87       0.1401
     19  C         25.9380   10.2350   15.7200 C.2    87  PRO87       0.2269
     20  O         24.9140    9.9400   15.1030 O.2    87  PRO87      -0.2865
     21  CB        26.9260   12.0490   14.3110 C.3    87  PRO87       0.0296
     22  CG        27.5700   11.9530   13.0070 C.3    87  PRO87       0.0237
     23  CD        27.5350   10.5320   12.5910 C.3    87  PRO87       0.0939
     24  N         23.3730   11.8710   18.3520 N.3    89  PRO89      -0.2116
     25  CA        23.0670   13.1530   18.9950 C.3    89  PRO89       0.1372
     26  C         22.7870   12.9990   20.4780 C.2    89  PRO89       0.2244
     27  O         22.7710   11.8820   21.0140 O.2    89  PRO89      -0.2868
     28  CB        21.8370   13.6520   18.2300 C.3    89  PRO89       0.0268
     29  CG        21.2630   12.4560   17.5730 C.3    89  PRO89       0.0207
     30  CD        22.3700   11.4890   17.3430 C.3    89  PRO89       0.0892
     31  N         17.3460    9.7920   18.5310 N.3    94  ARG94      -0.1231
     32  CA        17.4340   10.3530   17.1950 C.3    94  ARG94       0.1694
     33  C         18.4100    9.5930   16.3220 C.2    94  ARG94       0.2592
     34  O         18.5020    9.9150   15.1340 O.2    94  ARG94      -0.2718
     35  CB        17.8430   11.8240   17.2350 C.3    94  ARG94       0.0321
     36  CG        16.8420   12.7810   17.8560 C.3    94  ARG94       0.0489
     37  CD        17.5010   14.1560   18.0250 C.3    94  ARG94       0.2205
     38  NE        17.6820   14.8400   16.7480 N.pl3  94  ARG94      -0.0865
     39  CZ        18.2960   16.0090   16.6020 C.cat  94  ARG94       0.5346
     40  NH1       18.8270   16.6130   17.6570 N.pl3  94  ARG94       0.1354
     41  NH2       18.3870   16.5720   15.4050 N.pl3  94  ARG94       0.1354
     42  N         19.1280    8.6090   16.8780 N.am   95  ALA95      -0.1966
     43  CA        20.1230    7.8180   16.1500 C.3    95  ALA95       0.1728
     44  C         19.4020    6.6990   15.4180 C.2    95  ALA95       0.2616
     45  O         19.4300    5.5200   15.7920 O.2    95  ALA95      -0.2715
     46  CB        21.2050    7.2630   17.0810 C.3    95  ALA95       0.0334
     47  N         18.7450    7.0840   14.3320 N.am   96  GLN96      -0.1963
     48  CA        18.0700    6.0740   13.5440 C.3    96  GLN96       0.1733
     49  C         17.8520    6.6230   12.1480 C.2    96  GLN96       0.2616
     50  O         17.8280    7.8370   11.9260 O.2    96  GLN96      -0.2715
     51  CB        16.7360    5.6920   14.1780 C.3    96  GLN96       0.0408
     52  CG        15.7440    6.8340   14.1750 C.3    96  GLN96       0.0908
     53  CD        14.4120    6.4040   14.7250 C.2    96  GLN96       0.2608
     54  OE1       14.3370    5.6330   15.6890 O.2    96  GLN96      -0.2717
     55  NE2       13.3420    6.8950   14.1170 N.am   96  GLN96      -0.0878
     56  N         17.6760    5.7020   11.2100 N.am   97  PHE97      -0.1960
     57  CA        17.3730    6.0280    9.8270 C.3    97  PHE97       0.1771
     58  C         16.0350    5.3810    9.4720 C.2    97  PHE97       0.2620
     59  O         15.9160    4.1580    9.5410 O.2    97  PHE97      -0.2715
     60  CB        18.4710    5.5050    8.9090 C.3    97  PHE97       0.0574
     61  CG        19.8350    6.0910    9.2080 C.ar   97  PHE97      -0.0200
     62  CD1       20.0770    7.4370    8.9830 C.ar   97  PHE97      -0.0042
     63  CD2       20.8560    5.3010    9.7210 C.ar   97  PHE97      -0.0042
     64  CE1       21.3280    7.9920    9.2550 C.ar   97  PHE97      -0.0003
     65  CE2       22.1160    5.8590    9.9880 C.ar   97  PHE97      -0.0003
     66  CZ        22.3320    7.2080    9.7540 C.ar   97  PHE97      -0.0000
     67  N         15.0420    6.1940    9.1040 N.am   98  THR98      -0.1937
     68  CA        13.7870    5.6720    8.5650 C.3    98  THR98       0.2028
     69  C         13.9110    5.6610    7.0530 C.2    98  THR98       0.2642
     70  O         14.2090    6.6980    6.4380 O.2    98  THR98      -0.2714
     71  CB        12.5830    6.5080    9.0050 C.3    98  THR98       0.1808
     72  OG1       12.4870    6.4620   10.4480 O.3    98  THR98      -0.2208
     73  CG2       11.2760    5.9780    8.3760 C.3    98  THR98       0.0379
     74  N         13.7010    4.4900    6.4600 N.am   99  ARG99      -0.1977
     75  CA        13.8270    4.3180    5.0160 C.3    99  ARG99       0.1597
     76  C         12.6150    3.5550    4.5030 C.2    99  ARG99       0.2287
     77  O         11.7480    3.1380    5.2710 O.2    99  ARG99      -0.2864
     78  CB        15.1270    3.5850    4.6610 C.3    99  ARG99       0.0334
     79  CG        16.3680    4.3960    5.0320 C.3    99  ARG99       0.0492
     80  CD        16.3860    5.6710    4.2110 C.3    99  ARG99       0.2205
     81  NE        17.6240    6.4650    4.3120 N.pl3  99  ARG99      -0.0865
     82  CZ        17.8410    7.4220    5.2080 C.cat  99  ARG99       0.5346
     83  NH1       16.9400    7.6830    6.1500 N.pl3  99  ARG99       0.1354
     84  NH2       18.9930    8.0810    5.1790 N.pl3  99  ARG99       0.1354
     85  N         20.6110    2.8070   15.4210 N.3   120  TYR120     -0.1241
     86  CA        22.0160    2.4960   15.6560 C.3   120  TYR120      0.1605
     87  C         22.4500    3.0730   16.9950 C.2   120  TYR120      0.2264
     88  O         21.9570    4.1130   17.4250 O.2   120  TYR120     -0.2867
     89  CB        22.9230    2.9890   14.5110 C.3   120  TYR120      0.0534
     90  CG        22.9730    4.4670   14.3060 C.ar  120  TYR120     -0.0201
     91  CD1       22.0400    5.1170   13.5300 C.ar  120  TYR120     -0.0009
     92  CD2       23.9920    5.2260   14.8840 C.ar  120  TYR120     -0.0009
     93  CE1       22.0990    6.4860   13.3340 C.ar  120  TYR120      0.0417
     94  CE2       24.0500    6.5890   14.7130 C.ar  120  TYR120      0.0417
     95  CZ        23.1080    7.2170   13.9310 C.ar  120  TYR120      0.1957
     96  OH        23.1810    8.5730   13.7470 O.3   120  TYR120     -0.2866
@<TRIPOS>BOND
     1     1     2    1
     2     4     3    2
     3     3     2    1
     4     2     5    1
     5     5     6    1
     6     5     7    1
     7    80    81    1
     8    80    79    1
     9    81    82    2
    10    76    75    1
    11    76    77    2
    12    78    75    1
    13    78    79    1
    14    75    74    1
    15    84    82    1
    16    82    83    1
    17    70    69    2
    18    74    69   am
    19    69    68    1
    20    73    71    1
    21    68    71    1
    22    68    67    1
    23    60    61    1
    24    60    57    1
    25    62    61   ar
    26    62    64   ar
    27    71    72    1
    28    67    58   am
    29    61    63   ar
    30    64    66   ar
    31    58    59    2
    32    58    57    1
    33    63    65   ar
    34    66    65   ar
    35    15    14   ar
    36    57    56    1
    37    16    14   ar
    38    14    13    1
    39    56    49   am
    40    50    49    2
    41    13    12    1
    42    49    48    1
    43    12     9    1
    44    23    22    1
    45    23    17    1
    46     9     8    1
    47     9    10    1
    48    22    21    1
    49    93    91   ar
    50    93    95   ar
    51    91    90   ar
    52    48    51    1
    53    48    47    1
    54    96    95    1
    55    17    10   am
    56    17    18    1
    57    95    94   ar
    58    10    11    2
    59    55    53   am
    60    52    51    1
    61    52    53    1
    62    90    89    1
    63    90    92   ar
    64    21    18    1
    65    47    44   am
    66    89    86    1
    67    94    92   ar
    68    53    54    2
    69    18    19    1
    70    20    19    2
    71    34    33    2
    72    41    39    1
    73    44    45    2
    74    44    43    1
    75    85    86    1
    76    86    87    1
    77    43    42    1
    78    43    46    1
    79    33    42   am
    80    33    32    1
    81    39    38    2
    82    39    40    1
    83    38    37    1
    84    87    88    2
    85    32    35    1
    86    32    31    1
    87    35    36    1
    88    30    29    1
    89    30    24    1
    90    29    28    1
    91    36    37    1
    92    28    25    1
    93    24    25    1
    94    25    26    1
    95    26    27    2
