@<TRIPOS>MOLECULE
tmp/5ij6A00.pdb
 155 145 0 0 0
SMALL
GASTEIGER

@<TRIPOS>ATOM
      1  N         61.0820   77.4470  140.3010 N.3    12  ILE12      -0.1245
      2  CA        61.6630   77.4770  138.9630 C.3    12  ILE12       0.1561
      3  C         62.3230   78.8480  138.6710 C.2    12  ILE12       0.2260
      4  O         63.3510   78.9110  138.0050 O.2    12  ILE12      -0.2867
      5  CB        60.6270   77.0930  137.8750 C.3    12  ILE12       0.0252
      6  CG1       61.2690   77.0310  136.4840 C.3    12  ILE12       0.0019
      7  CG2       59.4460   78.0830  137.8420 C.3    12  ILE12       0.0019
      8  CD1       62.5560   76.2440  136.4140 C.3    12  ILE12       0.0001
      9  N         66.1120   79.0680  137.5370 N.3    16  LEU16      -0.1245
     10  CA        66.5390   79.6750  136.2500 C.3    16  LEU16       0.1561
     11  C         67.4770   80.8490  136.4550 C.2    16  LEU16       0.2260
     12  O         68.4270   81.0200  135.6820 O.2    16  LEU16      -0.2867
     13  CB        65.3510   80.1240  135.4060 C.3    16  LEU16       0.0270
     14  CG        64.5440   78.9960  134.8010 C.3    16  LEU16       0.0019
     15  CD1       63.2940   79.5710  134.1470 C.3    16  LEU16       0.0001
     16  CD2       65.3660   78.1540  133.8270 C.3    16  LEU16       0.0001
     17  N         68.4890   70.7530  139.1120 N.3    36  TYR36      -0.1241
     18  CA        67.4390   71.4610  139.7930 C.3    36  TYR36       0.1605
     19  C         66.0790   70.8530  139.6500 C.2    36  TYR36       0.2264
     20  O         65.7230   70.3230  138.6170 O.2    36  TYR36      -0.2867
     21  CB        67.3960   72.9660  139.3930 C.3    36  TYR36       0.0534
     22  CG        67.5400   73.3030  137.9270 C.ar   36  TYR36      -0.0201
     23  CD1       68.7820   73.3390  137.3210 C.ar   36  TYR36      -0.0009
     24  CD2       66.4230   73.6650  137.1600 C.ar   36  TYR36      -0.0009
     25  CE1       68.9190   73.6760  135.9820 C.ar   36  TYR36       0.0417
     26  CE2       66.5500   74.0250  135.8270 C.ar   36  TYR36       0.0417
     27  CZ        67.7980   74.0330  135.2400 C.ar   36  TYR36       0.1957
     28  OH        67.9300   74.3940  133.9140 O.3    36  TYR36      -0.2866
     29  N         57.4710   76.5620  131.8250 N.3    43  ILE43      -0.1245
     30  CA        58.5750   77.3830  131.3620 C.3    43  ILE43       0.1561
     31  C         58.4130   77.5840  129.8690 C.2    43  ILE43       0.2260
     32  O         58.4240   76.6180  129.0780 O.2    43  ILE43      -0.2867
     33  CB        59.9500   76.7440  131.6680 C.3    43  ILE43       0.0252
     34  CG1       60.0540   76.3400  133.1390 C.3    43  ILE43       0.0019
     35  CG2       61.0930   77.7100  131.3040 C.3    43  ILE43       0.0019
     36  CD1       59.8850   74.8500  133.3630 C.3    43  ILE43       0.0001
     37  N         62.3540   81.2840  129.9430 N.3    69  ARG69      -0.1245
     38  CA        63.7810   81.0490  129.9800 C.3    69  ARG69       0.1563
     39  C         64.4550   81.7490  128.8270 C.2    69  ARG69       0.2260
     40  O         63.7900   82.2520  127.8870 O.2    69  ARG69      -0.2867
     41  CB        64.0880   79.5410  129.9660 C.3    69  ARG69       0.0307
     42  CG        63.6330   78.8170  128.7320 C.3    69  ARG69       0.0489
     43  CD        63.9300   77.3070  128.7510 C.3    69  ARG69       0.2205
     44  NE        63.6280   76.7980  127.4020 N.pl3  69  ARG69      -0.0865
     45  CZ        62.4220   76.3540  127.0080 C.cat  69  ARG69       0.5346
     46  NH1       61.4020   76.2490  127.8710 N.pl3  69  ARG69       0.1354
     47  NH2       62.2370   75.9870  125.7490 N.pl3  69  ARG69       0.1354
     48  N         63.1870   77.0760  121.9140 N.3    73  GLY73      -0.1210
     49  CA        62.4680   75.8410  122.0500 C.3    73  GLY73       0.1956
     50  C         61.0710   76.0760  122.5470 C.2    73  GLY73       0.2612
     51  O         60.5920   77.2190  122.5790 O.2    73  GLY73      -0.2717
     52  N         60.4320   74.9830  122.9540 N.am   74  GLY74      -0.1942
     53  CA        59.0020   74.9750  123.2680 C.3    74  GLY74       0.2014
     54  C         58.7090   75.0750  124.7480 C.2    74  GLY74       0.2639
     55  O         59.6150   75.2570  125.5740 O.2    74  GLY74      -0.2714
     56  N         57.4240   74.9310  125.0740 N.am   75  ALA75      -0.1963
     57  CA        56.9220   75.0800  126.4230 C.3    75  ALA75       0.1728
     58  C         57.0660   73.7780  127.1770 C.2    75  ALA75       0.2616
     59  O         56.8230   72.7170  126.6300 O.2    75  ALA75      -0.2715
     60  CB        55.4580   75.4720  126.3780 C.3    75  ALA75       0.0334
     61  N         57.4230   73.8650  128.4370 N.am   76  VAL76      -0.1977
     62  CA        57.5940   72.6840  129.2680 C.3    76  VAL76       0.1596
     63  C         56.7890   72.8250  130.5540 C.2    76  VAL76       0.2287
     64  O         56.7930   73.8800  131.1560 O.2    76  VAL76      -0.2864
     65  CB        59.0870   72.5040  129.6460 C.3    76  VAL76       0.0276
     66  CG1       59.2470   71.4060  130.6850 C.3    76  VAL76       0.0022
     67  CG2       59.9210   72.2190  128.4000 C.3    76  VAL76       0.0022
     68  N         56.8850   71.3260  134.3660 N.3    78  ASP78      -0.1239
     69  CA        57.6800   70.5480  135.3630 C.3    78  ASP78       0.1674
     70  C         56.9000   70.4490  136.6620 C.2    78  ASP78       0.2266
     71  O         56.1070   71.3350  136.9860 O.2    78  ASP78      -0.2867
     72  CB        59.0040   71.2440  135.7120 C.3    78  ASP78       0.1410
     73  CG        60.0880   71.0950  134.6380 C.2    78  ASP78       0.3668
     74  OD1       59.9080   70.3030  133.6830 O.co2  78  ASP78      -0.2456
     75  OD2       61.1540   71.7930  134.7690 O.co2  78  ASP78      -0.2456
     76  N         65.8650   68.6220  136.3670 N.3    84  SER84      -0.1217
     77  CA        66.4380   69.2800  135.2290 C.3    84  SER84       0.1889
     78  C         67.9210   69.2880  135.4110 C.2    84  SER84       0.2288
     79  O         68.4100   69.3430  136.5310 O.2    84  SER84      -0.2866
     80  CB        65.8680   70.6730  135.1280 C.3    84  SER84       0.2089
     81  OG        64.5590   70.5750  134.6060 O.3    84  SER84      -0.2183
     82  N         66.3640   67.3870  119.4600 N.3   124  ASN124     -0.1225
     83  CA        66.5840   67.7830  120.8980 C.3   124  ASN124      0.1785
     84  C         65.8370   66.9870  122.0010 C.2   124  ASN124      0.2597
     85  O         65.8660   67.3890  123.1710 O.2   124  ASN124     -0.2718
     86  CB        66.2860   69.2690  121.0910 C.3   124  ASN124      0.1169
     87  CG        64.8120   69.5970  120.9420 C.2   124  ASN124      0.2627
     88  OD1       64.1800   69.2090  119.9560 O.2   124  ASN124     -0.2716
     89  ND2       64.2630   70.3350  121.8980 N.am  124  ASN124     -0.0877
     90  N         65.1570   65.9060  121.6340 N.am  125  ASP125     -0.1974
     91  CA        64.4330   65.0780  122.6090 C.3   125  ASP125      0.1709
     92  C         65.1660   63.8020  122.8910 C.2   125  ASP125      0.2293
     93  O         65.8590   63.2660  122.0290 O.2   125  ASP125     -0.2864
     94  CB        63.0510   64.6750  122.0830 C.3   125  ASP125      0.1436
     95  CG        62.2060   65.8600  121.6740 C.2   125  ASP125      0.3671
     96  OD1       62.2530   66.9110  122.3530 O.co2 125  ASP125     -0.2456
     97  OD2       61.4900   65.7280  120.6660 O.co2 125  ASP125     -0.2456
     98  N         59.0100   60.1500  124.4070 N.3   132  LYS132     -0.1245
     99  CA        59.8380   61.1960  124.9360 C.3   132  LYS132      0.1561
    100  C         59.7820   61.2440  126.4630 C.2   132  LYS132      0.2260
    101  O         58.7010   61.2870  127.0510 O.2   132  LYS132     -0.2867
    102  CB        59.3540   62.5270  124.3880 C.3   132  LYS132      0.0271
    103  CG        60.1210   63.7240  124.8640 C.3   132  LYS132      0.0035
    104  CD        59.5720   64.9650  124.2150 C.3   132  LYS132      0.0206
    105  CE        60.1600   66.2110  124.8150 C.3   132  LYS132      0.1093
    106  NZ        59.5410   67.3850  124.1710 N.3   132  LYS132     -0.1314
    107  N         63.1790   66.8650  127.0270 N.3   135  GLY135     -0.1210
    108  CA        63.4200   67.8700  126.0090 C.3   135  GLY135      0.1956
    109  C         64.6070   68.7450  126.4350 C.2   135  GLY135      0.2612
    110  O         64.8300   68.9840  127.6490 O.2   135  GLY135     -0.2717
    111  N         65.3600   69.2170  125.4500 N.am  136  ASN136     -0.1960
    112  CA        66.5710   69.9690  125.6950 C.3   136  ASN136      0.1819
    113  C         66.6190   71.2700  124.9130 C.2   136  ASN136      0.2621
    114  O         66.0230   71.3870  123.8300 O.2   136  ASN136     -0.2715
    115  CB        67.7650   69.1300  125.3300 C.3   136  ASN136      0.1195
    116  CG        67.8520   67.8850  126.1470 C.2   136  ASN136      0.2630
    117  OD1       68.5160   67.8590  127.1760 O.2   136  ASN136     -0.2716
    118  ND2       67.1580   66.8460  125.7180 N.am  136  ASN136     -0.0877
    119  N         67.3490   72.2370  125.4530 N.am  137  ALA137     -0.1977
    120  CA        67.5090   73.5540  124.8040 C.3   137  ALA137      0.1597
    121  C         68.8950   74.0910  125.1280 C.2   137  ALA137      0.2287
    122  O         69.5260   73.6390  126.0760 O.2   137  ALA137     -0.2864
    123  CB        66.4450   74.5350  125.2840 C.3   137  ALA137      0.0319
    124  N         70.4860   72.7880  128.6940 N.3   148  HIS148     -0.1226
    125  CA        69.6950   72.2720  129.7820 C.3   148  HIS148      0.1752
    126  C         68.5320   71.4600  129.2960 C.2   148  HIS148      0.2597
    127  O         68.0340   71.6450  128.1850 O.2   148  HIS148     -0.2718
    128  CB        69.2480   73.3730  130.7640 C.3   148  HIS148      0.0759
    129  CG        68.3960   74.4480  130.1670 C.ar  148  HIS148      0.0818
    130  ND1       68.1020   75.6070  130.8490 N.ar  148  HIS148     -0.2268
    131  CD2       67.7880   74.5570  128.9630 C.ar  148  HIS148      0.1154
    132  CE1       67.3500   76.3840  130.0950 C.ar  148  HIS148      0.1986
    133  NE2       67.1570   75.7740  128.9360 N.ar  148  HIS148     -0.2212
    134  N         68.1120   70.5360  130.1340 N.am  149  GLY149     -0.1942
    135  CA        67.0880   69.5820  129.7580 C.3   149  GLY149      0.2014
    136  C         66.3060   69.0960  130.9390 C.2   149  GLY149      0.2639
    137  O         66.7440   69.2100  132.0700 O.2   149  GLY149     -0.2714
    138  N         65.1320   68.5520  130.6370 N.am  150  THR150     -0.1950
    139  CA        64.2640   67.9010  131.6040 C.3   150  THR150      0.1897
    140  C         64.4940   66.3780  131.6040 C.2   150  THR150      0.2313
    141  O         64.8820   65.8010  130.5970 O.2   150  THR150     -0.2863
    142  CB        62.7900   68.1340  131.2290 C.3   150  THR150      0.1794
    143  OG1       62.4990   67.4570  130.0030 O.3   150  THR150     -0.2208
    144  CG2       62.5270   69.5790  131.0470 C.3   150  THR150      0.0378
    145  N         65.5360   77.6460  117.8500 N.3   273  PHE273     -0.1241
    146  CA        66.7250   77.9270  118.6440 C.3   273  PHE273      0.1605
    147  C         67.5210   79.0270  117.9520 C.2   273  PHE273      0.2264
    148  O         67.3840   79.2200  116.7690 O.2   273  PHE273     -0.2867
    149  CB        67.5830   76.6690  118.8250 C.3   273  PHE273      0.0534
    150  CG        66.9150   75.6160  119.6150 C.ar  273  PHE273     -0.0203
    151  CD1       66.5440   75.8550  120.9350 C.ar  273  PHE273     -0.0042
    152  CD2       66.6410   74.3770  119.0590 C.ar  273  PHE273     -0.0042
    153  CE1       65.9050   74.8850  121.6720 C.ar  273  PHE273     -0.0003
    154  CE2       66.0020   73.4060  119.8010 C.ar  273  PHE273     -0.0003
    155  CZ        65.6360   73.6630  121.1070 C.ar  273  PHE273     -0.0000
@<TRIPOS>BOND
     1   148   147    2
     2   145   146    1
     3   147   146    1
     4   146   149    1
     5   149   150    1
     6   152   150   ar
     7   152   154   ar
     8    82    83    1
     9   150   151   ar
    10   154   155   ar
    11    88    87    2
    12    97    95   ar
    13    83    86    1
    14    83    84    1
    15   151   153   ar
    16    87    86    1
    17    87    89   am
    18   155   153   ar
    19    90    84   am
    20    90    91    1
    21    95    94    1
    22    95    96   ar
    23    48    49    1
    24    84    85    2
    25    93    92    2
    26    49    50    1
    27    94    91    1
    28    50    51    2
    29    50    52   am
    30    91    92    1
    31    52    53    1
    32    53    54    1
    33   114   113    2
    34   106   105    1
    35   104   105    1
    36   104   103    1
    37   102   103    1
    38   102    99    1
    39    98    99    1
    40    54    56   am
    41    54    55    2
    42   120   121    1
    43   120   123    1
    44   120   119    1
    45   113   119   am
    46   113   112    1
    47    99   100    1
    48    56    57    1
    49   121   122    2
    50   115   112    1
    51   115   116    1
    52   111   112    1
    53   111   109   am
    54   118   116   am
    55    47    45    1
    56   108   109    1
    57   108   107    1
    58   116   117    2
    59    60    57    1
    60    57    58    1
    61   109   110    2
    62   100   101    2
    63    59    58    2
    64    45    44    2
    65    45    46    1
    66    58    61   am
    67    44    43    1
    68    40    39    2
    69   127   126    2
    70    67    65    1
    71    61    62    1
    72   124   125    1
    73    42    43    1
    74    42    41    1
    75    39    38    1
    76   133   131   ar
    77   133   132   ar
    78   131   129   ar
    79    32    31    2
    80    62    65    1
    81    62    63    1
    82   126   125    1
    83   126   134   am
    84    65    66    1
    85   135   134    1
    86   135   136    1
    87   125   128    1
    88    31    30    1
    89    37    38    1
    90    41    38    1
    91   143   142    1
    92   132   130   ar
    93   129   128    1
    94   129   130   ar
    95    63    64    2
    96   141   140    2
    97   138   136   am
    98   138   139    1
    99   136   137    2
   100   144   142    1
   101   142   139    1
   102    35    33    1
   103    30    33    1
   104    30    29    1
   105   139   140    1
   106    33    34    1
   107    34    36    1
   108    74    73   ar
   109    16    14    1
   110    28    27    1
   111    15    14    1
   112    68    69    1
   113    81    80    1
   114    73    75   ar
   115    73    72    1
   116    14    13    1
   117    80    77    1
   118    77    78    1
   119    77    76    1
   120    27    26   ar
   121    27    25   ar
   122    69    72    1
   123    69    70    1
   124    13    10    1
   125    78    79    2
   126    12    11    2
   127    26    24   ar
   128    25    23   ar
   129    10    11    1
   130    10     9    1
   131     8     6    1
   132     6     5    1
   133    70    71    2
   134    24    22   ar
   135    23    22   ar
   136     7     5    1
   137     5     2    1
   138    22    21    1
   139     4     3    2
   140    20    19    2
   141     3     2    1
   142     2     1    1
   143    17    18    1
   144    21    18    1
   145    19    18    1
