@<TRIPOS>MOLECULE
tmp/5ij7B00.pdb
 169 168 0 0 0
SMALL
GASTEIGER

@<TRIPOS>ATOM
      1  N         16.0410    0.9070  273.3790 N.3    93  ILE93      -0.1231
      2  CA        15.9920    2.1660  274.1420 C.3    93  ILE93       0.1692
      3  C         16.7000    2.0190  275.5090 C.2    93  ILE93       0.2592
      4  O         16.5680    0.9930  276.1840 O.2    93  ILE93      -0.2718
      5  CB        14.5220    2.7110  274.2400 C.3    93  ILE93       0.0266
      6  CG1       14.1050    3.3920  272.9240 C.3    93  ILE93       0.0019
      7  CG2       14.3020    3.6650  275.4380 C.3    93  ILE93       0.0020
      8  CD1       12.5250    3.4420  272.6880 C.3    93  ILE93       0.0001
      9  N         17.4560    3.0400  275.8970 N.am   94  MET94      -0.1965
     10  CA        18.2240    3.0760  277.1420 C.3    94  MET94       0.1736
     11  C         18.3550    4.5240  277.6160 C.2    94  MET94       0.2616
     12  O         18.7750    5.3810  276.8450 O.2    94  MET94      -0.2715
     13  CB        19.6060    2.4670  276.8690 C.3    94  MET94       0.0427
     14  CG        20.6470    2.7460  277.9080 C.3    94  MET94       0.0599
     15  SD        20.8420    1.4030  279.0700 S.3    94  MET94      -0.1393
     16  CE        21.6190    0.1620  278.0740 C.3    94  MET94       0.0692
     17  N         18.0010    4.8020  278.8600 N.am   95  TYR95      -0.1974
     18  CA        18.1660    6.1360  279.4290 C.3    95  TYR95       0.1639
     19  C         19.3600    6.1370  280.3390 C.2    95  TYR95       0.2290
     20  O         19.7530    5.0880  280.8680 O.2    95  TYR95      -0.2864
     21  CB        16.9130    6.5850  280.1940 C.3    95  TYR95       0.0560
     22  CG        15.7820    7.0360  279.2890 C.ar   95  TYR95      -0.0198
     23  CD1       15.5670    8.3880  279.0290 C.ar   95  TYR95      -0.0009
     24  CD2       14.9360    6.1120  278.6780 C.ar   95  TYR95      -0.0009
     25  CE1       14.5290    8.8110  278.1950 C.ar   95  TYR95       0.0417
     26  CE2       13.8950    6.5230  277.8450 C.ar   95  TYR95       0.0417
     27  CZ        13.6810    7.8760  277.6270 C.ar   95  TYR95       0.1957
     28  OH        12.6640    8.2920  276.8130 O.3    95  TYR95      -0.2866
     29  N         12.3290   -8.6220  274.8890 N.3   358  ALA358     -0.1231
     30  CA        12.3080   -7.2390  274.4260 C.3   358  ALA358      0.1694
     31  C         13.3290   -6.3900  275.1980 C.2   358  ALA358      0.2593
     32  O         13.7010   -6.7460  276.3270 O.2   358  ALA358     -0.2718
     33  CB        10.9030   -6.6560  274.5690 C.3   358  ALA358      0.0304
     34  N         13.7250   -5.2650  274.5850 N.am  359  GLY359     -0.1942
     35  CA        14.6430   -4.3010  275.1590 C.3   359  GLY359      0.2014
     36  C         15.9920   -4.9090  275.4210 C.2   359  GLY359      0.2638
     37  O         16.4490   -5.7590  274.6630 O.2   359  GLY359     -0.2714
     38  N         16.6110   -4.5150  276.5330 N.am  360  TRP360     -0.1973
     39  CA        17.9020   -5.0530  276.9430 C.3   360  TRP360      0.1640
     40  C         17.7310   -6.1790  277.9560 C.2   360  TRP360      0.2290
     41  O         16.7210   -6.2560  278.6620 O.2   360  TRP360     -0.2864
     42  CB        18.7660   -3.9690  277.5380 C.3   360  TRP360      0.0576
     43  CG        19.1830   -2.9210  276.5690 C.ar  360  TRP360      0.0006
     44  CD1       18.6160   -1.6930  276.4030 C.ar  360  TRP360      0.0946
     45  CD2       20.3560   -2.9370  275.7520 C.ar  360  TRP360      0.0152
     46  NE1       19.3550   -0.9490  275.5230 N.ar  360  TRP360     -0.2442
     47  CE2       20.4360   -1.6860  275.1130 C.ar  360  TRP360      0.0810
     48  CE3       21.3930   -3.8590  275.5540 C.ar  360  TRP360      0.0012
     49  CZ2       21.4820   -1.3580  274.2470 C.ar  360  TRP360      0.0191
     50  CZ3       22.4070   -3.5480  274.6590 C.ar  360  TRP360      0.0001
     51  CH2       22.4560   -2.3030  274.0370 C.ar  360  TRP360      0.0015
     52  N          5.1040    9.0140  286.6300 N.3   393  VAL393     -0.1231
     53  CA         5.9480    9.2420  285.4440 C.3   393  VAL393      0.1692
     54  C          6.2610    7.9140  284.7620 C.2   393  VAL393      0.2592
     55  O          6.2020    7.8280  283.5370 O.2   393  VAL393     -0.2718
     56  CB         7.2770    9.9610  285.8090 C.3   393  VAL393      0.0266
     57  CG1        8.1090   10.2660  284.5610 C.3   393  VAL393      0.0020
     58  CG2        7.0310   11.2310  286.6120 C.3   393  VAL393      0.0020
     59  N          6.6370    6.8970  285.5570 N.am  394  TYR394     -0.1976
     60  CA         7.0440    5.5850  285.0660 C.3   394  TYR394      0.1639
     61  C          5.9690    4.8990  284.2320 C.2   394  TYR394      0.2290
     62  O          6.2870    4.3180  283.1930 O.2   394  TYR394     -0.2864
     63  CB         7.5450    4.6880  286.2260 C.3   394  TYR394      0.0560
     64  CG         8.8200    5.1680  286.9110 C.ar  394  TYR394     -0.0198
     65  CD1        9.5970    6.1900  286.3580 C.ar  394  TYR394     -0.0009
     66  CD2        9.2770    4.5690  288.0870 C.ar  394  TYR394     -0.0009
     67  CE1       10.7600    6.6400  286.9880 C.ar  394  TYR394      0.0417
     68  CE2       10.4500    5.0040  288.7140 C.ar  394  TYR394      0.0417
     69  CZ        11.1880    6.0380  288.1550 C.ar  394  TYR394      0.1957
     70  OH        12.3380    6.5010  288.7390 O.3   394  TYR394     -0.2866
     71  N          5.7470    5.5880  280.6240 N.3   397  TYR397     -0.1241
     72  CA         6.7820    4.8910  279.8610 C.3   397  TYR397      0.1605
     73  C          6.6600    3.3810  279.8420 C.2   397  TYR397      0.2264
     74  O          7.4370    2.7130  279.1530 O.2   397  TYR397     -0.2867
     75  CB         8.1680    5.3040  280.3650 C.3   397  TYR397      0.0534
     76  CG         8.5010    6.7400  280.0370 C.ar  397  TYR397     -0.0201
     77  CD1        9.1150    7.0790  278.8310 C.ar  397  TYR397     -0.0009
     78  CD2        8.1860    7.7670  280.9200 C.ar  397  TYR397     -0.0009
     79  CE1        9.4010    8.4030  278.5130 C.ar  397  TYR397      0.0417
     80  CE2        8.4520    9.1000  280.6040 C.ar  397  TYR397      0.0417
     81  CZ         9.0630    9.4110  279.4010 C.ar  397  TYR397      0.1957
     82  OH         9.3610   10.7190  279.1040 O.3   397  TYR397     -0.2866
     83  N          7.5270    1.4070  282.0610 N.3   399  CYS399     -0.1235
     84  CA         8.7150    0.9030  282.7330 C.3   399  CYS399      0.1677
     85  C          8.4300    0.8270  284.2530 C.2   399  CYS399      0.2270
     86  O          7.7010    1.6690  284.7890 O.2   399  CYS399     -0.2867
     87  CB         9.9430    1.7630  282.4030 C.3   399  CYS399      0.0956
     88  SG         9.9730    3.4060  283.1920 S.3   399  CYS399     -0.0801
     89  N         10.9920   -0.2660  287.3300 N.3   401  PHE401     -0.1241
     90  CA        12.2520   -0.7450  287.8980 C.3   401  PHE401      0.1605
     91  C         12.4260   -0.4030  289.3820 C.2   401  PHE401      0.2264
     92  O         13.5580   -0.3090  289.8710 O.2   401  PHE401     -0.2867
     93  CB        13.4500   -0.2730  287.0550 C.3   401  PHE401      0.0534
     94  CG        13.2680   -0.5020  285.5770 C.ar  401  PHE401     -0.0203
     95  CD1       13.1450   -1.7940  285.0640 C.ar  401  PHE401     -0.0042
     96  CD2       13.2100    0.5720  284.6940 C.ar  401  PHE401     -0.0042
     97  CE1       12.9830   -2.0050  283.6880 C.ar  401  PHE401     -0.0003
     98  CE2       13.0650    0.3640  283.3210 C.ar  401  PHE401     -0.0003
     99  CZ        12.9410   -0.9220  282.8240 C.ar  401  PHE401     -0.0000
    100  N         16.0580    1.2670  290.6730 N.3   413  ALA413     -0.1231
    101  CA        17.2030    1.1310  289.7980 C.3   413  ALA413      0.1694
    102  C         17.1380    1.9860  288.5150 C.2   413  ALA413      0.2593
    103  O         18.0670    1.8960  287.7250 O.2   413  ALA413     -0.2718
    104  CB        17.4190   -0.3400  289.4570 C.3   413  ALA413      0.0304
    105  N         16.0940    2.8370  288.3330 N.am  414  THR414     -0.1939
    106  CA        15.8600    3.7010  287.1420 C.3   414  THR414      0.2028
    107  C         16.9870    4.7080  286.8460 C.2   414  THR414      0.2642
    108  O         17.4660    4.7590  285.7150 O.2   414  THR414     -0.2714
    109  CB        14.4950    4.4160  287.2490 C.3   414  THR414      0.1808
    110  OG1       13.4660    3.4460  287.4740 O.3   414  THR414     -0.2208
    111  CG2       14.1550    5.2430  286.0260 C.3   414  THR414      0.0379
    112  N         17.3570    5.5270  287.8400 N.am  415  ARG415     -0.1977
    113  CA        18.4010    6.5700  287.7760 C.3   415  ARG415      0.1597
    114  C         19.8040    5.9780  288.0850 C.2   415  ARG415      0.2287
    115  O         20.7710    6.2330  287.3750 O.2   415  ARG415     -0.2864
    116  CB        18.0670    7.6650  288.8160 C.3   415  ARG415      0.0334
    117  CG        17.5920    8.9800  288.2640 C.3   415  ARG415      0.0492
    118  CD        16.4560    9.5600  289.0830 C.3   415  ARG415      0.2205
    119  NE        15.1570    9.1260  288.5580 N.pl3 415  ARG415     -0.0865
    120  CZ        14.0050    9.7660  288.7490 C.cat 415  ARG415      0.5346
    121  NH1       13.9700   10.8930  289.4580 N.pl3 415  ARG415      0.1354
    122  NH2       12.8830    9.2920  288.2270 N.pl3 415  ARG415      0.1354
    123  N         19.9690   -4.7950  286.9730 N.3   421  ARG421     -0.1231
    124  CA        18.7720   -4.0110  286.6580 C.3   421  ARG421      0.1694
    125  C         18.1910   -4.4360  285.2870 C.2   421  ARG421      0.2592
    126  O         16.9910   -4.2630  285.0480 O.2   421  ARG421     -0.2718
    127  CB        19.0660   -2.4880  286.7160 C.3   421  ARG421      0.0321
    128  CG        20.0990   -1.8920  285.7320 C.3   421  ARG421      0.0489
    129  CD        20.1430   -0.3530  285.8540 C.3   421  ARG421      0.2205
    130  NE        20.0500    0.2660  284.5270 N.pl3 421  ARG421     -0.0865
    131  CZ        19.4150    1.3990  284.2470 C.cat 421  ARG421      0.5346
    132  NH1       18.8150    2.0830  285.2000 N.pl3 421  ARG421      0.1354
    133  NH2       19.3640    1.8470  282.9980 N.pl3 421  ARG421      0.1354
    134  N         19.0430   -5.0640  284.4430 N.am  422  PHE422     -0.1962
    135  CA        18.7410   -5.5270  283.0960 C.3   422  PHE422      0.1771
    136  C         18.1720   -6.9510  283.0310 C.2   422  PHE422      0.2619
    137  O         17.8520   -7.4290  281.9370 O.2   422  PHE422     -0.2715
    138  CB        19.9730   -5.3800  282.1850 C.3   422  PHE422      0.0574
    139  CG        20.3700   -3.9430  281.9250 C.ar  422  PHE422     -0.0200
    140  CD1       19.6250   -3.1430  281.0630 C.ar  422  PHE422     -0.0042
    141  CD2       21.4990   -3.4000  282.5190 C.ar  422  PHE422     -0.0042
    142  CE1       20.0050   -1.8310  280.8070 C.ar  422  PHE422     -0.0003
    143  CE2       21.8710   -2.0830  282.2680 C.ar  422  PHE422     -0.0003
    144  CZ        21.1200   -1.3050  281.4190 C.ar  422  PHE422     -0.0000
    145  N         17.9980   -7.6080  284.1970 N.am  423  ALA423     -0.1963
    146  CA        17.4050   -8.9300  284.2750 C.3   423  ALA423      0.1728
    147  C         15.9370   -8.6950  284.0840 C.2   423  ALA423      0.2616
    148  O         15.3490   -7.9230  284.8410 O.2   423  ALA423     -0.2715
    149  CB        17.6700   -9.5540  285.6350 C.3   423  ALA423      0.0334
    150  N         15.3530   -9.2990  283.0420 N.am  424  ASN424     -0.1972
    151  CA        13.9460   -9.1140  282.7100 C.3   424  ASN424      0.1688
    152  C         13.0320   -9.9010  283.6070 C.2   424  ASN424      0.2292
    153  O         13.4950  -10.7800  284.3180 O.2   424  ASN424     -0.2864
    154  CB        13.6870   -9.4340  281.2460 C.3   424  ASN424      0.1181
    155  CG        14.1790   -8.3890  280.3060 C.2   424  ASN424      0.2629
    156  OD1       13.4100   -7.5450  279.8600 O.2   424  ASN424     -0.2716
    157  ND2       15.4710   -8.3950  280.0050 N.am  424  ASN424     -0.0877
    158  N          9.2400  -10.4970  288.9740 N.3   462  TYR462     -0.1241
    159  CA         9.0940   -9.1590  289.5430 C.3   462  TYR462      0.1605
    160  C          7.9760   -9.0600  290.5640 C.2   462  TYR462      0.2264
    161  O          8.1140   -8.3010  291.5150 O.2   462  TYR462     -0.2867
    162  CB         8.8320   -8.1390  288.4380 C.3   462  TYR462      0.0534
    163  CG        10.0420   -7.6650  287.6510 C.ar  462  TYR462     -0.0201
    164  CD1       10.0180   -6.4520  286.9590 C.ar  462  TYR462     -0.0009
    165  CD2       11.1990   -8.4370  287.5730 C.ar  462  TYR462     -0.0009
    166  CE1       11.1250   -6.0080  286.2350 C.ar  462  TYR462      0.0417
    167  CE2       12.3120   -8.0030  286.8540 C.ar  462  TYR462      0.0417
    168  CZ        12.2770   -6.7840  286.1940 C.ar  462  TYR462      0.1957
    169  OH        13.3790   -6.3520  285.4850 O.3   462  TYR462     -0.2866
@<TRIPOS>BOND
     1     8     6    1
     2     6     5    1
     3     1     2    1
     4    51    49   ar
     5    51    50   ar
     6     2     5    1
     7     2     3    1
     8     5     7    1
     9    49    47   ar
    10    30    33    1
    11    30    29    1
    12    30    31    1
    13    34    35    1
    14    34    31   am
    15    50    48   ar
    16    37    36    2
    17    47    46   ar
    18    47    45   ar
    19    35    36    1
    20    31    32    2
    21    36    38   am
    22     3     9   am
    23     3     4    2
    24    46    44   ar
    25    48    45   ar
    26    45    43   ar
    27     9    10    1
    28    44    43   ar
    29    38    39    1
    30    43    42    1
    31    28    27    1
    32    12    11    2
    33    13    10    1
    34    13    14    1
    35    39    42    1
    36    39    40    1
    37    10    11    1
    38    11    17   am
    39    27    26   ar
    40    27    25   ar
    41    26    24   ar
    42    14    15    1
    43    40    41    2
    44    16    15    1
    45    25    23   ar
    46    79    77   ar
    47    79    81   ar
    48    24    22   ar
    49    77    76   ar
    50    17    18    1
    51    23    22   ar
    52    82    81    1
    53    74    73    2
    54    22    21    1
    55    81    80   ar
    56    18    21    1
    57    18    19    1
    58    73    72    1
    59   156   155    2
    60    72    75    1
    61    72    71    1
    62   157   155   am
    63    76    75    1
    64    76    78   ar
    65   155   154    1
    66    19    20    2
    67    80    78   ar
    68   142   140   ar
    69   142   144   ar
    70   140   139   ar
    71   154   151    1
    72   144   143   ar
    73   139   138    1
    74   139   141   ar
    75   137   136    2
    76    83    84    1
    77   138   135    1
    78   143   141   ar
    79    87    84    1
    80    87    88    1
    81   151   150    1
    82   151   152    1
    83    84    85    1
    84    99    98   ar
    85    99    97   ar
    86   133   131    1
    87   136   135    1
    88   136   145   am
    89   150   147   am
    90   135   134    1
    91    62    61    2
    92    98    96   ar
    93    55    54    2
    94   152   153    2
    95    97    95   ar
    96   147   146    1
    97   147   148    2
    98   145   146    1
    99    61    60    1
   100   131   130    2
   101   131   132    1
   102    85    86    2
   103   146   149    1
   104   134   125   am
   105   130   129    1
   106    57    56    1
   107    96    94   ar
   108    54    53    1
   109    54    59   am
   110   126   125    2
   111    95    94   ar
   112    60    59    1
   113    60    63    1
   114   125   124    1
   115    53    56    1
   116    53    52    1
   117   169   168    1
   118    94    93    1
   119   108   107    2
   120   128   129    1
   121   128   127    1
   122    56    58    1
   123   111   109    1
   124   168   166   ar
   125   168   167   ar
   126    63    64    1
   127   166   164   ar
   128    65    64   ar
   129    65    67   ar
   130   124   127    1
   131   124   123    1
   132   107   106    1
   133   107   112   am
   134   167   165   ar
   135    64    66   ar
   136   164   163   ar
   137    67    69   ar
   138    93    90    1
   139   106   109    1
   140   106   105    1
   141   109   110    1
   142    89    90    1
   143   115   114    2
   144   165   163   ar
   145   163   162    1
   146   103   102    2
   147   113   112    1
   148   113   114    1
   149   113   116    1
   150    90    91    1
   151    66    68   ar
   152    69    68   ar
   153    69    70    1
   154   122   120    1
   155   117   116    1
   156   117   118    1
   157   105   102   am
   158   162   159    1
   159   102   101    1
   160   119   120    2
   161   119   118    1
   162   120   121    1
   163   158   159    1
   164    91    92    2
   165   104   101    1
   166   159   160    1
   167   101   100    1
   168   160   161    2
