@<TRIPOS>MOLECULE
tmp/5ijcD00.pdb
 151 145 0 0 0
SMALL
GASTEIGER

@<TRIPOS>ATOM
      1  N         33.3930   -5.7030    2.1010 N.3    12  ILE12      -0.1245
      2  CA        32.0070   -6.0930    2.1730 C.3    12  ILE12       0.1561
      3  C         31.4700   -6.3770    0.7820 C.2    12  ILE12       0.2260
      4  O         31.6090   -5.5420   -0.1090 O.2    12  ILE12      -0.2867
      5  CB        31.2230   -4.9320    2.7930 C.3    12  ILE12       0.0252
      6  CG1       31.6780   -4.7600    4.2410 C.3    12  ILE12       0.0019
      7  CG2       29.7250   -5.1710    2.6930 C.3    12  ILE12       0.0019
      8  CD1       31.3330   -3.4330    4.8600 C.3    12  ILE12       0.0001
      9  N         30.7870    0.3750    4.7170 N.3    32  ILE32      -0.1245
     10  CA        30.7320    0.1200    6.1520 C.3    32  ILE32       0.1561
     11  C         32.1110   -0.1330    6.7840 C.2    32  ILE32       0.2260
     12  O         32.8460   -1.0370    6.3700 O.2    32  ILE32      -0.2867
     13  CB        29.7850   -1.0430    6.4510 C.3    32  ILE32       0.0252
     14  CG1       28.3420   -0.5840    6.2890 C.3    32  ILE32       0.0019
     15  CG2       29.9910   -1.5310    7.8620 C.3    32  ILE32       0.0019
     16  CD1       27.3280   -1.7080    6.1830 C.3    32  ILE32       0.0001
     17  N         33.6390   -1.2590   10.3440 N.3    34  LEU34      -0.1245
     18  CA        33.1890   -1.9640   11.5590 C.3    34  LEU34       0.1561
     19  C         33.5830   -1.2530   12.8580 C.2    34  LEU34       0.2260
     20  O         32.9040   -1.3930   13.8410 O.2    34  LEU34      -0.2867
     21  CB        33.7150   -3.3900   11.5760 C.3    34  LEU34       0.0270
     22  CG        33.3080   -4.3010   10.4000 C.3    34  LEU34       0.0019
     23  CD1       34.1400   -5.5810   10.3760 C.3    34  LEU34       0.0001
     24  CD2       31.8330   -4.6150   10.4720 C.3    34  LEU34       0.0001
     25  N         23.6710  -16.1770   10.4690 N.3    60  ILE60      -0.1245
     26  CA        25.0390  -15.6860   10.5480 C.3    60  ILE60       0.1561
     27  C         26.0090  -16.7590   10.9460 C.2    60  ILE60       0.2260
     28  O         25.6610  -17.6170   11.7180 O.2    60  ILE60      -0.2867
     29  CB        25.1250  -14.5700   11.6040 C.3    60  ILE60       0.0252
     30  CG1       24.0900  -13.4870   11.2590 C.3    60  ILE60       0.0019
     31  CG2       26.5460  -13.9960   11.7030 C.3    60  ILE60       0.0019
     32  CD1       23.9030  -12.4490   12.3450 C.3    60  ILE60       0.0001
     33  N         30.2890  -16.6650   12.0670 N.3    62  VAL62      -0.1245
     34  CA        31.4980  -15.8950   12.1140 C.3    62  VAL62       0.1561
     35  C         32.6660  -16.7750   12.3830 C.2    62  VAL62       0.2260
     36  O         32.5980  -17.6850   13.1730 O.2    62  VAL62      -0.2867
     37  CB        31.4320  -14.6430   13.0300 C.3    62  VAL62       0.0252
     38  CG1       30.2090  -14.6370   13.9110 C.3    62  VAL62       0.0019
     39  CG2       32.7250  -14.4540   13.8080 C.3    62  VAL62       0.0019
     40  N         25.8620  -18.9470   14.1560 N.3    67  LEU67      -0.1245
     41  CA        25.0550  -18.3670   15.2120 C.3    67  LEU67       0.1561
     42  C         23.6610  -18.8670   15.1110 C.2    67  LEU67       0.2260
     43  O         23.2800  -19.3500   14.1010 O.2    67  LEU67      -0.2867
     44  CB        24.9950  -16.8730   15.0960 C.3    67  LEU67       0.0270
     45  CG        26.2840  -16.2500   15.6090 C.3    67  LEU67       0.0019
     46  CD1       27.2780  -16.0890   14.4910 C.3    67  LEU67       0.0001
     47  CD2       26.0280  -14.8980   16.2090 C.3    67  LEU67       0.0001
     48  N         18.2860  -15.8510   13.7620 N.3    70  ARG70      -0.1245
     49  CA        17.5620  -14.6310   14.1980 C.3    70  ARG70       0.1563
     50  C         16.4020  -14.3380   13.2290 C.2    70  ARG70       0.2260
     51  O         16.4210  -14.7570   12.0500 O.2    70  ARG70      -0.2867
     52  CB        18.4710  -13.3740   14.2020 C.3    70  ARG70       0.0307
     53  CG        19.6690  -13.3290   15.1540 C.3    70  ARG70       0.0489
     54  CD        20.8630  -12.6200   14.4960 C.3    70  ARG70       0.2205
     55  NE        21.7210  -11.8270   15.3930 N.pl3  70  ARG70      -0.0865
     56  CZ        22.6760  -12.3470   16.1510 C.cat  70  ARG70       0.5346
     57  NH1       22.8950  -13.6430   16.1490 N.pl3  70  ARG70       0.1354
     58  NH2       23.4030  -11.5850   16.9300 N.pl3  70  ARG70       0.1354
     59  N         21.1770    4.7960    8.8890 N.3    99  PHE99      -0.1227
     60  CA        21.6380    3.7610    9.8030 C.3    99  PHE99       0.1736
     61  C         22.8390    4.2850   10.5820 C.2    99  PHE99       0.2596
     62  O         23.5470    5.1710   10.1440 O.2    99  PHE99      -0.2718
     63  CB        21.9620    2.4510    9.0560 C.3    99  PHE99       0.0547
     64  CG        23.3240    2.4090    8.4430 C.ar   99  PHE99      -0.0202
     65  CD1       24.4280    2.0840    9.1950 C.ar   99  PHE99      -0.0042
     66  CD2       23.5020    2.6610    7.1120 C.ar   99  PHE99      -0.0042
     67  CE1       25.7040    2.0260    8.6380 C.ar   99  PHE99      -0.0003
     68  CE2       24.7670    2.6210    6.5440 C.ar   99  PHE99      -0.0003
     69  CZ        25.8760    2.2900    7.3110 C.ar   99  PHE99      -0.0000
     70  N         23.0680    3.7410   11.7570 N.am  100  SER100     -0.1938
     71  CA        24.1590    4.2260   12.5520 C.3   100  SER100      0.2055
     72  C         24.5310    3.1890   13.5920 C.2   100  SER100      0.2643
     73  O         23.6730    2.6870   14.2680 O.2   100  SER100     -0.2714
     74  CB        23.7180    5.5160   13.2010 C.3   100  SER100      0.2130
     75  OG        24.6270    5.8820   14.1970 O.3   100  SER100     -0.2179
     76  N         25.7960    2.8460   13.7130 N.am  101  PHE101     -0.1973
     77  CA        26.1720    1.8950   14.7340 C.3   101  PHE101      0.1639
     78  C         27.5630    2.1120   15.2260 C.2   101  PHE101      0.2290
     79  O         28.4210    2.4830   14.4370 O.2   101  PHE101     -0.2864
     80  CB        26.0480    0.4890   14.1920 C.3   101  PHE101      0.0560
     81  CG        27.1840    0.0530   13.3100 C.ar  101  PHE101     -0.0200
     82  CD1       28.3460   -0.4530   13.8630 C.ar  101  PHE101     -0.0042
     83  CD2       27.0570    0.0870   11.9350 C.ar  101  PHE101     -0.0042
     84  CE1       29.3840   -0.8870   13.0540 C.ar  101  PHE101     -0.0003
     85  CE2       28.0720   -0.3450   11.1250 C.ar  101  PHE101     -0.0003
     86  CZ        29.2400   -0.8430   11.6790 C.ar  101  PHE101     -0.0000
     87  N         30.8560   -1.4320   19.3220 N.3   104  ILE104     -0.1231
     88  CA        30.8930   -2.8710   19.3430 C.3   104  ILE104      0.1692
     89  C         32.2220   -3.3770   18.7900 C.2   104  ILE104      0.2592
     90  O         32.8260   -2.7610   17.9260 O.2   104  ILE104     -0.2718
     91  CB        29.6800   -3.4650   18.6100 C.3   104  ILE104      0.0266
     92  CG1       28.4930   -3.5270   19.5690 C.3   104  ILE104      0.0019
     93  CG2       29.9330   -4.8760   18.0710 C.3   104  ILE104      0.0020
     94  CD1       27.8020   -2.1930   19.7460 C.3   104  ILE104      0.0001
     95  N         32.6670   -4.5060   19.3370 N.am  105  LEU105     -0.1966
     96  CA        33.9010   -5.1350   18.9580 C.3   105  LEU105      0.1728
     97  C         33.6720   -6.3580   18.0810 C.2   105  LEU105      0.2616
     98  O         33.0640   -7.3570   18.4620 O.2   105  LEU105     -0.2715
     99  CB        34.6630   -5.5310   20.1840 C.3   105  LEU105      0.0311
    100  CG        36.0330   -6.0830   19.8230 C.3   105  LEU105      0.0022
    101  CD1       36.8720   -5.0310   19.1220 C.3   105  LEU105      0.0001
    102  CD2       36.7210   -6.5800   21.0850 C.3   105  LEU105      0.0001
    103  N         34.1880   -6.2810   16.8820 N.am  106  PHE106     -0.1960
    104  CA        33.8830   -7.2550   15.8840 C.3   106  PHE106      0.1756
    105  C         35.1250   -8.0960   15.8400 C.2   106  PHE106      0.2461
    106  O         36.2290   -7.5700   15.7760 O.2   106  PHE106     -0.2730
    107  CB        33.5710   -6.5500   14.5430 C.3   106  PHE106      0.0574
    108  CG        32.1980   -5.9170   14.5050 C.ar  106  PHE106     -0.0200
    109  CD1       31.0730   -6.6970   14.2390 C.ar  106  PHE106     -0.0042
    110  CD2       32.0270   -4.5790   14.7780 C.ar  106  PHE106     -0.0042
    111  CE1       29.8050   -6.1540   14.2180 C.ar  106  PHE106     -0.0003
    112  CE2       30.7610   -4.0300   14.7640 C.ar  106  PHE106     -0.0003
    113  CZ        29.6460   -4.8320   14.4790 C.ar  106  PHE106     -0.0000
    114  N         34.9570   -9.4060   15.9420 N.am  107  PRO107     -0.2727
    115  CA        36.1210  -10.2660   15.8900 C.3   107  PRO107      0.1402
    116  C         36.8530  -10.1290   14.5670 C.2   107  PRO107      0.2269
    117  O         36.2290   -9.9250   13.5550 O.2   107  PRO107     -0.2865
    118  CB        35.5340  -11.6800   16.0460 C.3   107  PRO107      0.0296
    119  CG        34.0620  -11.5690   15.8000 C.3   107  PRO107      0.0237
    120  CD        33.6880  -10.1420   16.0470 C.3   107  PRO107      0.0939
    121  N         32.9880  -13.1270    8.0920 N.3   111  TYR111     -0.1241
    122  CA        31.6730  -13.5890    8.4340 C.3   111  TYR111      0.1605
    123  C         30.8570  -13.8620    7.1880 C.2   111  TYR111      0.2264
    124  O         31.1850  -13.4260    6.0870 O.2   111  TYR111     -0.2867
    125  CB        30.9370  -12.5440    9.2820 C.3   111  TYR111      0.0534
    126  CG        31.8040  -11.6470   10.1070 C.ar  111  TYR111     -0.0201
    127  CD1       32.8340  -12.1410   10.8710 C.ar  111  TYR111     -0.0009
    128  CD2       31.5860  -10.3220   10.1360 C.ar  111  TYR111     -0.0009
    129  CE1       33.6460  -11.3210   11.6250 C.ar  111  TYR111      0.0417
    130  CE2       32.3810   -9.4940   10.8910 C.ar  111  TYR111      0.0417
    131  CZ        33.4100   -9.9960   11.6360 C.ar  111  TYR111      0.1957
    132  OH        34.1770   -9.1320   12.4010 O.3   111  TYR111     -0.2866
    133  N         25.6430  -12.0620    2.1690 N.3   131  PHE131     -0.1241
    134  CA        26.7460  -11.1460    2.3850 C.3   131  PHE131      0.1605
    135  C         27.9950  -11.9120    2.7770 C.2   131  PHE131      0.2264
    136  O         27.9230  -13.0390    3.2330 O.2   131  PHE131     -0.2867
    137  CB        26.4130  -10.1160    3.4720 C.3   131  PHE131      0.0534
    138  CG        25.3610   -9.1170    3.0760 C.ar  131  PHE131     -0.0203
    139  CD1       23.9940   -9.4350    3.1880 C.ar  131  PHE131     -0.0042
    140  CD2       25.7300   -7.8750    2.5740 C.ar  131  PHE131     -0.0042
    141  CE1       23.0120   -8.5250    2.8070 C.ar  131  PHE131     -0.0003
    142  CE2       24.7690   -6.9480    2.2090 C.ar  131  PHE131     -0.0003
    143  CZ        23.4030   -7.2730    2.3140 C.ar  131  PHE131     -0.0000
    144  N         31.6390  -10.6610    4.7840 N.3   133  ILE133     -0.1245
    145  CA        32.2960   -9.5400    5.3670 C.3   133  ILE133      0.1561
    146  C         33.6410  -10.0370    5.7430 C.2   133  ILE133      0.2260
    147  O         33.7530  -11.1200    6.2430 O.2   133  ILE133     -0.2867
    148  CB        31.5500   -9.0450    6.6060 C.3   133  ILE133      0.0252
    149  CG1       30.1370   -8.6070    6.2170 C.3   133  ILE133      0.0019
    150  CG2       32.2820   -7.8860    7.2780 C.3   133  ILE133      0.0019
    151  CD1       29.0580   -9.6240    6.5270 C.3   133  ILE133      0.0001
@<TRIPOS>BOND
     1     4     3    2
     2     3     2    1
     3     1     2    1
     4   133   134    1
     5     2     5    1
     6   142   143   ar
     7   142   140   ar
     8   143   141   ar
     9   134   135    1
    10   134   137    1
    11   140   138   ar
    12     7     5    1
    13   135   136    2
    14     5     6    1
    15   141   139   ar
    16   138   139   ar
    17   138   137    1
    18     6     8    1
    19     9    10    1
    20   144   145    1
    21   145   146    1
    22   145   148    1
    23   146   147    2
    24   124   123    2
    25    10    13    1
    26    10    11    1
    27    16    14    1
    28   149   151    1
    29   149   148    1
    30    14    13    1
    31    12    11    2
    32    13    15    1
    33    68    66   ar
    34    68    69   ar
    35   148   150    1
    36    66    64   ar
    37   123   122    1
    38    69    67   ar
    39   121   122    1
    40   122   125    1
    41    64    63    1
    42    64    65   ar
    43    67    65   ar
    44    59    60    1
    45    63    60    1
    46   125   126    1
    47    60    61    1
    48   126   128   ar
    49   126   127   ar
    50   128   130   ar
    51    62    61    2
    52    17    18    1
    53    23    22    1
    54    22    24    1
    55    22    21    1
    56    25    26    1
    57    26    27    1
    58    26    29    1
    59    61    70   am
    60   127   129   ar
    61   130   131   ar
    62    27    28    2
    63    85    86   ar
    64    85    83   ar
    65    30    29    1
    66    30    32    1
    67    18    21    1
    68    18    19    1
    69    29    31    1
    70   129   131   ar
    71   131   132    1
    72    86    84   ar
    73    70    71    1
    74    83    81   ar
    75    51    50    2
    76    33    34    1
    77    34    35    1
    78    34    37    1
    79    35    36    2
    80    71    74    1
    81    71    72    1
    82    19    20    2
    83    37    39    1
    84    37    38    1
    85    84    82   ar
    86    74    75    1
    87    50    49    1
    88    81    82   ar
    89    81    80    1
    90   117   116    2
    91    72    76   am
    92    72    73    2
    93    76    77    1
    94    48    49    1
    95    43    42    2
    96    40    41    1
    97    80    77    1
    98    49    52    1
    99    52    53    1
   100   111   109   ar
   101   111   113   ar
   102   109   108   ar
   103    79    78    2
   104   113   112   ar
   105    46    45    1
   106    54    53    1
   107    54    55    1
   108   108   107    1
   109   108   110   ar
   110   107   104    1
   111   116   115    1
   112    77    78    1
   113   112   110   ar
   114    44    41    1
   115    44    45    1
   116    42    41    1
   117    55    56    2
   118    45    47    1
   119   106   105    2
   120   119   118    1
   121   119   120    1
   122   105   104    1
   123   105   114   am
   124   104   103    1
   125   115   114    1
   126   115   118    1
   127   114   120    1
   128    57    56    1
   129    56    58    1
   130   103    97   am
   131    90    89    2
   132    93    91    1
   133    97    98    2
   134    97    96    1
   135    91    88    1
   136    91    92    1
   137    89    95   am
   138    89    88    1
   139    96    95    1
   140    96    99    1
   141   101   100    1
   142    87    88    1
   143    92    94    1
   144   100    99    1
   145   100   102    1
