@<TRIPOS>MOLECULE
tmp/5ijcD03.pdb
 122 114 0 0 0
SMALL
GASTEIGER

@<TRIPOS>ATOM
      1  N         33.6390   -1.2590   10.3440 N.3    34  LEU34      -0.1245
      2  CA        33.1890   -1.9640   11.5590 C.3    34  LEU34       0.1561
      3  C         33.5830   -1.2530   12.8580 C.2    34  LEU34       0.2260
      4  O         32.9040   -1.3930   13.8410 O.2    34  LEU34      -0.2867
      5  CB        33.7150   -3.3900   11.5760 C.3    34  LEU34       0.0270
      6  CG        33.3080   -4.3010   10.4000 C.3    34  LEU34       0.0019
      7  CD1       34.1400   -5.5810   10.3760 C.3    34  LEU34       0.0001
      8  CD2       31.8330   -4.6150   10.4720 C.3    34  LEU34       0.0001
      9  N         12.7840  -10.2080    8.3520 N.3    56  PHE56      -0.1241
     10  CA        13.9510  -10.9690    7.9220 C.3    56  PHE56       0.1605
     11  C         14.2670  -12.1480    8.8540 C.2    56  PHE56       0.2264
     12  O         14.0400  -12.0740   10.0500 O.2    56  PHE56      -0.2867
     13  CB        15.1880  -10.0900    7.9260 C.3    56  PHE56       0.0534
     14  CG        15.2550   -9.1550    6.7980 C.ar   56  PHE56      -0.0203
     15  CD1       14.4690   -8.0330    6.7710 C.ar   56  PHE56      -0.0042
     16  CD2       16.1180   -9.3900    5.7500 C.ar   56  PHE56      -0.0042
     17  CE1       14.5390   -7.1430    5.7080 C.ar   56  PHE56      -0.0003
     18  CE2       16.1960   -8.5130    4.6720 C.ar   56  PHE56      -0.0003
     19  CZ        15.4050   -7.3730    4.6540 C.ar   56  PHE56      -0.0000
     20  N         17.7420  -13.9780    9.7610 N.3    58  LEU58      -0.1245
     21  CA        19.1870  -13.9150    9.5980 C.3    58  LEU58       0.1561
     22  C         19.9020  -15.1780   10.0580 C.2    58  LEU58       0.2260
     23  O         19.6480  -15.6790   11.1440 O.2    58  LEU58      -0.2867
     24  CB        19.7350  -12.7010   10.3170 C.3    58  LEU58       0.0270
     25  CG        19.0270  -11.3880    9.9240 C.3    58  LEU58       0.0019
     26  CD1       19.7660  -10.2010   10.4910 C.3    58  LEU58       0.0001
     27  CD2       18.8980  -11.2080    8.4170 C.3    58  LEU58       0.0001
     28  N         23.6710  -16.1770   10.4690 N.3    60  ILE60      -0.1245
     29  CA        25.0390  -15.6860   10.5480 C.3    60  ILE60       0.1561
     30  C         26.0090  -16.7590   10.9460 C.2    60  ILE60       0.2260
     31  O         25.6610  -17.6170   11.7180 O.2    60  ILE60      -0.2867
     32  CB        25.1250  -14.5700   11.6040 C.3    60  ILE60       0.0252
     33  CG1       24.0900  -13.4870   11.2590 C.3    60  ILE60       0.0019
     34  CG2       26.5460  -13.9960   11.7030 C.3    60  ILE60       0.0019
     35  CD1       23.9030  -12.4490   12.3450 C.3    60  ILE60       0.0001
     36  N         30.2890  -16.6650   12.0670 N.3    62  VAL62      -0.1245
     37  CA        31.4980  -15.8950   12.1140 C.3    62  VAL62       0.1561
     38  C         32.6660  -16.7750   12.3830 C.2    62  VAL62       0.2260
     39  O         32.5980  -17.6850   13.1730 O.2    62  VAL62      -0.2867
     40  CB        31.4320  -14.6430   13.0300 C.3    62  VAL62       0.0252
     41  CG1       30.2090  -14.6370   13.9110 C.3    62  VAL62       0.0019
     42  CG2       32.7250  -14.4540   13.8080 C.3    62  VAL62       0.0019
     43  N         18.2860  -15.8510   13.7620 N.3    70  ARG70      -0.1245
     44  CA        17.5620  -14.6310   14.1980 C.3    70  ARG70       0.1563
     45  C         16.4020  -14.3380   13.2290 C.2    70  ARG70       0.2260
     46  O         16.4210  -14.7570   12.0500 O.2    70  ARG70      -0.2867
     47  CB        18.4710  -13.3740   14.2020 C.3    70  ARG70       0.0307
     48  CG        19.6690  -13.3290   15.1540 C.3    70  ARG70       0.0489
     49  CD        20.8630  -12.6200   14.4960 C.3    70  ARG70       0.2205
     50  NE        21.7210  -11.8270   15.3930 N.pl3  70  ARG70      -0.0865
     51  CZ        22.6760  -12.3470   16.1510 C.cat  70  ARG70       0.5346
     52  NH1       22.8950  -13.6430   16.1490 N.pl3  70  ARG70       0.1354
     53  NH2       23.4030  -11.5850   16.9300 N.pl3  70  ARG70       0.1354
     54  N         14.2100  -10.7010   12.3360 N.3    72  GLU72      -0.1245
     55  CA        14.0230   -9.2520   12.6150 C.3    72  GLU72       0.1567
     56  C         12.8800   -8.5910   11.8730 C.2    72  GLU72       0.2260
     57  O         12.7850   -8.6440   10.6630 O.2    72  GLU72      -0.2867
     58  CB        15.2850   -8.4940   12.3060 C.3    72  GLU72       0.0388
     59  CG        16.4590   -8.9470   13.1650 C.3    72  GLU72       0.1160
     60  CD        16.3150   -8.6600   14.6830 C.2    72  GLU72       0.3649
     61  OE1       15.5400   -7.7480   15.1230 O.co2  72  GLU72      -0.2457
     62  OE2       17.0400   -9.3520   15.4530 O.co2  72  GLU72      -0.2457
     63  N         34.1880   -6.2810   16.8820 N.3   106  PHE106     -0.1228
     64  CA        33.8830   -7.2550   15.8840 C.3   106  PHE106      0.1721
     65  C         35.1250   -8.0960   15.8400 C.2   106  PHE106      0.2437
     66  O         36.2290   -7.5700   15.7760 O.2   106  PHE106     -0.2733
     67  CB        33.5710   -6.5500   14.5430 C.3   106  PHE106      0.0547
     68  CG        32.1980   -5.9170   14.5050 C.ar  106  PHE106     -0.0202
     69  CD1       31.0730   -6.6970   14.2390 C.ar  106  PHE106     -0.0042
     70  CD2       32.0270   -4.5790   14.7780 C.ar  106  PHE106     -0.0042
     71  CE1       29.8050   -6.1540   14.2180 C.ar  106  PHE106     -0.0003
     72  CE2       30.7610   -4.0300   14.7640 C.ar  106  PHE106     -0.0003
     73  CZ        29.6460   -4.8320   14.4790 C.ar  106  PHE106     -0.0000
     74  N         34.9570   -9.4060   15.9420 N.am  107  PRO107     -0.2729
     75  CA        36.1210  -10.2660   15.8900 C.3   107  PRO107      0.1401
     76  C         36.8530  -10.1290   14.5670 C.2   107  PRO107      0.2269
     77  O         36.2290   -9.9250   13.5550 O.2   107  PRO107     -0.2865
     78  CB        35.5340  -11.6800   16.0460 C.3   107  PRO107      0.0296
     79  CG        34.0620  -11.5690   15.8000 C.3   107  PRO107      0.0237
     80  CD        33.6880  -10.1420   16.0470 C.3   107  PRO107      0.0939
     81  N         32.9880  -13.1270    8.0920 N.3   111  TYR111     -0.1241
     82  CA        31.6730  -13.5890    8.4340 C.3   111  TYR111      0.1605
     83  C         30.8570  -13.8620    7.1880 C.2   111  TYR111      0.2264
     84  O         31.1850  -13.4260    6.0870 O.2   111  TYR111     -0.2867
     85  CB        30.9370  -12.5440    9.2820 C.3   111  TYR111      0.0534
     86  CG        31.8040  -11.6470   10.1070 C.ar  111  TYR111     -0.0201
     87  CD1       32.8340  -12.1410   10.8710 C.ar  111  TYR111     -0.0009
     88  CD2       31.5860  -10.3220   10.1360 C.ar  111  TYR111     -0.0009
     89  CE1       33.6460  -11.3210   11.6250 C.ar  111  TYR111      0.0417
     90  CE2       32.3810   -9.4940   10.8910 C.ar  111  TYR111      0.0417
     91  CZ        33.4100   -9.9960   11.6360 C.ar  111  TYR111      0.1957
     92  OH        34.1770   -9.1320   12.4010 O.3   111  TYR111     -0.2866
     93  N         26.5810  -13.7120    6.2640 N.3   113  CYS113     -0.1235
     94  CA        25.2350  -13.4790    6.7290 C.3   113  CYS113      0.1677
     95  C         24.2180  -13.6610    5.5940 C.2   113  CYS113      0.2270
     96  O         24.1830  -12.8840    4.6290 O.2   113  CYS113     -0.2867
     97  CB        25.1270  -12.0750    7.2960 C.3   113  CYS113      0.0956
     98  SG        23.4200  -11.6470    7.6580 S.3   113  CYS113     -0.0801
     99  N         20.5460  -13.1860    4.7130 N.3   115  ALA115     -0.1245
    100  CA        19.3570  -12.4620    5.0810 C.3   115  ALA115      0.1562
    101  C         18.2870  -12.8280    4.0950 C.2   115  ALA115      0.2260
    102  O         18.4430  -12.6310    2.9150 O.2   115  ALA115     -0.2867
    103  CB        19.6210  -10.9690    4.9990 C.3   115  ALA115      0.0290
    104  N         25.6430  -12.0620    2.1690 N.3   131  PHE131     -0.1241
    105  CA        26.7460  -11.1460    2.3850 C.3   131  PHE131      0.1605
    106  C         27.9950  -11.9120    2.7770 C.2   131  PHE131      0.2264
    107  O         27.9230  -13.0390    3.2330 O.2   131  PHE131     -0.2867
    108  CB        26.4130  -10.1160    3.4720 C.3   131  PHE131      0.0534
    109  CG        25.3610   -9.1170    3.0760 C.ar  131  PHE131     -0.0203
    110  CD1       23.9940   -9.4350    3.1880 C.ar  131  PHE131     -0.0042
    111  CD2       25.7300   -7.8750    2.5740 C.ar  131  PHE131     -0.0042
    112  CE1       23.0120   -8.5250    2.8070 C.ar  131  PHE131     -0.0003
    113  CE2       24.7690   -6.9480    2.2090 C.ar  131  PHE131     -0.0003
    114  CZ        23.4030   -7.2730    2.3140 C.ar  131  PHE131     -0.0000
    115  N         31.6390  -10.6610    4.7840 N.3   133  ILE133     -0.1245
    116  CA        32.2960   -9.5400    5.3670 C.3   133  ILE133      0.1561
    117  C         33.6410  -10.0370    5.7430 C.2   133  ILE133      0.2260
    118  O         33.7530  -11.1200    6.2430 O.2   133  ILE133     -0.2867
    119  CB        31.5500   -9.0450    6.6060 C.3   133  ILE133      0.0252
    120  CG1       30.1370   -8.6070    6.2170 C.3   133  ILE133      0.0019
    121  CG2       32.2820   -7.8860    7.2780 C.3   133  ILE133      0.0019
    122  CD1       29.0580   -9.6240    6.5270 C.3   133  ILE133      0.0001
@<TRIPOS>BOND
     1   104   105    1
     2   113   114   ar
     3   113   111   ar
     4   114   112   ar
     5   105   106    1
     6   105   108    1
     7   111   109   ar
     8   106   107    2
     9   112   110   ar
    10   102   101    2
    11   109   110   ar
    12   109   108    1
    13   101   100    1
    14    96    95    2
    15    19    18   ar
    16    19    17   ar
    17    18    16   ar
    18    99   100    1
    19   115   116    1
    20   103   100    1
    21   116   117    1
    22   116   119    1
    23    95    94    1
    24    17    15   ar
    25   117   118    2
    26    16    14   ar
    27    84    83    2
    28   120   122    1
    29   120   119    1
    30    93    94    1
    31   119   121    1
    32    94    97    1
    33    15    14   ar
    34    14    13    1
    35    83    82    1
    36    97    98    1
    37    10    13    1
    38    10     9    1
    39    10    11    1
    40    81    82    1
    41    27    25    1
    42    82    85    1
    43    11    12    2
    44    85    86    1
    45    21    20    1
    46    21    22    1
    47    21    24    1
    48    25    24    1
    49    25    26    1
    50    22    23    2
    51    86    88   ar
    52    86    87   ar
    53    88    90   ar
    54     1     2    1
    55     7     6    1
    56     6     8    1
    57     6     5    1
    58    28    29    1
    59    29    30    1
    60    29    32    1
    61    57    56    2
    62    87    89   ar
    63    90    91   ar
    64    30    31    2
    65    33    32    1
    66    33    35    1
    67     2     5    1
    68     2     3    1
    69    32    34    1
    70    89    91   ar
    71    91    92    1
    72    56    55    1
    73    46    45    2
    74    36    37    1
    75    37    38    1
    76    37    40    1
    77    58    55    1
    78    58    59    1
    79    54    55    1
    80    38    39    2
    81     3     4    2
    82    40    42    1
    83    40    41    1
    84    59    60    1
    85    45    44    1
    86    77    76    2
    87    43    44    1
    88    44    47    1
    89    47    48    1
    90    71    69   ar
    91    71    73   ar
    92    69    68   ar
    93    73    72   ar
    94    49    48    1
    95    49    50    1
    96    68    67    1
    97    68    70   ar
    98    67    64    1
    99    76    75    1
   100    60    61   ar
   101    60    62   ar
   102    72    70   ar
   103    50    51    2
   104    66    65    2
   105    79    78    1
   106    79    80    1
   107    65    64    1
   108    65    74   am
   109    64    63    1
   110    75    74    1
   111    75    78    1
   112    74    80    1
   113    52    51    1
   114    51    53    1
