@<TRIPOS>MOLECULE
tmp/5ijcA05.pdb
 114 108 0 0 0
SMALL
GASTEIGER

@<TRIPOS>ATOM
      1  N         23.2520  -20.6380   37.0430 N.3   428  TYR428     -0.1241
      2  CA        21.8280  -20.4710   37.1920 C.3   428  TYR428      0.1605
      3  C         21.2760  -19.2730   36.5300 C.2   428  TYR428      0.2264
      4  O         20.4170  -18.6360   37.1190 O.2   428  TYR428     -0.2867
      5  CB        21.4660  -20.4530   38.6560 C.3   428  TYR428      0.0534
      6  CG        22.0700  -21.6150   39.3630 C.ar  428  TYR428     -0.0201
      7  CD1       21.6060  -22.8900   39.1420 C.ar  428  TYR428     -0.0009
      8  CD2       23.1590  -21.4370   40.2330 C.ar  428  TYR428     -0.0009
      9  CE1       22.1690  -23.9670   39.7890 C.ar  428  TYR428      0.0417
     10  CE2       23.7350  -22.5160   40.8840 C.ar  428  TYR428      0.0417
     11  CZ        23.2360  -23.7820   40.6540 C.ar  428  TYR428      0.1957
     12  OH        23.8020  -24.8790   41.3030 O.3   428  TYR428     -0.2866
     13  N         39.5790  -23.4750   37.2080 N.3   472  PHE472     -0.1241
     14  CA        38.3740  -23.9700   37.8770 C.3   472  PHE472      0.1605
     15  C         37.2160  -23.9060   36.8920 C.2   472  PHE472      0.2264
     16  O         36.9950  -22.8550   36.2910 O.2   472  PHE472     -0.2867
     17  CB        38.0680  -23.0570   39.0300 C.3   472  PHE472      0.0534
     18  CG        36.8600  -23.4410   39.8460 C.ar  472  PHE472     -0.0203
     19  CD1       35.5610  -23.2550   39.3630 C.ar  472  PHE472     -0.0042
     20  CD2       37.0060  -23.9130   41.1510 C.ar  472  PHE472     -0.0042
     21  CE1       34.4380  -23.5370   40.1300 C.ar  472  PHE472     -0.0003
     22  CE2       35.8850  -24.2150   41.9260 C.ar  472  PHE472     -0.0003
     23  CZ        34.5940  -24.0170   41.4010 C.ar  472  PHE472     -0.0000
     24  N         33.1380  -25.3510   36.6410 N.3   474  ASP474     -0.1239
     25  CA        31.9800  -26.0110   37.1920 C.3   474  ASP474      0.1674
     26  C         30.8370  -26.0460   36.1810 C.2   474  ASP474      0.2266
     27  O         30.2660  -24.9800   35.8310 O.2   474  ASP474     -0.2867
     28  CB        31.4970  -25.2780   38.4210 C.3   474  ASP474      0.1410
     29  CG        30.3700  -26.0070   39.1070 C.2   474  ASP474      0.3668
     30  OD1       29.9500  -27.0710   38.5980 O.co2 474  ASP474     -0.2456
     31  OD2       29.9290  -25.5610   40.1830 O.co2 474  ASP474     -0.2456
     32  N         28.3900  -28.4620   36.7350 N.3   476  SER476     -0.1202
     33  CA        27.4340  -29.2290   37.4220 C.3   476  SER476      0.2020
     34  C         26.0290  -28.7500   37.0570 C.2   476  SER476      0.2618
     35  O         25.8450  -27.5970   36.7250 O.2   476  SER476     -0.2717
     36  CB        27.7080  -29.1460   38.9250 C.3   476  SER476      0.2103
     37  OG        27.4260  -27.8430   39.4450 O.3   476  SER476     -0.2182
     38  N         25.0610  -29.6810   37.0820 N.am  477  LYS477     -0.1979
     39  CA        23.6460  -29.4210   36.8340 C.3   477  LYS477      0.1596
     40  C         23.3550  -28.7890   35.5090 C.2   477  LYS477      0.2287
     41  O         22.4580  -27.9050   35.3930 O.2   477  LYS477     -0.2864
     42  CB        23.0800  -28.5490   37.8900 C.3   477  LYS477      0.0298
     43  CG        23.3490  -29.1250   39.2380 C.3   477  LYS477      0.0038
     44  CD        22.2920  -28.5930   40.1700 C.3   477  LYS477      0.0206
     45  CE        22.7190  -28.5710   41.6210 C.3   477  LYS477      0.1093
     46  NZ        21.9960  -27.4230   42.2680 N.3   477  LYS477     -0.1314
     47  N         40.2980  -27.9990   38.8710 N.3   496  LEU496     -0.1245
     48  CA        39.0560  -28.5690   39.3000 C.3   496  LEU496      0.1561
     49  C         38.0690  -28.6980   38.1160 C.2   496  LEU496      0.2260
     50  O         37.9390  -27.7630   37.3010 O.2   496  LEU496     -0.2867
     51  CB        38.4660  -27.6690   40.3230 C.3   496  LEU496      0.0270
     52  CG        37.2060  -28.2440   40.9730 C.3   496  LEU496      0.0019
     53  CD1       37.1280  -27.8260   42.4380 C.3   496  LEU496      0.0001
     54  CD2       35.9460  -27.8070   40.2680 C.3   496  LEU496      0.0001
     55  N         34.0710  -29.8590   37.8160 N.3   498  ASN498     -0.1240
     56  CA        32.8670  -30.4180   38.3280 C.3   498  ASN498      0.1653
     57  C         31.8640  -30.6630   37.2240 C.2   498  ASN498      0.2266
     58  O         31.3900  -29.7530   36.5730 O.2   498  ASN498     -0.2867
     59  CB        32.2850  -29.5000   39.3360 C.3   498  ASN498      0.1155
     60  CG        31.2770  -30.1930   40.2270 C.2   498  ASN498      0.2627
     61  OD1       30.7550  -31.2580   39.8690 O.2   498  ASN498     -0.2716
     62  ND2       30.9960  -29.5910   41.3970 N.am  498  ASN498     -0.0877
     63  N         29.3930  -33.1210   38.0170 N.3   500  SER500     -0.1202
     64  CA        28.3950  -33.8800   38.7140 C.3   500  SER500      0.2020
     65  C         26.9920  -33.3750   38.4280 C.2   500  SER500      0.2618
     66  O         26.8160  -32.3230   37.8130 O.2   500  SER500     -0.2717
     67  CB        28.6170  -33.7420   40.2070 C.3   500  SER500      0.2103
     68  OG        28.3440  -32.4190   40.5490 O.3   500  SER500     -0.2182
     69  N         26.0100  -34.1460   38.8940 N.am  501  HIS501     -0.1975
     70  CA        24.6100  -33.8720   38.6870 C.3   501  HIS501      0.1656
     71  C         24.2740  -33.5770   37.2720 C.2   501  HIS501      0.2291
     72  O         23.5910  -32.6280   37.0230 O.2   501  HIS501     -0.2864
     73  CB        24.1520  -32.7170   39.5330 C.3   501  HIS501      0.0771
     74  CG        24.3260  -32.9540   40.9860 C.ar  501  HIS501      0.0820
     75  ND1       23.2660  -33.2150   41.8240 N.ar  501  HIS501     -0.2267
     76  CD2       25.4310  -32.9760   41.7630 C.ar  501  HIS501      0.1154
     77  CE1       23.7070  -33.3920   43.0580 C.ar  501  HIS501      0.1986
     78  NE2       25.0200  -33.2520   43.0470 N.ar  501  HIS501     -0.2212
     79  N         41.0150  -32.0930   41.3030 N.3   520  GLU520     -0.1245
     80  CA        39.7200  -32.6190   41.7100 C.3   520  GLU520      0.1567
     81  C         38.8900  -32.8730   40.4550 C.2   520  GLU520      0.2260
     82  O         38.9190  -32.0780   39.5080 O.2   520  GLU520     -0.2867
     83  CB        39.0060  -31.6890   42.6610 C.3   520  GLU520      0.0388
     84  CG        39.9210  -30.8350   43.5610 C.3   520  GLU520      0.1160
     85  CD        39.3240  -30.4650   44.9430 C.2   520  GLU520      0.3649
     86  OE1       38.0930  -30.2790   45.1130 O.co2 520  GLU520     -0.2457
     87  OE2       40.1020  -30.3780   45.9210 O.co2 520  GLU520     -0.2457
     88  N         34.9240  -34.2180   39.7370 N.3   522  ALA522     -0.1245
     89  CA        33.6220  -34.6940   40.2230 C.3   522  ALA522      0.1562
     90  C         32.7390  -35.2080   39.0980 C.2   522  ALA522      0.2260
     91  O         32.3770  -34.4550   38.1900 O.2   522  ALA522     -0.2867
     92  CB        32.9060  -33.5900   40.9080 C.3   522  ALA522      0.0290
     93  N         30.0700  -37.5220   40.2610 N.3   524  ASP524     -0.1239
     94  CA        29.0450  -38.2160   40.9770 C.3   524  ASP524      0.1674
     95  C         27.6970  -37.8120   40.4530 C.2   524  ASP524      0.2266
     96  O         27.5490  -36.7510   39.8870 O.2   524  ASP524     -0.2867
     97  CB        29.0590  -37.8500   42.4150 C.3   524  ASP524      0.1410
     98  CG        28.9540  -36.3640   42.6330 C.2   524  ASP524      0.3668
     99  OD1       29.9890  -35.6730   42.3300 O.co2 524  ASP524     -0.2456
    100  OD2       27.8580  -35.9040   43.0920 O.co2 524  ASP524     -0.2456
    101  N         35.1770  -37.9040   42.7390 N.3   546  TRP546     -0.1241
    102  CA        33.8900  -38.3320   43.2430 C.3   546  TRP546      0.1605
    103  C         33.1760  -39.1920   42.1990 C.2   546  TRP546      0.2264
    104  O         33.0960  -38.8020   41.0740 O.2   546  TRP546     -0.2867
    105  CB        33.0580  -37.1280   43.4990 C.3   546  TRP546      0.0550
    106  CG        33.4410  -36.2460   44.6400 C.ar  546  TRP546      0.0003
    107  CD1       32.7360  -36.0810   45.7870 C.ar  546  TRP546      0.0946
    108  CD2       34.5160  -35.2880   44.7050 C.ar  546  TRP546      0.0152
    109  NE1       33.3190  -35.1190   46.5820 N.ar  546  TRP546     -0.2442
    110  CE2       34.4160  -34.6240   45.9430 C.ar  546  TRP546      0.0810
    111  CE3       35.5760  -34.9670   43.8650 C.ar  546  TRP546      0.0012
    112  CZ2       35.3220  -33.6560   46.3550 C.ar  546  TRP546      0.0191
    113  CZ3       36.4660  -33.9680   44.2650 C.ar  546  TRP546      0.0001
    114  CH2       36.3310  -33.3250   45.5040 C.ar  546  TRP546      0.0015
@<TRIPOS>BOND
     1    41    40    2
     2    40    39    1
     3    27    26    2
     4    26    25    1
     5    16    15    2
     6     3     4    2
     7     3     2    1
     8    58    57    2
     9    24    25    1
    10    35    34    2
    11    32    33    1
    12    39    38    1
    13    39    42    1
    14    15    14    1
    15    72    71    2
    16     1     2    1
    17    34    38   am
    18    34    33    1
    19    25    28    1
    20     2     5    1
    21    13    14    1
    22    57    56    1
    23    71    70    1
    24    50    49    2
    25    33    36    1
    26    66    65    2
    27    55    56    1
    28    14    17    1
    29    42    43    1
    30    63    64    1
    31    49    48    1
    32    91    90    2
    33    56    59    1
    34    28    29    1
    35    65    64    1
    36    65    69   am
    37    30    29   ar
    38     5     6    1
    39    70    69    1
    40    70    73    1
    41    64    67    1
    42    47    48    1
    43    36    37    1
    44    17    18    1
    45    90    89    1
    46    29    31   ar
    47     7     6   ar
    48     7     9   ar
    49    43    44    1
    50    48    51    1
    51    59    60    1
    52    19    18   ar
    53    19    21   ar
    54     6     8   ar
    55    82    81    2
    56    73    74    1
    57    88    89    1
    58     9    11   ar
    59    18    20   ar
    60    61    60    2
    61    96    95    2
    62    21    23   ar
    63    44    45    1
    64    67    68    1
    65    89    92    1
    66    60    62   am
    67     8    10   ar
    68    93    94    1
    69    54    52    1
    70    51    52    1
    71    95    94    1
    72    81    80    1
    73    11    10   ar
    74    11    12    1
    75    52    53    1
    76    94    97    1
    77    74    76   ar
    78    74    75   ar
    79   104   103    2
    80    20    22   ar
    81    79    80    1
    82    23    22   ar
    83    45    46    1
    84    80    83    1
    85    76    78   ar
    86    75    77   ar
    87   103   102    1
    88    99    98   ar
    89    97    98    1
    90    98   100   ar
    91    83    84    1
    92   101   102    1
    93    78    77   ar
    94   102   105    1
    95   105   106    1
    96    84    85    1
    97   111   113   ar
    98   111   108   ar
    99   113   114   ar
   100   106   108   ar
   101   106   107   ar
   102   108   110   ar
   103    85    86   ar
   104    85    87   ar
   105   114   112   ar
   106   107   109   ar
   107   110   112   ar
   108   110   109   ar
