@<TRIPOS>MOLECULE
tmp/5ijdB02.pdb
 222 214 0 0 0
SMALL
GASTEIGER

@<TRIPOS>ATOM
      1  N         -5.5550  -20.8330   74.8870 N.3     4  TRP4       -0.1241
      2  CA        -6.2460  -19.5510   74.7670 C.3     4  TRP4        0.1605
      3  C         -7.2160  -19.6470   73.6180 C.2     4  TRP4        0.2264
      4  O         -7.0970  -20.5250   72.7960 O.2     4  TRP4       -0.2867
      5  CB        -5.2390  -18.4330   74.5130 C.3     4  TRP4        0.0550
      6  CG        -5.8740  -17.1170   74.3810 C.ar    4  TRP4        0.0003
      7  CD1       -6.4590  -16.3930   75.3690 C.ar    4  TRP4        0.0946
      8  CD2       -6.0220  -16.3540   73.1750 C.ar    4  TRP4        0.0152
      9  NE1       -6.9690  -15.2170   74.8580 N.ar    4  TRP4       -0.2442
     10  CE2       -6.7150  -15.1690   73.5130 C.ar    4  TRP4        0.0810
     11  CE3       -5.6280  -16.5530   71.8440 C.ar    4  TRP4        0.0012
     12  CZ2       -7.0240  -14.1860   72.5700 C.ar    4  TRP4        0.0191
     13  CZ3       -5.9450  -15.5870   70.9120 C.ar    4  TRP4        0.0001
     14  CH2       -6.6360  -14.4130   71.2780 C.ar    4  TRP4        0.0015
     15  N        -10.4830  -18.4210   66.6940 N.3    13  ILE13      -0.1245
     16  CA        -9.0800  -18.7470   66.7580 C.3    13  ILE13       0.1561
     17  C         -8.8570  -19.4090   68.1060 C.2    13  ILE13       0.2260
     18  O         -9.6700  -19.2650   69.0010 O.2    13  ILE13      -0.2867
     19  CB        -8.2580  -17.4430   66.5720 C.3    13  ILE13       0.0252
     20  CG1       -8.6180  -16.7960   65.2220 C.3    13  ILE13       0.0019
     21  CG2       -6.7680  -17.7230   66.6010 C.3    13  ILE13       0.0019
     22  CD1       -8.9250  -15.3220   65.2810 C.3    13  ILE13       0.0001
     23  N          4.7590  -20.3040   76.3060 N.3    25  ILE25      -0.1245
     24  CA         4.5300  -18.9400   75.8640 C.3    25  ILE25       0.1561
     25  C          3.0600  -18.6420   76.0620 C.2    25  ILE25       0.2260
     26  O          2.2040  -19.5430   75.9680 O.2    25  ILE25      -0.2867
     27  CB         4.7610  -18.7510   74.3560 C.3    25  ILE25       0.0252
     28  CG1        6.2530  -18.8510   74.0370 C.3    25  ILE25       0.0019
     29  CG2        4.1190  -17.4350   73.8490 C.3    25  ILE25       0.0019
     30  CD1        6.7440  -17.8990   72.9590 C.3    25  ILE25       0.0001
     31  N          0.4540  -15.9670   74.3610 N.3    27  ILE27      -0.1231
     32  CA         0.3400  -15.0220   73.2940 C.3    27  ILE27       0.1692
     33  C         -1.1240  -14.7610   73.0630 C.2    27  ILE27       0.2593
     34  O         -1.9540  -15.6100   73.3390 O.2    27  ILE27      -0.2718
     35  CB         1.0140  -15.5970   72.0410 C.3    27  ILE27       0.0266
     36  CG1        1.1830  -14.5400   70.9840 C.3    27  ILE27       0.0019
     37  CG2        0.1970  -16.7340   71.4500 C.3    27  ILE27       0.0020
     38  CD1        2.1190  -15.0020   69.9040 C.3    27  ILE27       0.0001
     39  N         -1.4460  -13.5930   72.5530 N.am   28  SER28      -0.1938
     40  CA        -2.8310  -13.3010   72.2390 C.3    28  SER28       0.2055
     41  C         -2.9500  -12.0480   71.3730 C.2    28  SER28       0.2643
     42  O         -1.9800  -11.3180   71.1510 O.2    28  SER28      -0.2714
     43  CB        -3.6360  -13.0960   73.5170 C.3    28  SER28       0.2130
     44  OG        -3.2610  -11.8760   74.1430 O.3    28  SER28      -0.2179
     45  N         -4.1480  -11.7930   70.8850 N.am   29  SER29      -0.1949
     46  CA        -4.3440  -10.6320   70.0720 C.3    29  SER29       0.1924
     47  C         -5.3740   -9.8230   70.7470 C.2    29  SER29       0.2314
     48  O         -6.2660  -10.3760   71.3820 O.2    29  SER29      -0.2863
     49  CB        -4.8630  -11.0030   68.6790 C.3    29  SER29       0.2116
     50  OG        -6.2840  -11.1590   68.6640 O.3    29  SER29      -0.2180
     51  N         -8.7530  -11.6010   65.8940 N.3    33  ILE33      -0.1245
     52  CA        -8.6150  -11.4650   64.4540 C.3    33  ILE33       0.1561
     53  C         -9.9140  -11.7000   63.6820 C.2    33  ILE33       0.2260
     54  O        -10.5760  -12.7270   63.8230 O.2    33  ILE33      -0.2867
     55  CB        -7.4650  -12.3360   63.9220 C.3    33  ILE33       0.0252
     56  CG1       -6.1250  -11.7410   64.4240 C.3    33  ILE33       0.0019
     57  CG2       -7.5020  -12.4180   62.4020 C.3    33  ILE33       0.0019
     58  CD1       -4.9080  -12.6160   64.2280 C.3    33  ILE33       0.0001
     59  N         -0.3240   -8.0570   69.0640 N.3    42  VAL42      -0.1245
     60  CA        -0.0910   -9.3780   69.5480 C.3    42  VAL42       0.1561
     61  C          0.7150   -9.2330   70.8070 C.2    42  VAL42       0.2260
     62  O          1.8410   -8.7420   70.7700 O.2    42  VAL42      -0.2867
     63  CB         0.6760  -10.2300   68.5490 C.3    42  VAL42       0.0252
     64  CG1        0.9460  -11.6000   69.1370 C.3    42  VAL42       0.0019
     65  CG2       -0.1350  -10.3520   67.2850 C.3    42  VAL42       0.0019
     66  N          2.7490  -10.8240   73.7520 N.3    44  VAL44      -0.1245
     67  CA         3.6230  -11.9870   73.9020 C.3    44  VAL44       0.1561
     68  C          4.4150  -11.8400   75.1880 C.2    44  VAL44       0.2260
     69  O          5.1510  -10.8500   75.3390 O.2    44  VAL44      -0.2867
     70  CB         4.6830  -12.0850   72.7660 C.3    44  VAL44       0.0252
     71  CG1        5.7880  -13.0900   73.1040 C.3    44  VAL44       0.0019
     72  CG2        4.0470  -12.4450   71.4310 C.3    44  VAL44       0.0019
     73  N          6.9520  -14.4550   77.5630 N.3    46  PHE46      -0.1241
     74  CA         7.5530  -15.7740   77.6520 C.3    46  PHE46       0.1605
     75  C          9.0170  -15.6670   77.9370 C.2    46  PHE46       0.2264
     76  O          9.5680  -14.5750   77.9470 O.2    46  PHE46      -0.2867
     77  CB         7.3630  -16.5850   76.3390 C.3    46  PHE46       0.0534
     78  CG         8.3760  -16.2790   75.2400 C.ar   46  PHE46      -0.0203
     79  CD1        8.3920  -15.0400   74.5960 C.ar   46  PHE46      -0.0042
     80  CD2        9.2930  -17.2410   74.8300 C.ar   46  PHE46      -0.0042
     81  CE1        9.3150  -14.7710   73.5870 C.ar   46  PHE46      -0.0003
     82  CE2       10.2060  -16.9800   73.8100 C.ar   46  PHE46      -0.0003
     83  CZ        10.2210  -15.7480   73.1880 C.ar   46  PHE46      -0.0000
     84  N         17.1140  -14.5710   70.4590 N.3    52  LEU52      -0.1245
     85  CA        16.0570  -14.2170   69.5090 C.3    52  LEU52       0.1561
     86  C         16.5880  -13.3750   68.3760 C.2    52  LEU52       0.2260
     87  O         15.8220  -12.8090   67.5920 O.2    52  LEU52      -0.2867
     88  CB        14.9680  -13.4520   70.2390 C.3    52  LEU52       0.0270
     89  CG        14.2870  -14.3030   71.2870 C.3    52  LEU52       0.0019
     90  CD1       13.2250  -13.4990   72.0250 C.3    52  LEU52       0.0001
     91  CD2       13.6880  -15.5500   70.6720 C.3    52  LEU52       0.0001
     92  N         15.2580  -14.7960   65.3750 N.3    55  LEU55      -0.1245
     93  CA        13.9810  -15.4660   65.4480 C.3    55  LEU55       0.1561
     94  C         13.3320  -15.4900   64.0640 C.2    55  LEU55       0.2260
     95  O         13.2650  -14.4570   63.4340 O.2    55  LEU55      -0.2867
     96  CB        13.0680  -14.7370   66.4130 C.3    55  LEU55       0.0270
     97  CG        11.6070  -15.1460   66.2880 C.3    55  LEU55       0.0019
     98  CD1       11.4310  -16.5330   66.8450 C.3    55  LEU55       0.0001
     99  CD2       10.7050  -14.1890   67.0310 C.3    55  LEU55       0.0001
    100  N          9.9270  -17.9380   61.7810 N.3    57  PHE57      -0.1241
    101  CA         8.8590  -18.9380   61.9090 C.3    57  PHE57       0.1605
    102  C          8.6660  -19.8170   60.7080 C.2    57  PHE57       0.2264
    103  O          8.8070  -19.3520   59.5920 O.2    57  PHE57      -0.2867
    104  CB         7.5210  -18.2570   62.1090 C.3    57  PHE57       0.0534
    105  CG         7.2850  -17.8130   63.4900 C.ar   57  PHE57      -0.0203
    106  CD1        7.8060  -16.6190   63.9340 C.ar   57  PHE57      -0.0042
    107  CD2        6.5380  -18.5770   64.3390 C.ar   57  PHE57      -0.0042
    108  CE1        7.5930  -16.1860   65.2350 C.ar   57  PHE57      -0.0003
    109  CE2        6.3180  -18.1580   65.6420 C.ar   57  PHE57      -0.0003
    110  CZ         6.8480  -16.9610   66.0970 C.ar   57  PHE57      -0.0000
    111  N          8.6130  -17.0320   57.6540 N.3    73  GLU73      -0.1245
    112  CA         8.4230  -15.6260   57.9880 C.3    73  GLU73       0.1567
    113  C          9.4950  -15.1880   58.9430 C.2    73  GLU73       0.2260
    114  O          9.5320  -15.5960   60.0740 O.2    73  GLU73      -0.2867
    115  CB         7.0460  -15.4270   58.5930 C.3    73  GLU73       0.0388
    116  CG         5.9290  -15.8910   57.6690 C.3    73  GLU73       0.1160
    117  CD         5.6430  -14.9210   56.5310 C.2    73  GLU73       0.3649
    118  OE1        4.4670  -14.7850   56.1520 O.co2  73  GLU73      -0.2457
    119  OE2        6.5630  -14.2660   56.0210 O.co2  73  GLU73      -0.2457
    120  N         11.2230  -12.7570   61.4290 N.3    75  LEU75      -0.1245
    121  CA        10.9640  -11.5970   62.2860 C.3    75  LEU75       0.1561
    122  C         12.2130  -10.8460   62.6380 C.2    75  LEU75       0.2260
    123  O         12.2660   -9.6400   62.5660 O.2    75  LEU75      -0.2867
    124  CB        10.3390  -12.0580   63.5620 C.3    75  LEU75       0.0270
    125  CG         8.8340  -12.1820   63.4200 C.3    75  LEU75       0.0019
    126  CD1        8.3170  -12.6550   64.7780 C.3    75  LEU75       0.0001
    127  CD2        8.1710  -10.8720   63.0080 C.3    75  LEU75       0.0001
    128  N         12.2800   -4.8150   66.0270 N.3    83  TYR83      -0.1241
    129  CA        11.6310   -5.0820   67.3160 C.3    83  TYR83       0.1605
    130  C         12.6170   -5.1690   68.4870 C.2    83  TYR83       0.2264
    131  O         13.7200   -5.6960   68.3400 O.2    83  TYR83      -0.2867
    132  CB        10.7710   -6.3540   67.2340 C.3    83  TYR83       0.0534
    133  CG         9.7290   -6.3620   66.1150 C.ar   83  TYR83      -0.0201
    134  CD1        8.5560   -5.6390   66.2300 C.ar   83  TYR83      -0.0009
    135  CD2        9.9150   -7.1180   64.9500 C.ar   83  TYR83      -0.0009
    136  CE1        7.6130   -5.6180   65.2190 C.ar   83  TYR83       0.0417
    137  CE2        8.9670   -7.1160   63.9270 C.ar   83  TYR83       0.0417
    138  CZ         7.8170   -6.3580   64.0720 C.ar   83  TYR83       0.1957
    139  OH         6.8620   -6.3190   63.0890 O.3    83  TYR83      -0.2866
    140  N         12.7350   -7.1590   70.9970 N.3    85  PHE85      -0.1241
    141  CA        13.0000   -8.5110   71.4660 C.3    85  PHE85       0.1605
    142  C         14.0060   -9.2810   70.6580 C.2    85  PHE85       0.2264
    143  O         14.5270  -10.2760   71.1280 O.2    85  PHE85      -0.2867
    144  CB        11.7140   -9.3430   71.5980 C.3    85  PHE85       0.0534
    145  CG        10.8940   -9.4110   70.3580 C.ar   85  PHE85      -0.0203
    146  CD1       11.3250  -10.1280   69.2540 C.ar   85  PHE85      -0.0042
    147  CD2        9.6830   -8.7670   70.2970 C.ar   85  PHE85      -0.0042
    148  CE1       10.5660  -10.2000   68.1080 C.ar   85  PHE85      -0.0003
    149  CE2        8.9160   -8.8260   69.1450 C.ar   85  PHE85      -0.0003
    150  CZ         9.3580   -9.5450   68.0530 C.ar   85  PHE85      -0.0000
    151  N         10.7530  -11.7730   78.5120 N.3    94  VAL94      -0.1245
    152  CA        10.2570  -11.0350   77.3640 C.3    94  VAL94       0.1561
    153  C          8.7870  -10.7510   77.5960 C.2    94  VAL94       0.2260
    154  O          8.0170  -11.6540   77.9170 O.2    94  VAL94      -0.2867
    155  CB        10.4200  -11.8750   76.0860 C.3    94  VAL94       0.0252
    156  CG1        9.6350  -11.2910   74.9260 C.3    94  VAL94       0.0019
    157  CG2       11.8950  -12.0180   75.7270 C.3    94  VAL94       0.0019
    158  N          3.0410   -6.2530   70.0420 N.3    98  ILE98      -0.1231
    159  CA         3.5330   -6.0490   68.7040 C.3    98  ILE98       0.1678
    160  C          2.4030   -5.5390   67.8650 C.2    98  ILE98       0.2434
    161  O          1.3720   -6.1590   67.7780 O.2    98  ILE98      -0.2733
    162  CB         4.0370   -7.3700   68.1500 C.3    98  ILE98       0.0265
    163  CG1        4.9800   -7.9970   69.1870 C.3    98  ILE98       0.0019
    164  CG2        4.6990   -7.1180   66.8030 C.3    98  ILE98       0.0020
    165  CD1        5.5040   -9.3490   68.8310 C.3    98  ILE98       0.0001
    166  N          2.5810   -4.3910   67.2590 N.am   99  PRO99      -0.2718
    167  CA         1.5120   -3.8900   66.4070 C.3    99  PRO99       0.1535
    168  C          1.3930   -4.6890   65.1270 C.2    99  PRO99       0.2599
    169  O          2.4100   -5.0880   64.5910 O.2    99  PRO99      -0.2715
    170  CB         1.9480   -2.4680   66.0700 C.3    99  PRO99       0.0310
    171  CG         3.3640   -2.3460   66.5010 C.3    99  PRO99       0.0237
    172  CD         3.7840   -3.5530   67.2600 C.3    99  PRO99       0.0939
    173  N          0.1770   -4.9140   64.6470 N.am  100  PHE100     -0.1960
    174  CA        -0.0030   -5.4880   63.3330 C.3   100  PHE100      0.1771
    175  C         -1.2320   -4.9960   62.6160 C.2   100  PHE100      0.2620
    176  O         -2.1890   -4.5770   63.2110 O.2   100  PHE100     -0.2715
    177  CB        -0.1440   -6.9720   63.4480 C.3   100  PHE100      0.0574
    178  CG        -1.4730   -7.3960   63.9650 C.ar  100  PHE100     -0.0200
    179  CD1       -1.6860   -7.5380   65.3450 C.ar  100  PHE100     -0.0042
    180  CD2       -2.5240   -7.6490   63.0850 C.ar  100  PHE100     -0.0042
    181  CE1       -2.9250   -7.9390   65.8310 C.ar  100  PHE100     -0.0003
    182  CE2       -3.7590   -8.0440   63.5720 C.ar  100  PHE100     -0.0003
    183  CZ        -3.9600   -8.1940   64.9470 C.ar  100  PHE100     -0.0000
    184  N         -1.2420   -5.1690   61.3150 N.am  101  SER101     -0.1936
    185  CA        -2.2920   -4.6130   60.5230 C.3   101  SER101      0.2055
    186  C         -2.4520   -5.3260   59.1510 C.2   101  SER101      0.2643
    187  O         -1.4740   -5.5690   58.4590 O.2   101  SER101     -0.2714
    188  CB        -1.9380   -3.1520   60.3540 C.3   101  SER101      0.2130
    189  OG        -2.6170   -2.6230   59.2500 O.3   101  SER101     -0.2179
    190  N         -3.6720   -5.6750   58.7560 N.am  102  PHE102     -0.1973
    191  CA        -3.8700   -6.1680   57.4000 C.3   102  PHE102      0.1639
    192  C         -5.2610   -5.9810   56.8020 C.2   102  PHE102      0.2290
    193  O         -6.2260   -5.7370   57.4980 O.2   102  PHE102     -0.2864
    194  CB        -3.4790   -7.6370   57.3020 C.3   102  PHE102      0.0560
    195  CG        -4.4200   -8.5660   57.9910 C.ar  102  PHE102     -0.0200
    196  CD1       -5.5250   -9.0640   57.3280 C.ar  102  PHE102     -0.0042
    197  CD2       -4.1850   -8.9620   59.3060 C.ar  102  PHE102     -0.0042
    198  CE1       -6.3940   -9.9260   57.9690 C.ar  102  PHE102     -0.0003
    199  CE2       -5.0470   -9.8250   59.9520 C.ar  102  PHE102     -0.0003
    200  CZ        -6.1560  -10.3060   59.2860 C.ar  102  PHE102     -0.0000
    201  N          9.7640  -22.7850   70.3100 N.3   128  PHE128     -0.1241
    202  CA         8.4190  -23.1730   70.7220 C.3   128  PHE128      0.1605
    203  C          7.5490  -23.3850   69.4770 C.2   128  PHE128      0.2264
    204  O          7.9620  -23.0620   68.3560 O.2   128  PHE128     -0.2867
    205  CB         7.7800  -22.1130   71.6150 C.3   128  PHE128      0.0534
    206  CG         7.5480  -20.7950   70.9250 C.ar  128  PHE128     -0.0203
    207  CD1        8.5490  -19.8360   70.8710 C.ar  128  PHE128     -0.0042
    208  CD2        6.3140  -20.4990   70.3410 C.ar  128  PHE128     -0.0042
    209  CE1        8.3290  -18.6110   70.2480 C.ar  128  PHE128     -0.0003
    210  CE2        6.0960  -19.2740   69.7160 C.ar  128  PHE128     -0.0003
    211  CZ         7.1070  -18.3310   69.6630 C.ar  128  PHE128     -0.0000
    212  N         -2.3240  -23.7800   66.2160 N.3   132  PHE132     -0.1241
    213  CA        -3.5680  -23.0210   66.1070 C.3   132  PHE132      0.1605
    214  C         -4.7080  -23.7320   65.3820 C.2   132  PHE132      0.2264
    215  O         -4.5030  -24.7040   64.6670 O.2   132  PHE132     -0.2867
    216  CB        -3.3100  -21.7180   65.3540 C.3   132  PHE132      0.0534
    217  CG        -2.5490  -20.7120   66.1430 C.ar  132  PHE132     -0.0203
    218  CD1       -1.1820  -20.8220   66.2910 C.ar  132  PHE132     -0.0042
    219  CD2       -3.2040  -19.6620   66.7360 C.ar  132  PHE132     -0.0042
    220  CE1       -0.4750  -19.9020   67.0230 C.ar  132  PHE132     -0.0003
    221  CE2       -2.5070  -18.7270   67.4580 C.ar  132  PHE132     -0.0003
    222  CZ        -1.1360  -18.8530   67.6080 C.ar  132  PHE132     -0.0000
@<TRIPOS>BOND
     1   119   117   ar
     2   118   117   ar
     3   117   116    1
     4   192   191    1
     5   192   193    2
     6   194   191    1
     7   194   195    1
     8   196   198   ar
     9   196   195   ar
    10   191   190    1
    11   111   112    1
    12   116   115    1
    13   198   200   ar
    14   112   115    1
    15   112   113    1
    16   195   197   ar
    17   187   186    2
    18   190   186   am
    19   113   114    2
    20   186   185    1
    21   189   188    1
    22   200   199   ar
    23   197   199   ar
    24   103   102    2
    25   188   185    1
    26   185   184    1
    27   102   101    1
    28   184   175   am
    29   120   121    1
    30   100   101    1
    31   101   104    1
    32   104   105    1
    33   121   122    1
    34   121   124    1
    35    57    55    1
    36   123   122    2
    37   175   176    2
    38   175   174    1
    39   127   125    1
    40   180   182   ar
    41   180   178   ar
    42   139   138    1
    43   174   177    1
    44   174   173    1
    45   125   124    1
    46   125   126    1
    47    95    94    2
    48   177   178    1
    49   105   106   ar
    50   105   107   ar
    51   182   183   ar
    52    53    54    2
    53    53    52    1
    54    55    56    1
    55    55    52    1
    56   137   138   ar
    57   137   135   ar
    58   106   108   ar
    59   178   179   ar
    60    94    93    1
    61   138   136   ar
    62    58    56    1
    63   107   109   ar
    64    52    51    1
    65   169   168    2
    66   173   168   am
    67   215   214    2
    68   183   181   ar
    69   135   133   ar
    70   168   167    1
    71   136   134   ar
    72    20    22    1
    73    20    19    1
    74   108   110   ar
    75   179   181   ar
    76   216   213    1
    77   216   217    1
    78    92    93    1
    79   214   213    1
    80    93    96    1
    81   109   110   ar
    82   128   129    1
    83   170   167    1
    84   170   171    1
    85   213   212    1
    86   133   134   ar
    87   133   132    1
    88   217   218   ar
    89   217   219   ar
    90    97    96    1
    91    97    98    1
    92    97    99    1
    93   218   220   ar
    94   167   166    1
    95   171   172    1
    96    19    21    1
    97    19    16    1
    98    15    16    1
    99   219   221   ar
   100    16    17    1
   101   164   162    1
   102   220   222   ar
   103   132   129    1
   104   166   172    1
   105   166   160   am
   106    65    63    1
   107   129   130    1
   108   221   222   ar
   109    87    86    2
   110   161   160    2
   111   160   159    1
   112   150   148   ar
   113   150   149   ar
   114    17    18    2
   115   148   146   ar
   116   162   159    1
   117   162   163    1
   118   131   130    2
   119   204   203    2
   120    86    85    1
   121    63    64    1
   122    63    60    1
   123    50    49    1
   124    49    46    1
   125   159   158    1
   126   165   163    1
   127    59    60    1
   128   149   147   ar
   129   146   145   ar
   130   203   202    1
   131    85    88    1
   132    85    84    1
   133    60    61    1
   134   211   210   ar
   135   211   209   ar
   136   210   208   ar
   137    38    36    1
   138    46    47    1
   139    46    45    1
   140    88    89    1
   141   209   207   ar
   142   147   145   ar
   143   201   202    1
   144   208   206   ar
   145   145   144    1
   146   142   143    2
   147   142   141    1
   148    91    89    1
   149   202   205    1
   150    47    48    2
   151    62    61    2
   152   207   206   ar
   153    45    41   am
   154    13    14   ar
   155    13    11   ar
   156   206   205    1
   157    36    35    1
   158   140   141    1
   159    42    41    2
   160    14    12   ar
   161    89    90    1
   162    41    40    1
   163    72    70    1
   164    37    35    1
   165   141   144    1
   166    11     8   ar
   167    35    32    1
   168    40    39    1
   169    40    43    1
   170    39    33   am
   171    12    10   ar
   172    70    71    1
   173    70    67    1
   174     4     3    2
   175    30    28    1
   176    33    32    1
   177    33    34    2
   178     8    10   ar
   179     8     6   ar
   180    83    81   ar
   181    83    82   ar
   182    32    31    1
   183    10     9   ar
   184    43    44    1
   185    81    79   ar
   186     3     2    1
   187    66    67    1
   188    82    80   ar
   189    29    27    1
   190    67    68    1
   191    28    27    1
   192    27    24    1
   193     6     5    1
   194     6     7   ar
   195     5     2    1
   196    79    78   ar
   197     2     1    1
   198    80    78   ar
   199     9     7   ar
   200   156   155    1
   201    68    69    2
   202    78    77    1
   203   157   155    1
   204    24    25    1
   205    24    23    1
   206    26    25    2
   207   155   152    1
   208    77    74    1
   209   152   153    1
   210   152   151    1
   211    73    74    1
   212   153   154    2
   213    74    75    1
   214    75    76    2
