@<TRIPOS>MOLECULE
tmp/5ijdB05.pdb
 105 99 0 0 0
SMALL
GASTEIGER

@<TRIPOS>ATOM
      1  N          0.4540  -15.9670   74.3610 N.3    27  ILE27      -0.1245
      2  CA         0.3400  -15.0220   73.2940 C.3    27  ILE27       0.1561
      3  C         -1.1240  -14.7610   73.0630 C.2    27  ILE27       0.2260
      4  O         -1.9540  -15.6100   73.3390 O.2    27  ILE27      -0.2867
      5  CB         1.0140  -15.5970   72.0410 C.3    27  ILE27       0.0252
      6  CG1        1.1830  -14.5400   70.9840 C.3    27  ILE27       0.0019
      7  CG2        0.1970  -16.7340   71.4500 C.3    27  ILE27       0.0019
      8  CD1        2.1190  -15.0020   69.9040 C.3    27  ILE27       0.0001
      9  N         -0.3240   -8.0570   69.0640 N.3    42  VAL42      -0.1245
     10  CA        -0.0910   -9.3780   69.5480 C.3    42  VAL42       0.1561
     11  C          0.7150   -9.2330   70.8070 C.2    42  VAL42       0.2260
     12  O          1.8410   -8.7420   70.7700 O.2    42  VAL42      -0.2867
     13  CB         0.6760  -10.2300   68.5490 C.3    42  VAL42       0.0252
     14  CG1        0.9460  -11.6000   69.1370 C.3    42  VAL42       0.0019
     15  CG2       -0.1350  -10.3520   67.2850 C.3    42  VAL42       0.0019
     16  N          9.9270  -17.9380   61.7810 N.3    57  PHE57      -0.1241
     17  CA         8.8590  -18.9380   61.9090 C.3    57  PHE57       0.1605
     18  C          8.6660  -19.8170   60.7080 C.2    57  PHE57       0.2264
     19  O          8.8070  -19.3520   59.5920 O.2    57  PHE57      -0.2867
     20  CB         7.5210  -18.2570   62.1090 C.3    57  PHE57       0.0534
     21  CG         7.2850  -17.8130   63.4900 C.ar   57  PHE57      -0.0203
     22  CD1        7.8060  -16.6190   63.9340 C.ar   57  PHE57      -0.0042
     23  CD2        6.5380  -18.5770   64.3390 C.ar   57  PHE57      -0.0042
     24  CE1        7.5930  -16.1860   65.2350 C.ar   57  PHE57      -0.0003
     25  CE2        6.3180  -18.1580   65.6420 C.ar   57  PHE57      -0.0003
     26  CZ         6.8480  -16.9610   66.0970 C.ar   57  PHE57      -0.0000
     27  N          5.5220  -21.8060   59.1750 N.3    59  LEU59      -0.1245
     28  CA         4.0850  -22.0150   59.2940 C.3    59  LEU59       0.1561
     29  C          3.6770  -23.1510   58.3980 C.2    59  LEU59       0.2260
     30  O          3.8920  -23.0940   57.2010 O.2    59  LEU59      -0.2867
     31  CB         3.3060  -20.7640   58.9480 C.3    59  LEU59       0.0270
     32  CG         3.8470  -19.5210   59.6740 C.3    59  LEU59       0.0019
     33  CD1        3.0510  -18.2760   59.2960 C.3    59  LEU59       0.0001
     34  CD2        3.8490  -19.7090   61.1720 C.3    59  LEU59       0.0001
     35  N          8.6130  -17.0320   57.6540 N.3    73  GLU73      -0.1231
     36  CA         8.4230  -15.6260   57.9880 C.3    73  GLU73       0.1699
     37  C          9.4950  -15.1880   58.9430 C.2    73  GLU73       0.2592
     38  O          9.5320  -15.5960   60.0740 O.2    73  GLU73      -0.2718
     39  CB         7.0460  -15.4270   58.5930 C.3    73  GLU73       0.0402
     40  CG         5.9290  -15.8910   57.6690 C.3    73  GLU73       0.1161
     41  CD         5.6430  -14.9210   56.5310 C.2    73  GLU73       0.3649
     42  OE1        4.4670  -14.7850   56.1520 O.co2  73  GLU73      -0.2457
     43  OE2        6.5630  -14.2660   56.0210 O.co2  73  GLU73      -0.2457
     44  N         10.4320  -14.4170   58.4650 N.am   74  VAL74      -0.1966
     45  CA        11.4530  -13.9670   59.3440 C.3    74  VAL74       0.1727
     46  C         10.8890  -12.8030   60.1390 C.2    74  VAL74       0.2616
     47  O         10.1760  -11.9650   59.5790 O.2    74  VAL74      -0.2715
     48  CB        12.6680  -13.4880   58.5530 C.3    74  VAL74       0.0290
     49  CG1       13.6060  -12.6710   59.4310 C.3    74  VAL74       0.0023
     50  CG2       13.3760  -14.6730   57.9350 C.3    74  VAL74       0.0023
     51  N         11.2230  -12.7570   61.4290 N.am   75  LEU75      -0.1977
     52  CA        10.9640  -11.5970   62.2860 C.3    75  LEU75       0.1596
     53  C         12.2130  -10.8460   62.6380 C.2    75  LEU75       0.2287
     54  O         12.2660   -9.6400   62.5660 O.2    75  LEU75      -0.2864
     55  CB        10.3390  -12.0580   63.5620 C.3    75  LEU75       0.0297
     56  CG         8.8340  -12.1820   63.4200 C.3    75  LEU75       0.0022
     57  CD1        8.3170  -12.6550   64.7780 C.3    75  LEU75       0.0001
     58  CD2        8.1710  -10.8720   63.0080 C.3    75  LEU75       0.0001
     59  N         12.2800   -4.8150   66.0270 N.3    83  TYR83      -0.1241
     60  CA        11.6310   -5.0820   67.3160 C.3    83  TYR83       0.1605
     61  C         12.6170   -5.1690   68.4870 C.2    83  TYR83       0.2264
     62  O         13.7200   -5.6960   68.3400 O.2    83  TYR83      -0.2867
     63  CB        10.7710   -6.3540   67.2340 C.3    83  TYR83       0.0534
     64  CG         9.7290   -6.3620   66.1150 C.ar   83  TYR83      -0.0201
     65  CD1        8.5560   -5.6390   66.2300 C.ar   83  TYR83      -0.0009
     66  CD2        9.9150   -7.1180   64.9500 C.ar   83  TYR83      -0.0009
     67  CE1        7.6130   -5.6180   65.2190 C.ar   83  TYR83       0.0417
     68  CE2        8.9670   -7.1160   63.9270 C.ar   83  TYR83       0.0417
     69  CZ         7.8170   -6.3580   64.0720 C.ar   83  TYR83       0.1957
     70  OH         6.8620   -6.3190   63.0890 O.3    83  TYR83      -0.2866
     71  N          2.9250  -23.3220   64.1560 N.3   116  ALA116     -0.1245
     72  CA         3.8940  -22.2810   64.0340 C.3   116  ALA116      0.1562
     73  C          5.1390  -22.6370   64.8280 C.2   116  ALA116      0.2260
     74  O          5.1880  -22.3890   65.9790 O.2   116  ALA116     -0.2867
     75  CB         3.2520  -21.0300   64.5480 C.3   116  ALA116      0.0290
     76  N          9.7640  -22.7850   70.3100 N.3   128  PHE128     -0.1241
     77  CA         8.4190  -23.1730   70.7220 C.3   128  PHE128      0.1605
     78  C          7.5490  -23.3850   69.4770 C.2   128  PHE128      0.2264
     79  O          7.9620  -23.0620   68.3560 O.2   128  PHE128     -0.2867
     80  CB         7.7800  -22.1130   71.6150 C.3   128  PHE128      0.0534
     81  CG         7.5480  -20.7950   70.9250 C.ar  128  PHE128     -0.0203
     82  CD1        8.5490  -19.8360   70.8710 C.ar  128  PHE128     -0.0042
     83  CD2        6.3140  -20.4990   70.3410 C.ar  128  PHE128     -0.0042
     84  CE1        8.3290  -18.6110   70.2480 C.ar  128  PHE128     -0.0003
     85  CE2        6.0960  -19.2740   69.7160 C.ar  128  PHE128     -0.0003
     86  CZ         7.1070  -18.3310   69.6630 C.ar  128  PHE128     -0.0000
     87  N          3.2940  -23.5730   68.3940 N.3   130  LEU130     -0.1245
     88  CA         1.9050  -23.5490   68.7430 C.3   130  LEU130      0.1561
     89  C          1.1240  -24.2690   67.6870 C.2   130  LEU130      0.2260
     90  O          1.5360  -24.3290   66.5520 O.2   130  LEU130     -0.2867
     91  CB         1.4750  -22.1110   68.8900 C.3   130  LEU130      0.0270
     92  CG         2.4290  -21.3390   69.8400 C.3   130  LEU130      0.0019
     93  CD1        1.8390  -19.9860   70.2000 C.3   130  LEU130      0.0001
     94  CD2        2.7620  -22.1010   71.1290 C.3   130  LEU130      0.0001
     95  N         -2.3240  -23.7800   66.2160 N.3   132  PHE132     -0.1241
     96  CA        -3.5680  -23.0210   66.1070 C.3   132  PHE132      0.1605
     97  C         -4.7080  -23.7320   65.3820 C.2   132  PHE132      0.2264
     98  O         -4.5030  -24.7040   64.6670 O.2   132  PHE132     -0.2867
     99  CB        -3.3100  -21.7180   65.3540 C.3   132  PHE132      0.0534
    100  CG        -2.5490  -20.7120   66.1430 C.ar  132  PHE132     -0.0203
    101  CD1       -1.1820  -20.8220   66.2910 C.ar  132  PHE132     -0.0042
    102  CD2       -3.2040  -19.6620   66.7360 C.ar  132  PHE132     -0.0042
    103  CE1       -0.4750  -19.9020   67.0230 C.ar  132  PHE132     -0.0003
    104  CE2       -2.5070  -18.7270   67.4580 C.ar  132  PHE132     -0.0003
    105  CZ        -1.1360  -18.8530   67.6080 C.ar  132  PHE132     -0.0000
@<TRIPOS>BOND
     1    43    41   ar
     2    42    41   ar
     3    41    40    1
     4    30    29    2
     5    35    36    1
     6    40    39    1
     7    50    48    1
     8    36    39    1
     9    36    37    1
    10    29    28    1
    11    44    37   am
    12    44    45    1
    13    48    45    1
    14    48    49    1
    15    37    38    2
    16    31    28    1
    17    31    32    1
    18    27    28    1
    19    33    32    1
    20    45    46    1
    21    47    46    2
    22    19    18    2
    23    32    34    1
    24    46    51   am
    25    18    17    1
    26    51    52    1
    27    16    17    1
    28    17    20    1
    29    20    21    1
    30    52    53    1
    31    52    55    1
    32    54    53    2
    33    58    56    1
    34    70    69    1
    35    56    55    1
    36    56    57    1
    37    21    22   ar
    38    21    23   ar
    39    68    69   ar
    40    68    66   ar
    41    22    24   ar
    42    72    71    1
    43    72    75    1
    44    72    73    1
    45    69    67   ar
    46    23    25   ar
    47    98    97    2
    48    73    74    2
    49    66    64   ar
    50    67    65   ar
    51    24    26   ar
    52    99    96    1
    53    99   100    1
    54    97    96    1
    55    25    26   ar
    56    59    60    1
    57    96    95    1
    58    64    65   ar
    59    64    63    1
    60   100   101   ar
    61   100   102   ar
    62   101   103   ar
    63    90    89    2
    64   102   104   ar
    65   103   105   ar
    66    63    60    1
    67    15    13    1
    68    60    61    1
    69   104   105   ar
    70    89    88    1
    71    62    61    2
    72    79    78    2
    73    87    88    1
    74    13    14    1
    75    13    10    1
    76    88    91    1
    77    91    92    1
    78     9    10    1
    79    78    77    1
    80    10    11    1
    81    86    85   ar
    82    86    84   ar
    83    85    83   ar
    84    92    93    1
    85    92    94    1
    86     8     6    1
    87    84    82   ar
    88    76    77    1
    89    83    81   ar
    90    77    80    1
    91    12    11    2
    92    82    81   ar
    93    81    80    1
    94     6     5    1
    95     7     5    1
    96     5     2    1
    97     3     2    1
    98     3     4    2
    99     2     1    1
