@<TRIPOS>MOLECULE
tmp/5ijdB04.pdb
 92 85 0 0 0
SMALL
GASTEIGER

@<TRIPOS>ATOM
      1  N        -10.6210  -12.1090   59.8430 N.3    35  LEU35      -0.1245
      2  CA        -9.8960  -12.4270   58.6100 C.3    35  LEU35       0.1561
      3  C        -10.1330  -11.4340   57.4880 C.2    35  LEU35       0.2260
      4  O         -9.3040  -11.2510   56.6080 O.2    35  LEU35      -0.2867
      5  CB       -10.2600  -13.8290   58.1380 C.3    35  LEU35       0.0270
      6  CG        -9.8750  -14.9360   59.1250 C.3    35  LEU35       0.0019
      7  CD1      -10.0630  -16.2980   58.4780 C.3    35  LEU35       0.0001
      8  CD2       -8.4420  -14.8070   59.6330 C.3    35  LEU35       0.0001
      9  N          5.5220  -21.8060   59.1750 N.3    59  LEU59      -0.1245
     10  CA         4.0850  -22.0150   59.2940 C.3    59  LEU59       0.1561
     11  C          3.6770  -23.1510   58.3980 C.2    59  LEU59       0.2260
     12  O          3.8920  -23.0940   57.2010 O.2    59  LEU59      -0.2867
     13  CB         3.3060  -20.7640   58.9480 C.3    59  LEU59       0.0270
     14  CG         3.8470  -19.5210   59.6740 C.3    59  LEU59       0.0019
     15  CD1        3.0510  -18.2760   59.2960 C.3    59  LEU59       0.0001
     16  CD2        3.8490  -19.7090   61.1720 C.3    59  LEU59       0.0001
     17  N          0.5640  -24.5010   57.3050 N.3    61  ILE61      -0.1245
     18  CA        -0.8500  -24.2090   57.2270 C.3    61  ILE61       0.1561
     19  C         -1.5550  -25.2790   56.4280 C.2    61  ILE61       0.2260
     20  O         -0.9430  -25.9820   55.5980 O.2    61  ILE61      -0.2867
     21  CB        -1.1120  -22.8570   56.5830 C.3    61  ILE61       0.0252
     22  CG1       -0.2620  -21.8140   57.2710 C.3    61  ILE61       0.0019
     23  CG2       -2.5770  -22.4630   56.7070 C.3    61  ILE61       0.0019
     24  CD1       -0.0370  -20.5900   56.4340 C.3    61  ILE61       0.0001
     25  N          5.4960  -22.3480   54.9310 N.3    71  ARG71      -0.1245
     26  CA         5.6460  -20.9420   54.7540 C.3    71  ARG71       0.1563
     27  C          6.6860  -20.3810   55.7540 C.2    71  ARG71       0.2260
     28  O          6.7290  -20.7930   56.9160 O.2    71  ARG71      -0.2867
     29  CB         4.2700  -20.3630   54.9770 C.3    71  ARG71       0.0307
     30  CG         4.2040  -18.9140   54.6500 C.3    71  ARG71       0.0489
     31  CD         2.7720  -18.4200   54.6300 C.3    71  ARG71       0.2205
     32  NE         2.4600  -17.5710   53.4560 N.pl3  71  ARG71      -0.0865
     33  CZ         3.1150  -16.4730   53.0750 C.cat  71  ARG71       0.5346
     34  NH1        4.2060  -16.0410   53.6870 N.pl3  71  ARG71       0.1354
     35  NH2        2.6820  -15.8310   52.0230 N.pl3  71  ARG71       0.1354
     36  N          8.6130  -17.0320   57.6540 N.3    73  GLU73      -0.1245
     37  CA         8.4230  -15.6260   57.9880 C.3    73  GLU73       0.1567
     38  C          9.4950  -15.1880   58.9430 C.2    73  GLU73       0.2260
     39  O          9.5320  -15.5960   60.0740 O.2    73  GLU73      -0.2867
     40  CB         7.0460  -15.4270   58.5930 C.3    73  GLU73       0.0388
     41  CG         5.9290  -15.8910   57.6690 C.3    73  GLU73       0.1160
     42  CD         5.6430  -14.9210   56.5310 C.2    73  GLU73       0.3649
     43  OE1        4.4670  -14.7850   56.1520 O.co2  73  GLU73      -0.2457
     44  OE2        6.5630  -14.2660   56.0210 O.co2  73  GLU73      -0.2457
     45  N         -3.6720   -5.6750   58.7560 N.3   102  PHE102     -0.1241
     46  CA        -3.8700   -6.1680   57.4000 C.3   102  PHE102      0.1605
     47  C         -5.2610   -5.9810   56.8020 C.2   102  PHE102      0.2264
     48  O         -6.2260   -5.7370   57.4980 O.2   102  PHE102     -0.2867
     49  CB        -3.4790   -7.6370   57.3020 C.3   102  PHE102      0.0534
     50  CG        -4.4200   -8.5660   57.9910 C.ar  102  PHE102     -0.0203
     51  CD1       -5.5250   -9.0640   57.3280 C.ar  102  PHE102     -0.0042
     52  CD2       -4.1850   -8.9620   59.3060 C.ar  102  PHE102     -0.0042
     53  CE1       -6.3940   -9.9260   57.9690 C.ar  102  PHE102     -0.0003
     54  CE2       -5.0470   -9.8250   59.9520 C.ar  102  PHE102     -0.0003
     55  CZ        -6.1560  -10.3060   59.2860 C.ar  102  PHE102     -0.0000
     56  N        -10.6040  -15.5740   51.8980 N.3   107  PHE107     -0.1241
     57  CA       -10.2790  -16.8920   52.4210 C.3   107  PHE107      0.1605
     58  C        -11.4220  -17.8720   52.2010 C.2   107  PHE107      0.2264
     59  O        -12.5930  -17.5460   52.4430 O.2   107  PHE107     -0.2867
     60  CB       -10.0060  -16.8140   53.9100 C.3   107  PHE107      0.0534
     61  CG        -8.7160  -16.1470   54.2460 C.ar  107  PHE107     -0.0203
     62  CD1       -8.6590  -14.7700   54.4210 C.ar  107  PHE107     -0.0042
     63  CD2       -7.5630  -16.8900   54.4020 C.ar  107  PHE107     -0.0042
     64  CE1       -7.4650  -14.1420   54.7410 C.ar  107  PHE107     -0.0003
     65  CE2       -6.3710  -16.2690   54.7190 C.ar  107  PHE107     -0.0003
     66  CZ        -6.3230  -14.8920   54.8930 C.ar  107  PHE107     -0.0000
     67  N         -9.1450  -24.3060   59.2720 N.3   112  TYR112     -0.1241
     68  CA        -7.7270  -24.1330   59.1060 C.3   112  TYR112      0.1605
     69  C         -6.9810  -24.6830   60.3060 C.2   112  TYR112      0.2264
     70  O         -7.5100  -24.7620   61.4160 O.2   112  TYR112     -0.2867
     71  CB        -7.3780  -22.6740   58.9120 C.3   112  TYR112      0.0534
     72  CG        -8.0130  -22.0150   57.7080 C.ar  112  TYR112     -0.0201
     73  CD1       -9.3630  -21.6870   57.6930 C.ar  112  TYR112     -0.0009
     74  CD2       -7.2600  -21.6750   56.6140 C.ar  112  TYR112     -0.0009
     75  CE1       -9.9440  -21.0730   56.6010 C.ar  112  TYR112      0.0417
     76  CE2       -7.8350  -21.0560   55.5200 C.ar  112  TYR112      0.0417
     77  CZ        -9.1740  -20.7570   55.5200 C.ar  112  TYR112      0.1957
     78  OH        -9.7290  -20.1240   54.4270 O.3   112  TYR112     -0.2866
     79  N         -2.8370  -24.2000   61.7250 N.3   114  CYS114     -0.1235
     80  CA        -1.5690  -23.5750   61.4650 C.3   114  CYS114      0.1677
     81  C         -0.6750  -23.9330   62.5910 C.2   114  CYS114      0.2270
     82  O         -0.9120  -23.4990   63.7080 O.2   114  CYS114     -0.2867
     83  CB        -1.7110  -22.0570   61.4020 C.3   114  CYS114      0.0956
     84  SG        -0.1280  -21.2460   61.0490 S.3   114  CYS114     -0.0801
     85  N         -8.0440  -22.1160   63.2650 N.3   134  ILE134     -0.1245
     86  CA        -8.9450  -21.0570   62.8610 C.3   134  ILE134      0.1561
     87  C        -10.1130  -21.7060   62.2000 C.2   134  ILE134      0.2260
     88  O         -9.9420  -22.6290   61.4060 O.2   134  ILE134     -0.2867
     89  CB        -8.3270  -20.0810   61.8620 C.3   134  ILE134      0.0252
     90  CG1       -7.0890  -19.4420   62.4480 C.3   134  ILE134      0.0019
     91  CG2       -9.2830  -18.9440   61.5690 C.3   134  ILE134      0.0019
     92  CD1       -5.8700  -20.3260   62.4080 C.3   134  ILE134      0.0001
@<TRIPOS>BOND
     1    56    57    1
     2    35    33    1
     3    58    57    1
     4    58    59    2
     5    57    60    1
     6    33    32    2
     7    33    34    1
     8    32    31    1
     9    60    61    1
    10    61    63   ar
    11    61    62   ar
    12    63    65   ar
    13    62    64   ar
    14    78    77    1
    15    31    30    1
    16    30    29    1
    17    65    66   ar
    18    64    66   ar
    19    26    25    1
    20    26    29    1
    21    26    27    1
    22    76    77   ar
    23    76    74   ar
    24    77    75   ar
    25    20    19    2
    26    27    28    2
    27    44    42   ar
    28    43    42   ar
    29    19    18    1
    30    24    22    1
    31    42    41    1
    32    21    23    1
    33    21    18    1
    34    21    22    1
    35    75    73   ar
    36     4     3    2
    37    74    72   ar
    38    47    46    1
    39    47    48    2
    40    12    11    2
    41    18    17    1
    42    49    46    1
    43    49    50    1
    44    51    53   ar
    45    51    50   ar
    46    46    45    1
    47     3     2    1
    48    36    37    1
    49    41    40    1
    50    73    72   ar
    51    72    71    1
    52    53    55   ar
    53    37    40    1
    54    37    38    1
    55    50    52   ar
    56     5     2    1
    57     5     6    1
    58    11    10    1
    59     7     6    1
    60     2     1    1
    61    71    68    1
    62    38    39    2
    63    13    10    1
    64    13    14    1
    65    68    67    1
    66    68    69    1
    67     6     8    1
    68     9    10    1
    69    55    54   ar
    70    15    14    1
    71    52    54   ar
    72    14    16    1
    73    69    70    2
    74    84    83    1
    75    83    80    1
    76    88    87    2
    77    80    79    1
    78    80    81    1
    79    91    89    1
    80    89    90    1
    81    89    86    1
    82    87    86    1
    83    92    90    1
    84    81    82    2
    85    86    85    1
