@<TRIPOS>MOLECULE
tmp/5ijdB03.pdb
 172 163 0 0 0
SMALL
GASTEIGER

@<TRIPOS>ATOM
      1  N        -10.4830  -18.4210   66.6940 N.3    13  ILE13      -0.1245
      2  CA        -9.0800  -18.7470   66.7580 C.3    13  ILE13       0.1561
      3  C         -8.8570  -19.4090   68.1060 C.2    13  ILE13       0.2260
      4  O         -9.6700  -19.2650   69.0010 O.2    13  ILE13      -0.2867
      5  CB        -8.2580  -17.4430   66.5720 C.3    13  ILE13       0.0252
      6  CG1       -8.6180  -16.7960   65.2220 C.3    13  ILE13       0.0019
      7  CG2       -6.7680  -17.7230   66.6010 C.3    13  ILE13       0.0019
      8  CD1       -8.9250  -15.3220   65.2810 C.3    13  ILE13       0.0001
      9  N         -8.7530  -11.6010   65.8940 N.3    33  ILE33      -0.1245
     10  CA        -8.6150  -11.4650   64.4540 C.3    33  ILE33       0.1561
     11  C         -9.9140  -11.7000   63.6820 C.2    33  ILE33       0.2260
     12  O        -10.5760  -12.7270   63.8230 O.2    33  ILE33      -0.2867
     13  CB        -7.4650  -12.3360   63.9220 C.3    33  ILE33       0.0252
     14  CG1       -6.1250  -11.7410   64.4240 C.3    33  ILE33       0.0019
     15  CG2       -7.5020  -12.4180   62.4020 C.3    33  ILE33       0.0019
     16  CD1       -4.9080  -12.6160   64.2280 C.3    33  ILE33       0.0001
     17  N        -10.6210  -12.1090   59.8430 N.3    35  LEU35      -0.1245
     18  CA        -9.8960  -12.4270   58.6100 C.3    35  LEU35       0.1561
     19  C        -10.1330  -11.4340   57.4880 C.2    35  LEU35       0.2260
     20  O         -9.3040  -11.2510   56.6080 O.2    35  LEU35      -0.2867
     21  CB       -10.2600  -13.8290   58.1380 C.3    35  LEU35       0.0270
     22  CG        -9.8750  -14.9360   59.1250 C.3    35  LEU35       0.0019
     23  CD1      -10.0630  -16.2980   58.4780 C.3    35  LEU35       0.0001
     24  CD2       -8.4420  -14.8070   59.6330 C.3    35  LEU35       0.0001
     25  N          5.5220  -21.8060   59.1750 N.3    59  LEU59      -0.1245
     26  CA         4.0850  -22.0150   59.2940 C.3    59  LEU59       0.1561
     27  C          3.6770  -23.1510   58.3980 C.2    59  LEU59       0.2260
     28  O          3.8920  -23.0940   57.2010 O.2    59  LEU59      -0.2867
     29  CB         3.3060  -20.7640   58.9480 C.3    59  LEU59       0.0270
     30  CG         3.8470  -19.5210   59.6740 C.3    59  LEU59       0.0019
     31  CD1        3.0510  -18.2760   59.2960 C.3    59  LEU59       0.0001
     32  CD2        3.8490  -19.7090   61.1720 C.3    59  LEU59       0.0001
     33  N          0.5640  -24.5010   57.3050 N.3    61  ILE61      -0.1245
     34  CA        -0.8500  -24.2090   57.2270 C.3    61  ILE61       0.1561
     35  C         -1.5550  -25.2790   56.4280 C.2    61  ILE61       0.2260
     36  O         -0.9430  -25.9820   55.5980 O.2    61  ILE61      -0.2867
     37  CB        -1.1120  -22.8570   56.5830 C.3    61  ILE61       0.0252
     38  CG1       -0.2620  -21.8140   57.2710 C.3    61  ILE61       0.0019
     39  CG2       -2.5770  -22.4630   56.7070 C.3    61  ILE61       0.0019
     40  CD1       -0.0370  -20.5900   56.4340 C.3    61  ILE61       0.0001
     41  N         -5.7440  -25.6990   54.8640 N.3    63  VAL63      -0.1245
     42  CA        -7.1490  -25.2930   54.7450 C.3    63  VAL63       0.1561
     43  C         -7.9220  -26.5270   54.4960 C.2    63  VAL63       0.2260
     44  O         -7.5390  -27.2800   53.6280 O.2    63  VAL63      -0.2867
     45  CB        -7.4080  -24.4090   53.5080 C.3    63  VAL63       0.0252
     46  CG1       -8.8270  -23.8820   53.5080 C.3    63  VAL63       0.0019
     47  CG2       -6.4640  -23.2270   53.4570 C.3    63  VAL63       0.0019
     48  N         -1.0740  -26.3750   52.5370 N.3    68  LEU68      -0.1245
     49  CA        -0.2310  -25.4350   51.8010 C.3    68  LEU68       0.1561
     50  C          1.2200  -25.7190   52.0330 C.2    68  LEU68       0.2260
     51  O          1.6030  -26.2180   53.0810 O.2    68  LEU68      -0.2867
     52  CB        -0.4160  -24.0160   52.2660 C.3    68  LEU68       0.0270
     53  CG        -1.7110  -23.3680   51.8380 C.3    68  LEU68       0.0019
     54  CD1       -2.7700  -23.5520   52.9070 C.3    68  LEU68       0.0001
     55  CD2       -1.4680  -21.9050   51.6400 C.3    68  LEU68       0.0001
     56  N          5.4960  -22.3480   54.9310 N.3    71  ARG71      -0.1245
     57  CA         5.6460  -20.9420   54.7540 C.3    71  ARG71       0.1563
     58  C          6.6860  -20.3810   55.7540 C.2    71  ARG71       0.2260
     59  O          6.7290  -20.7930   56.9160 O.2    71  ARG71      -0.2867
     60  CB         4.2700  -20.3630   54.9770 C.3    71  ARG71       0.0307
     61  CG         4.2040  -18.9140   54.6500 C.3    71  ARG71       0.0489
     62  CD         2.7720  -18.4200   54.6300 C.3    71  ARG71       0.2205
     63  NE         2.4600  -17.5710   53.4560 N.pl3  71  ARG71      -0.0865
     64  CZ         3.1150  -16.4730   53.0750 C.cat  71  ARG71       0.5346
     65  NH1        4.2060  -16.0410   53.6870 N.pl3  71  ARG71       0.1354
     66  NH2        2.6820  -15.8310   52.0230 N.pl3  71  ARG71       0.1354
     67  N         -1.2420   -5.1690   61.3150 N.3   101  SER101     -0.1202
     68  CA        -2.2920   -4.6130   60.5230 C.3   101  SER101      0.2020
     69  C         -2.4520   -5.3260   59.1510 C.2   101  SER101      0.2619
     70  O         -1.4740   -5.5690   58.4590 O.2   101  SER101     -0.2717
     71  CB        -1.9380   -3.1520   60.3540 C.3   101  SER101      0.2103
     72  OG        -2.6170   -2.6230   59.2500 O.3   101  SER101     -0.2182
     73  N         -3.6720   -5.6750   58.7560 N.am  102  PHE102     -0.1961
     74  CA        -3.8700   -6.1680   57.4000 C.3   102  PHE102      0.1771
     75  C         -5.2610   -5.9810   56.8020 C.2   102  PHE102      0.2619
     76  O         -6.2260   -5.7370   57.4980 O.2   102  PHE102     -0.2715
     77  CB        -3.4790   -7.6370   57.3020 C.3   102  PHE102      0.0574
     78  CG        -4.4200   -8.5660   57.9910 C.ar  102  PHE102     -0.0200
     79  CD1       -5.5250   -9.0640   57.3280 C.ar  102  PHE102     -0.0042
     80  CD2       -4.1850   -8.9620   59.3060 C.ar  102  PHE102     -0.0042
     81  CE1       -6.3940   -9.9260   57.9690 C.ar  102  PHE102     -0.0003
     82  CE2       -5.0470   -9.8250   59.9520 C.ar  102  PHE102     -0.0003
     83  CZ        -6.1560  -10.3060   59.2860 C.ar  102  PHE102     -0.0000
     84  N         -5.3290   -6.1290   55.4870 N.am  103  GLU103     -0.1963
     85  CA        -6.5770   -6.1490   54.7610 C.3   103  GLU103      0.1733
     86  C         -6.7700   -7.5430   54.1970 C.2   103  GLU103      0.2617
     87  O         -5.8590   -8.1170   53.5800 O.2   103  GLU103     -0.2715
     88  CB        -6.5640   -5.1130   53.6350 C.3   103  GLU103      0.0429
     89  CG        -7.2210   -3.7880   54.0040 C.3   103  GLU103      0.1163
     90  CD        -8.7400   -3.8550   53.9180 C.2   103  GLU103      0.3649
     91  OE1       -9.4030   -4.0130   54.9750 O.co2 103  GLU103     -0.2457
     92  OE2       -9.2740   -3.7680   52.7870 O.co2 103  GLU103     -0.2457
     93  N         -7.9660   -8.0790   54.4080 N.am  104  GLY104     -0.1940
     94  CA        -8.2890   -9.4450   54.0230 C.3   104  GLY104      0.2014
     95  C         -8.3320   -9.6660   52.5190 C.2   104  GLY104      0.2639
     96  O         -8.9220   -8.8940   51.7540 O.2   104  GLY104     -0.2714
     97  N         -7.6410  -10.7130   52.1040 N.am  105  ILE105     -0.1963
     98  CA        -7.9140  -11.3460   50.8510 C.3   105  ILE105      0.1727
     99  C         -8.9970  -12.3360   51.1390 C.2   105  ILE105      0.2616
    100  O         -9.2930  -12.6230   52.2910 O.2   105  ILE105     -0.2715
    101  CB        -6.7130  -12.1110   50.3140 C.3   105  ILE105      0.0290
    102  CG1       -6.0780  -12.9830   51.4070 C.3   105  ILE105      0.0022
    103  CG2       -5.7110  -11.1220   49.7590 C.3   105  ILE105      0.0023
    104  CD1       -5.4990  -14.2700   50.8870 C.3   105  ILE105      0.0001
    105  N         -9.5840  -12.8790   50.0950 N.am  106  LEU106     -0.1963
    106  CA       -10.6610  -13.7910   50.3000 C.3   106  LEU106      0.1728
    107  C        -10.0970  -15.1080   50.7640 C.2   106  LEU106      0.2616
    108  O         -9.2240  -15.6770   50.1180 O.2   106  LEU106     -0.2715
    109  CB       -11.4600  -13.9880   49.0270 C.3   106  LEU106      0.0311
    110  CG       -12.7040  -14.8190   49.2930 C.3   106  LEU106      0.0022
    111  CD1      -13.5390  -14.1920   50.3900 C.3   106  LEU106      0.0001
    112  CD2      -13.5180  -14.9950   48.0300 C.3   106  LEU106      0.0001
    113  N        -10.6040  -15.5740   51.8980 N.am  107  PHE107     -0.1960
    114  CA       -10.2790  -16.8920   52.4210 C.3   107  PHE107      0.1756
    115  C        -11.4220  -17.8720   52.2010 C.2   107  PHE107      0.2461
    116  O        -12.5930  -17.5460   52.4430 O.2   107  PHE107     -0.2730
    117  CB       -10.0060  -16.8140   53.9100 C.3   107  PHE107      0.0574
    118  CG        -8.7160  -16.1470   54.2460 C.ar  107  PHE107     -0.0200
    119  CD1       -8.6590  -14.7700   54.4210 C.ar  107  PHE107     -0.0042
    120  CD2       -7.5630  -16.8900   54.4020 C.ar  107  PHE107     -0.0042
    121  CE1       -7.4650  -14.1420   54.7410 C.ar  107  PHE107     -0.0003
    122  CE2       -6.3710  -16.2690   54.7190 C.ar  107  PHE107     -0.0003
    123  CZ        -6.3230  -14.8920   54.8930 C.ar  107  PHE107     -0.0000
    124  N        -11.0880  -19.0890   51.7660 N.am  108  PRO108     -0.2727
    125  CA       -12.1310  -20.0830   51.6810 C.3   108  PRO108      0.1402
    126  C        -12.5770  -20.3720   53.0940 C.2   108  PRO108      0.2269
    127  O        -11.8400  -20.0570   54.0320 O.2   108  PRO108     -0.2865
    128  CB       -11.4370  -21.2770   51.0280 C.3   108  PRO108      0.0296
    129  CG       -10.0190  -21.1090   51.3810 C.3   108  PRO108      0.0237
    130  CD        -9.7640  -19.6430   51.4660 C.3   108  PRO108      0.0939
    131  N         -9.1450  -24.3060   59.2720 N.3   112  TYR112     -0.1241
    132  CA        -7.7270  -24.1330   59.1060 C.3   112  TYR112      0.1605
    133  C         -6.9810  -24.6830   60.3060 C.2   112  TYR112      0.2264
    134  O         -7.5100  -24.7620   61.4160 O.2   112  TYR112     -0.2867
    135  CB        -7.3780  -22.6740   58.9120 C.3   112  TYR112      0.0534
    136  CG        -8.0130  -22.0150   57.7080 C.ar  112  TYR112     -0.0201
    137  CD1       -9.3630  -21.6870   57.6930 C.ar  112  TYR112     -0.0009
    138  CD2       -7.2600  -21.6750   56.6140 C.ar  112  TYR112     -0.0009
    139  CE1       -9.9440  -21.0730   56.6010 C.ar  112  TYR112      0.0417
    140  CE2       -7.8350  -21.0560   55.5200 C.ar  112  TYR112      0.0417
    141  CZ        -9.1740  -20.7570   55.5200 C.ar  112  TYR112      0.1957
    142  OH        -9.7290  -20.1240   54.4270 O.3   112  TYR112     -0.2866
    143  N         -2.8370  -24.2000   61.7250 N.3   114  CYS114     -0.1235
    144  CA        -1.5690  -23.5750   61.4650 C.3   114  CYS114      0.1677
    145  C         -0.6750  -23.9330   62.5910 C.2   114  CYS114      0.2270
    146  O         -0.9120  -23.4990   63.7080 O.2   114  CYS114     -0.2867
    147  CB        -1.7110  -22.0570   61.4020 C.3   114  CYS114      0.0956
    148  SG        -0.1280  -21.2460   61.0490 S.3   114  CYS114     -0.0801
    149  N          2.9250  -23.3220   64.1560 N.3   116  ALA116     -0.1245
    150  CA         3.8940  -22.2810   64.0340 C.3   116  ALA116      0.1562
    151  C          5.1390  -22.6370   64.8280 C.2   116  ALA116      0.2260
    152  O          5.1880  -22.3890   65.9790 O.2   116  ALA116     -0.2867
    153  CB         3.2520  -21.0300   64.5480 C.3   116  ALA116      0.0290
    154  N         -2.3240  -23.7800   66.2160 N.3   132  PHE132     -0.1241
    155  CA        -3.5680  -23.0210   66.1070 C.3   132  PHE132      0.1605
    156  C         -4.7080  -23.7320   65.3820 C.2   132  PHE132      0.2264
    157  O         -4.5030  -24.7040   64.6670 O.2   132  PHE132     -0.2867
    158  CB        -3.3100  -21.7180   65.3540 C.3   132  PHE132      0.0534
    159  CG        -2.5490  -20.7120   66.1430 C.ar  132  PHE132     -0.0203
    160  CD1       -1.1820  -20.8220   66.2910 C.ar  132  PHE132     -0.0042
    161  CD2       -3.2040  -19.6620   66.7360 C.ar  132  PHE132     -0.0042
    162  CE1       -0.4750  -19.9020   67.0230 C.ar  132  PHE132     -0.0003
    163  CE2       -2.5070  -18.7270   67.4580 C.ar  132  PHE132     -0.0003
    164  CZ        -1.1360  -18.8530   67.6080 C.ar  132  PHE132     -0.0000
    165  N         -8.0440  -22.1160   63.2650 N.3   134  ILE134     -0.1245
    166  CA        -8.9450  -21.0570   62.8610 C.3   134  ILE134      0.1561
    167  C        -10.1130  -21.7060   62.2000 C.2   134  ILE134      0.2260
    168  O         -9.9420  -22.6290   61.4060 O.2   134  ILE134     -0.2867
    169  CB        -8.3270  -20.0810   61.8620 C.3   134  ILE134      0.0252
    170  CG1       -7.0890  -19.4420   62.4480 C.3   134  ILE134      0.0019
    171  CG2       -9.2830  -18.9440   61.5690 C.3   134  ILE134      0.0019
    172  CD1       -5.8700  -20.3260   62.4080 C.3   134  ILE134      0.0001
@<TRIPOS>BOND
     1   112   110    1
     2   109   110    1
     3   109   106    1
     4   110   111    1
     5   103   101    1
     6   105   106    1
     7   105    99   am
     8   108   107    2
     9   106   107    1
    10   101    98    1
    11   101   102    1
    12   107   113   am
    13    98    99    1
    14    98    97    1
    15   104   102    1
    16   128   129    1
    17   128   125    1
    18    99   100    2
    19   129   130    1
    20   130   124    1
    21    55    53    1
    22   125   124    1
    23   125   126    1
    24    96    95    2
    25   124   115   am
    26    49    50    1
    27    49    52    1
    28    49    48    1
    29    53    52    1
    30    53    54    1
    31   113   114    1
    32    66    64    1
    33    50    51    2
    34    97    95   am
    35   115   114    1
    36   115   116    2
    37   114   117    1
    38    95    94    1
    39    92    90   ar
    40    64    63    2
    41    64    65    1
    42   126   127    2
    43    63    62    1
    44    47    45    1
    45    45    46    1
    46    45    42    1
    47    87    86    2
    48    44    43    2
    49    88    89    1
    50    88    85    1
    51   117   118    1
    52    90    89    1
    53    90    91   ar
    54    94    93    1
    55    86    93   am
    56    86    85    1
    57   118   120   ar
    58   118   119   ar
    59   120   122   ar
    60   119   121   ar
    61   142   141    1
    62    43    42    1
    63    62    61    1
    64    61    60    1
    65   122   123   ar
    66   121   123   ar
    67    42    41    1
    68    57    56    1
    69    57    60    1
    70    57    58    1
    71    85    84    1
    72    84    75   am
    73   141   140   ar
    74   141   139   ar
    75   140   138   ar
    76    36    35    2
    77    58    59    2
    78    35    34    1
    79    40    38    1
    80    37    39    1
    81    37    34    1
    82    37    38    1
    83   139   137   ar
    84    20    19    2
    85   138   136   ar
    86    75    74    1
    87    75    76    2
    88    28    27    2
    89    34    33    1
    90    77    74    1
    91    77    78    1
    92    79    81   ar
    93    79    78   ar
    94    74    73    1
    95    19    18    1
    96   137   136   ar
    97   136   135    1
    98    81    83   ar
    99    78    80   ar
   100    21    18    1
   101    21    22    1
   102    27    26    1
   103    70    69    2
   104    23    22    1
   105    18    17    1
   106    73    69   am
   107   135   132    1
   108    29    26    1
   109    29    30    1
   110   132   131    1
   111   132   133    1
   112    22    24    1
   113    69    68    1
   114    25    26    1
   115    72    71    1
   116    83    82   ar
   117    31    30    1
   118    80    82   ar
   119    30    32    1
   120   133   134    2
   121    71    68    1
   122    68    67    1
   123   148   147    1
   124   147   144    1
   125   168   167    2
   126   144   143    1
   127   144   145    1
   128   171   169    1
   129   169   170    1
   130   169   166    1
   131   167   166    1
   132    15    13    1
   133   172   170    1
   134   145   146    2
   135   166   165    1
   136    11    12    2
   137    11    10    1
   138    13    14    1
   139    13    10    1
   140   150   149    1
   141   150   153    1
   142   150   151    1
   143    16    14    1
   144    10     9    1
   145   157   156    2
   146   151   152    2
   147     6     8    1
   148     6     5    1
   149   158   155    1
   150   158   159    1
   151   156   155    1
   152   155   154    1
   153   159   160   ar
   154   159   161   ar
   155   160   162   ar
   156     5     7    1
   157     5     2    1
   158     1     2    1
   159   161   163   ar
   160     2     3    1
   161   162   164   ar
   162   163   164   ar
   163     3     4    2
