@<TRIPOS>MOLECULE
tmp/5ijdB01.pdb
 81 78 0 0 0
SMALL
GASTEIGER

@<TRIPOS>ATOM
      1  N         -2.9570  -24.4100   71.0690 N.3    16  SER16      -0.1202
      2  CA        -2.4620  -25.3280   72.0710 C.3    16  SER16       0.2020
      3  C         -0.9760  -25.4210   71.8580 C.2    16  SER16       0.2619
      4  O         -0.4570  -24.8150   70.9460 O.2    16  SER16      -0.2717
      5  CB        -3.0540  -26.7000   71.8570 C.3    16  SER16       0.2103
      6  OG        -2.1430  -27.5030   71.1280 O.3    16  SER16      -0.2182
      7  N         -0.2750  -26.1860   72.6690 N.am   17  TYR17      -0.1961
      8  CA         1.1280  -26.4110   72.3760 C.3    17  TYR17       0.1771
      9  C          1.1910  -27.5390   71.3660 C.2    17  TYR17       0.2620
     10  O          0.1990  -28.2140   71.0930 O.2    17  TYR17      -0.2715
     11  CB         1.9500  -26.6920   73.6520 C.3    17  TYR17       0.0574
     12  CG         2.0650  -25.4800   74.5680 C.ar   17  TYR17      -0.0198
     13  CD1        3.0010  -24.4700   74.3060 C.ar   17  TYR17      -0.0009
     14  CD2        1.2240  -25.3170   75.6830 C.ar   17  TYR17      -0.0009
     15  CE1        3.1030  -23.3390   75.1250 C.ar   17  TYR17       0.0417
     16  CE2        1.3310  -24.1860   76.5100 C.ar   17  TYR17       0.0417
     17  CZ         2.2670  -23.1960   76.2280 C.ar   17  TYR17       0.1957
     18  OH         2.3790  -22.0720   77.0130 O.3    17  TYR17      -0.2866
     19  N          2.3500  -27.7230   70.7680 N.am   18  CYS18      -0.1954
     20  CA         2.4750  -28.7600   69.7540 C.3    18  CYS18       0.1843
     21  C          2.7400  -30.1050   70.4470 C.2    18  CYS18       0.2625
     22  O          3.5350  -30.2040   71.4050 O.2    18  CYS18      -0.2714
     23  CB         3.5690  -28.4200   68.7240 C.3    18  CYS18       0.0997
     24  SG         3.1780  -27.0460   67.6000 S.3    18  CYS18      -0.0797
     25  N          2.0700  -31.1390   69.9480 N.am   19  ASP19      -0.1957
     26  CA         2.1800  -32.4730   70.5120 C.3    19  ASP19       0.1840
     27  C          3.5600  -32.7810   71.0620 C.2    19  ASP19       0.2622
     28  O          3.6440  -33.3650   72.1250 O.2    19  ASP19      -0.2715
     29  CB         1.7260  -33.5420   69.5090 C.3    19  ASP19       0.1450
     30  CG         0.2140  -33.5570   69.3430 C.2    19  ASP19       0.3671
     31  OD1       -0.4620  -32.9440   70.2000 O.co2  19  ASP19      -0.2456
     32  OD2       -0.3090  -34.1530   68.3660 O.co2  19  ASP19      -0.2456
     33  N          4.6380  -32.3880   70.3940 N.am   20  HIS20      -0.1973
     34  CA         5.9560  -32.8050   70.8800 C.3    20  HIS20       0.1656
     35  C          6.9160  -31.6300   71.1490 C.2    20  HIS20       0.2291
     36  O          8.1460  -31.7710   71.1400 O.2    20  HIS20      -0.2864
     37  CB         6.5430  -33.9070   69.9570 C.3    20  HIS20       0.0771
     38  CG         5.7480  -35.2000   69.9550 C.ar   20  HIS20       0.0820
     39  ND1        5.6630  -36.0390   71.0540 N.ar   20  HIS20      -0.2267
     40  CD2        5.0110  -35.7960   68.9820 C.ar   20  HIS20       0.1154
     41  CE1        4.9010  -37.0810   70.7620 C.ar   20  HIS20       0.1986
     42  NE2        4.4960  -36.9600   69.5100 N.ar   20  HIS20      -0.2212
     43  N         -5.7450  -25.0760   60.0390 N.3   113  ARG113     -0.1245
     44  CA        -4.7730  -25.4860   61.0380 C.3   113  ARG113      0.1563
     45  C         -3.5060  -24.7160   60.7240 C.2   113  ARG113      0.2260
     46  O         -3.1300  -24.5740   59.5760 O.2   113  ARG113     -0.2867
     47  CB        -4.5100  -26.9840   60.9060 C.3   113  ARG113      0.0307
     48  CG        -3.5510  -27.5880   61.9090 C.3   113  ARG113      0.0489
     49  CD        -4.0360  -27.3070   63.3310 C.3   113  ARG113      0.2205
     50  NE        -5.4130  -27.7440   63.6240 N.pl3 113  ARG113     -0.0865
     51  CZ        -5.7810  -29.0000   63.8640 C.cat 113  ARG113      0.5346
     52  NH1       -4.9950  -30.0200   63.5140 N.pl3 113  ARG113      0.1354
     53  NH2       -6.9520  -29.2390   64.4500 N.pl3 113  ARG113      0.1354
     54  N          0.3380  -24.7380   62.3430 N.3   115  VAL115     -0.1245
     55  CA         1.2990  -24.9030   63.3890 C.3   115  VAL115      0.1561
     56  C          2.4480  -23.9670   63.0940 C.2   115  VAL115      0.2260
     57  O          2.8560  -23.7930   61.9550 O.2   115  VAL115     -0.2867
     58  CB         1.7150  -26.3640   63.6900 C.3   115  VAL115      0.0252
     59  CG1        0.6720  -27.3550   63.1720 C.3   115  VAL115      0.0019
     60  CG2        3.1370  -26.6850   63.2290 C.3   115  VAL115      0.0019
     61  N          6.3370  -23.8920   69.6790 N.3   129  CYS129     -0.1235
     62  CA         5.5350  -24.3800   68.5800 C.3   129  CYS129      0.1677
     63  C          4.0970  -24.4270   68.9740 C.2   129  CYS129      0.2270
     64  O          3.6980  -25.2380   69.7780 O.2   129  CYS129     -0.2867
     65  CB         5.9790  -25.7840   68.1990 C.3   129  CYS129      0.0956
     66  SG         5.0490  -26.5220   66.8260 S.3   129  CYS129     -0.0801
     67  N          0.0420  -24.9040   68.0790 N.3   131  ASN131     -0.1240
     68  CA        -0.8360  -25.4540   67.1140 C.3   131  ASN131      0.1653
     69  C         -2.1520  -24.6920   67.1530 C.2   131  ASN131      0.2266
     70  O         -3.0110  -24.9590   67.9680 O.2   131  ASN131     -0.2867
     71  CB        -1.0840  -26.9530   67.2790 C.3   131  ASN131      0.1155
     72  CG        -2.0600  -27.4310   66.2320 C.2   131  ASN131      0.2627
     73  OD1       -2.4710  -26.5890   65.4340 O.2   131  ASN131     -0.2716
     74  ND2       -2.4470  -28.7110   66.1780 N.am  131  ASN131     -0.0877
     75  N         -5.9080  -23.1950   65.5340 N.3   133  THR133     -0.1218
     76  CA        -7.0530  -23.6680   64.8030 C.3   133  THR133      0.1862
     77  C         -7.9240  -22.4830   64.5350 C.2   133  THR133      0.2287
     78  O         -8.4970  -21.9230   65.4620 O.2   133  THR133     -0.2866
     79  CB        -7.8850  -24.6750   65.6110 C.3   133  THR133      0.1770
     80  OG1       -7.1560  -25.8930   65.7630 O.3   133  THR133     -0.2211
     81  CG2       -9.1720  -24.9970   64.8860 C.3   133  THR133      0.0375
@<TRIPOS>BOND
     1    46    45    2
     2    43    44    1
     3    45    44    1
     4    47    44    1
     5    47    48    1
     6    48    49    1
     7    57    56    2
     8    54    55    1
     9    56    55    1
    10    59    58    1
    11    60    58    1
    12    49    50    1
    13    55    58    1
    14    52    51    1
    15    50    51    2
    16    51    53    1
    17    77    76    1
    18    77    78    2
    19    76    75    1
    20    76    79    1
    21    81    79    1
    22    73    72    2
    23    79    80    1
    24    74    72   am
    25    72    71    1
    26    66    24    1
    27    66    65    1
    28    68    69    1
    29    68    71    1
    30    68    67    1
    31    69    70    2
    32    24    23    1
    33    65    62    1
    34    32    30   ar
    35    62    63    1
    36    62    61    1
    37    23    20    1
    38    63    64    2
    39    40    42   ar
    40    40    38   ar
    41    30    29    1
    42    30    31   ar
    43    29    26    1
    44    42    41   ar
    45    20    21    1
    46    20    19    1
    47    25    21   am
    48    25    26    1
    49    38    37    1
    50    38    39   ar
    51    37    34    1
    52    33    34    1
    53    33    27   am
    54    21    22    2
    55    26    27    1
    56    41    39   ar
    57    19     9   am
    58    34    35    1
    59     4     3    2
    60    27    28    2
    61     1     2    1
    62    10     9    2
    63     6     5    1
    64    36    35    2
    65     9     8    1
    66     5     2    1
    67     3     2    1
    68     3     7   am
    69     8     7    1
    70     8    11    1
    71    11    12    1
    72    13    12   ar
    73    13    15   ar
    74    12    14   ar
    75    15    17   ar
    76    14    16   ar
    77    17    16   ar
    78    17    18    1
