@<TRIPOS>MOLECULE
tmp/5ijgB00.pdb
 120 112 0 0 0
SMALL
GASTEIGER

@<TRIPOS>ATOM
      1  N        -14.5500   29.7210    0.0480 N.3    93  SER93      -0.1202
      2  CA       -14.7610   28.3080    0.4410 C.3    93  SER93       0.2020
      3  C        -15.4300   28.2680    1.7730 C.2    93  SER93       0.2619
      4  O        -15.4900   29.2810    2.5090 O.2    93  SER93      -0.2717
      5  CB       -13.4110   27.5460    0.5790 C.3    93  SER93       0.2103
      6  OG       -12.6020   28.0830    1.6120 O.3    93  SER93      -0.2182
      7  N        -15.9410   27.0930    2.1030 N.am   94  GLY94      -0.1942
      8  CA       -16.4810   26.8550    3.4340 C.3    94  GLY94       0.2014
      9  C        -15.4420   27.1810    4.5250 C.2    94  GLY94       0.2638
     10  O        -15.7420   27.8960    5.5050 O.2    94  GLY94      -0.2714
     11  N        -14.2210   26.7510    4.3220 N.am   95  MET95      -0.1976
     12  CA       -13.1930   27.0120    5.3340 C.3    95  MET95       0.1605
     13  C        -12.8140   28.4870    5.4200 C.2    95  MET95       0.2287
     14  O        -12.5910   28.9890    6.5160 O.2    95  MET95      -0.2864
     15  CB       -11.9250   26.2040    5.0850 C.3    95  MET95       0.0413
     16  CG       -12.0390   24.7120    5.3920 C.3    95  MET95       0.0598
     17  SD       -12.8550   24.3270    6.9590 S.3    95  MET95      -0.1393
     18  CE       -11.9280   25.2810    8.1450 C.3    95  MET95       0.0692
     19  N        -15.6140   30.1290    7.5840 N.3    98  ILE98      -0.1245
     20  CA       -15.3820   29.8130    9.0130 C.3    98  ILE98       0.1561
     21  C        -14.1860   30.5980    9.5410 C.2    98  ILE98       0.2260
     22  O        -14.3040   31.2260   10.5670 O.2    98  ILE98      -0.2867
     23  CB       -15.1920   28.3110    9.2180 C.3    98  ILE98       0.0252
     24  CG1      -16.5060   27.5820    8.9840 C.3    98  ILE98       0.0019
     25  CG2      -14.7110   28.0230   10.5850 C.3    98  ILE98       0.0019
     26  CD1      -16.2990   26.1090    8.7190 C.3    98  ILE98       0.0001
     27  N        -16.3760   19.2720   11.6570 N.3   119  TYR119     -0.1241
     28  CA       -15.6450   18.9940   10.4560 C.3   119  TYR119      0.1605
     29  C        -14.1480   19.0490   10.7180 C.2   119  TYR119      0.2264
     30  O        -13.6310   19.9200   11.4340 O.2   119  TYR119     -0.2867
     31  CB       -16.0460   20.0160    9.3650 C.3   119  TYR119      0.0534
     32  CG       -15.2810   19.8870    8.0750 C.ar  119  TYR119     -0.0201
     33  CD1      -15.5220   18.8030    7.2070 C.ar  119  TYR119     -0.0009
     34  CD2      -14.3590   20.8620    7.6780 C.ar  119  TYR119     -0.0009
     35  CE1      -14.8790   18.7110    6.0110 C.ar  119  TYR119      0.0417
     36  CE2      -13.7120   20.7650    6.4650 C.ar  119  TYR119      0.0417
     37  CZ       -13.9780   19.6660    5.6610 C.ar  119  TYR119      0.1957
     38  OH       -13.3760   19.5150    4.4920 O.3   119  TYR119     -0.2866
     39  N        -21.7620   22.8540   15.2200 N.3   168  GLU168     -0.1245
     40  CA       -22.0580   22.1870   13.9610 C.3   168  GLU168      0.1567
     41  C        -23.1650   21.1830   14.2080 C.2   168  GLU168      0.2260
     42  O        -22.9920   20.2620   14.9670 O.2   168  GLU168     -0.2867
     43  CB       -20.8320   21.5760   13.3920 C.3   168  GLU168      0.0388
     44  CG       -21.0240   20.8480   12.1050 C.3   168  GLU168      0.1160
     45  CD       -19.7460   20.2820   11.5900 C.2   168  GLU168      0.3649
     46  OE1      -19.7780   19.2170   10.9300 O.co2 168  GLU168     -0.2457
     47  OE2      -18.7060   20.9110   11.7970 O.co2 168  GLU168     -0.2457
     48  N        -21.0680   15.4220   11.2230 N.3   172  ASN172     -0.1240
     49  CA       -20.6560   14.2240   10.5100 C.3   172  ASN172      0.1653
     50  C        -19.7260   13.3320   11.3570 C.2   172  ASN172      0.2266
     51  O        -18.9270   13.8500   12.1260 O.2   172  ASN172     -0.2867
     52  CB       -19.9470   14.6170    9.2040 C.3   172  ASN172      0.1155
     53  CG       -20.3300   13.7050    8.0530 C.2   172  ASN172      0.2627
     54  OD1      -19.5240   12.8800    7.6430 O.2   172  ASN172     -0.2716
     55  ND2      -21.5860   13.8260    7.5460 N.am  172  ASN172     -0.0877
     56  N        -22.5080   26.0830   11.9130 N.3   203  ASP203     -0.1239
     57  CA       -22.2420   25.3980   10.6350 C.3   203  ASP203      0.1674
     58  C        -23.4230   24.5550   10.2530 C.2   203  ASP203      0.2266
     59  O        -23.7130   23.4920   10.8540 O.2   203  ASP203     -0.2867
     60  CB       -20.9760   24.6000   10.7140 C.3   203  ASP203      0.1410
     61  CG       -20.5220   24.0830    9.3850 C.2   203  ASP203      0.3668
     62  OD1      -21.3660   23.8210    8.5200 O.co2 203  ASP203     -0.2456
     63  OD2      -19.2930   23.8930    9.2050 O.co2 203  ASP203     -0.2456
     64  N        -24.1650   23.4000    7.1570 N.3   205  THR205     -0.1203
     65  CA       -23.9390   22.7140    5.9220 C.3   205  THR205      0.1994
     66  C        -24.8540   21.4940    5.6720 C.2   205  THR205      0.2617
     67  O        -25.4250   21.3190    4.5770 O.2   205  THR205     -0.2717
     68  CB       -22.4420   22.3300    5.8000 C.3   205  THR205      0.1784
     69  OG1      -21.6270   23.4860    5.9120 O.3   205  THR205     -0.2211
     70  CG2      -22.0950   21.6280    4.5130 C.3   205  THR205      0.0376
     71  N        -25.0530   20.6720    6.6870 N.am  206  LEU206     -0.1979
     72  CA       -25.8250   19.4320    6.5000 C.3   206  LEU206      0.1596
     73  C        -27.2800   19.5330    6.1480 C.2   206  LEU206      0.2287
     74  O        -27.7660   18.7900    5.2810 O.2   206  LEU206     -0.2864
     75  CB       -25.6750   18.4780    7.7040 C.3   206  LEU206      0.0297
     76  CG       -24.6450   17.3690    7.5730 C.3   206  LEU206      0.0022
     77  CD1      -24.8640   16.6140    6.2770 C.3   206  LEU206      0.0001
     78  CD2      -23.2010   17.8600    7.6820 C.3   206  LEU206      0.0001
     79  N        -20.4700   25.4550    4.1240 N.3   225  SER225     -0.1217
     80  CA       -19.7540   25.1000    2.9090 C.3   225  SER225      0.1889
     81  C        -20.8600   24.9270    1.8290 C.2   225  SER225      0.2288
     82  O        -21.6360   23.9910    1.8920 O.2   225  SER225     -0.2866
     83  CB       -18.9990   23.8310    3.0630 C.3   225  SER225      0.2089
     84  OG       -18.3570   23.5240    1.8270 O.3   225  SER225     -0.2183
     85  N        -20.0490   24.3890   -1.1060 N.3   227  THR227     -0.1203
     86  CA       -19.4150   23.3480   -1.9210 C.3   227  THR227      0.1994
     87  C        -20.1870   22.0150   -1.7960 C.2   227  THR227      0.2618
     88  O        -20.4330   21.3590   -2.7840 O.2   227  THR227     -0.2717
     89  CB       -17.9700   23.1580   -1.4540 C.3   227  THR227      0.1784
     90  OG1      -17.3350   24.4150   -1.2640 O.3   227  THR227     -0.2211
     91  CG2      -17.1820   22.2940   -2.4230 C.3   227  THR227      0.0376
     92  N        -20.5810   21.6370   -0.6030 N.am  228  LYS228     -0.1965
     93  CA       -20.9810   20.2770   -0.3470 C.3   228  LYS228      0.1728
     94  C        -22.2560   19.9130   -0.9910 C.2   228  LYS228      0.2616
     95  O        -22.3290   18.8700   -1.6420 O.2   228  LYS228     -0.2715
     96  CB       -21.0940   19.9560    1.1130 C.3   228  LYS228      0.0311
     97  CG       -19.7070   19.9990    1.7870 C.3   228  LYS228      0.0038
     98  CD       -18.8290   18.7800    1.4350 C.3   228  LYS228      0.0206
     99  CE       -17.3800   19.0130    1.8640 C.3   228  LYS228      0.1093
    100  NZ       -17.3270   19.3580    3.2540 N.3   228  LYS228     -0.1314
    101  N        -23.2870   20.7130   -0.7820 N.am  229  TYR229     -0.1974
    102  CA       -24.6270   20.3840   -1.2530 C.3   229  TYR229      0.1639
    103  C        -25.2640   21.4620   -2.0780 C.2   229  TYR229      0.2290
    104  O        -25.8590   21.1670   -3.0900 O.2   229  TYR229     -0.2864
    105  CB       -25.5500   20.0410   -0.0870 C.3   229  TYR229      0.0560
    106  CG       -24.9540   18.9940    0.7840 C.ar  229  TYR229     -0.0198
    107  CD1      -24.8370   17.6750    0.3220 C.ar  229  TYR229     -0.0009
    108  CD2      -24.4350   19.3020    2.0370 C.ar  229  TYR229     -0.0009
    109  CE1      -24.2570   16.6840    1.1140 C.ar  229  TYR229      0.0417
    110  CE2      -23.8650   18.3170    2.8310 C.ar  229  TYR229      0.0417
    111  CZ       -23.7760   17.0160    2.3660 C.ar  229  TYR229      0.1957
    112  OH       -23.1890   16.0330    3.1470 O.3   229  TYR229     -0.2866
    113  N        -16.6990   25.7010   -5.5420 N.3   237  ILE237     -0.1245
    114  CA       -16.2750   25.7540   -4.1780 C.3   237  ILE237      0.1561
    115  C        -16.7150   27.1410   -3.6550 C.2   237  ILE237      0.2260
    116  O        -16.4120   28.1470   -4.2680 O.2   237  ILE237     -0.2867
    117  CB       -14.7690   25.5980   -4.1240 C.3   237  ILE237      0.0252
    118  CG1      -14.3790   24.2060   -4.5950 C.3   237  ILE237      0.0019
    119  CG2      -14.2490   25.8130   -2.7100 C.3   237  ILE237      0.0019
    120  CD1      -13.0330   24.1620   -5.2130 C.3   237  ILE237      0.0001
@<TRIPOS>BOND
     1   113   114    1
     2   120   118    1
     3   118   117    1
     4   116   115    2
     5   114   117    1
     6   114   115    1
     7   117   119    1
     8   104   103    2
     9    88    87    2
    10    91    89    1
    11   103   102    1
    12    86    87    1
    13    86    89    1
    14    86    85    1
    15    87    92   am
    16    95    94    2
    17    89    90    1
    18   102   101    1
    19   102   105    1
    20    94   101   am
    21    94    93    1
    22    92    93    1
    23    93    96    1
    24   105   106    1
    25     1     2    1
    26   107   106   ar
    27   107   109   ar
    28     2     5    1
    29     2     3    1
    30     5     6    1
    31   106   108   ar
    32    96    97    1
    33   109   111   ar
    34    98    97    1
    35    98    99    1
    36     3     7   am
    37     3     4    2
    38    84    83    1
    39    81    82    2
    40    81    80    1
    41    99   100    1
    42   108   110   ar
    43     7     8    1
    44   111   110   ar
    45   111   112    1
    46    80    83    1
    47    80    79    1
    48     8     9    1
    49    11     9   am
    50    11    12    1
    51    38    37    1
    52    70    68    1
    53     9    10    2
    54    67    66    2
    55    15    12    1
    56    15    16    1
    57    74    73    2
    58    12    13    1
    59    16    17    1
    60    13    14    2
    61    37    35   ar
    62    37    36   ar
    63    66    65    1
    64    66    71   am
    65    68    69    1
    66    68    65    1
    67    65    64    1
    68    35    33   ar
    69    73    72    1
    70    77    76    1
    71    36    34   ar
    72    72    71    1
    73    72    75    1
    74    17    18    1
    75    33    32   ar
    76    55    53   am
    77    76    78    1
    78    76    75    1
    79    19    20    1
    80    54    53    2
    81    34    32   ar
    82    53    52    1
    83    32    31    1
    84    62    61   ar
    85    26    24    1
    86    24    23    1
    87    20    23    1
    88    20    21    1
    89    52    49    1
    90    63    61   ar
    91    23    25    1
    92    31    28    1
    93    61    60    1
    94    21    22    2
    95    58    57    1
    96    58    59    2
    97    28    29    1
    98    28    27    1
    99    49    48    1
   100    49    50    1
   101    57    60    1
   102    57    56    1
   103    29    30    2
   104    46    45   ar
   105    50    51    2
   106    45    47   ar
   107    45    44    1
   108    44    43    1
   109    43    40    1
   110    40    41    1
   111    40    39    1
   112    41    42    2
