@<TRIPOS>MOLECULE
tmp/5ijjA00.pdb
 116 111 0 0 0
SMALL
GASTEIGER

@<TRIPOS>ATOM
      1  N        -14.0230   -9.5020   28.5280 N.3     1  MET1       -0.1230
      2  CA       -13.4950   -8.1100   28.6680 C.3     1  MET1        0.1702
      3  C        -14.2900   -7.3730   29.7890 C.2     1  MET1        0.2592
      4  O        -15.4970   -7.4640   29.8380 O.2     1  MET1       -0.2718
      5  CB       -13.5400   -7.3730   27.3210 C.3     1  MET1        0.0401
      6  CG       -12.8070   -6.0500   27.3840 C.3     1  MET1        0.0596
      7  SD       -12.9300   -5.1160   25.8980 S.3     1  MET1       -0.1393
      8  CE       -11.3020   -5.1320   25.3640 C.3     1  MET1        0.0692
      9  N        -13.5430   -6.7220   30.7060 N.am    2  LYS2       -0.1966
     10  CA       -13.9910   -5.7600   31.7360 C.3     2  LYS2        0.1728
     11  C        -14.6180   -4.6030   30.9810 C.2     2  LYS2        0.2616
     12  O        -13.9400   -3.8540   30.3240 O.2     2  LYS2       -0.2715
     13  CB       -12.7690   -5.2380   32.5430 C.3     2  LYS2        0.0311
     14  CG       -13.1690   -4.4330   33.7370 C.3     2  LYS2        0.0038
     15  CD       -13.7880   -5.2330   34.8630 C.3     2  LYS2        0.0206
     16  CE       -13.9630   -4.3420   36.0900 C.3     2  LYS2        0.1093
     17  NZ       -14.9820   -4.8300   37.0490 N.3     2  LYS2       -0.1314
     18  N        -15.9240   -4.4460   31.0700 N.am    3  PHE3       -0.1960
     19  CA       -16.5750   -3.4090   30.2900 C.3     3  PHE3        0.1771
     20  C        -16.5610   -2.0480   31.0170 C.2     3  PHE3        0.2620
     21  O        -16.1830   -1.0500   30.4020 O.2     3  PHE3       -0.2715
     22  CB       -18.0260   -3.8180   30.0090 C.3     3  PHE3        0.0574
     23  CG       -18.7260   -2.8580   29.1500 C.ar    3  PHE3       -0.0200
     24  CD1      -19.5100   -1.8920   29.6980 C.ar    3  PHE3       -0.0042
     25  CD2      -18.4430   -2.8290   27.7650 C.ar    3  PHE3       -0.0042
     26  CE1      -20.1270   -0.9580   28.8770 C.ar    3  PHE3       -0.0003
     27  CE2      -19.0510   -1.9300   26.9660 C.ar    3  PHE3       -0.0003
     28  CZ       -19.9030   -0.9910   27.5240 C.ar    3  PHE3       -0.0000
     29  N        -17.0260   -2.0380   32.3000 N.am    4  GLY4       -0.1940
     30  CA       -17.1790   -0.8010   33.1200 C.3     4  GLY4        0.2014
     31  C        -15.9020    0.0040   33.2780 C.2     4  GLY4        0.2638
     32  O        -15.8840    1.2250   33.0540 O.2     4  GLY4       -0.2714
     33  N        -14.8110   -0.6720   33.6180 N.am    5  LYS5       -0.1977
     34  CA       -13.5290    0.0180   33.7490 C.3     5  LYS5        0.1596
     35  C        -13.0050    0.5900   32.3950 C.2     5  LYS5        0.2287
     36  O        -12.2970    1.6010   32.3330 O.2     5  LYS5       -0.2864
     37  CB       -12.5020   -0.9460   34.3950 C.3     5  LYS5        0.0298
     38  CG       -11.0830   -0.4220   34.4700 C.3     5  LYS5        0.0038
     39  CD       -10.9010    0.9030   35.2340 C.3     5  LYS5        0.0206
     40  CE        -9.6740    1.6910   34.7620 C.3     5  LYS5        0.1093
     41  NZ        -9.0510    2.4280   35.8950 N.3     5  LYS5       -0.1314
     42  N        -24.0030    2.3810   32.1400 N.3    22  TYR22      -0.1241
     43  CA       -23.6480    1.0570   32.6650 C.3    22  TYR22       0.1605
     44  C        -23.5890    1.0600   34.2050 C.2    22  TYR22       0.2264
     45  O        -24.0260    0.1280   34.8540 O.2    22  TYR22      -0.2867
     46  CB       -22.3220    0.5900   32.1130 C.3    22  TYR22       0.0534
     47  CG       -22.0290   -0.8680   32.2890 C.ar   22  TYR22      -0.0201
     48  CD1      -22.5420   -1.8270   31.4040 C.ar   22  TYR22      -0.0009
     49  CD2      -21.1420   -1.2880   33.2700 C.ar   22  TYR22      -0.0009
     50  CE1      -22.2220   -3.1520   31.5470 C.ar   22  TYR22       0.0417
     51  CE2      -20.8390   -2.6280   33.4510 C.ar   22  TYR22       0.0417
     52  CZ       -21.3770   -3.5540   32.5830 C.ar   22  TYR22       0.1957
     53  OH       -21.0640   -4.8690   32.7180 O.3    22  TYR22      -0.2866
     54  N        -25.7630   -1.2170   36.7760 N.3    26  LYS26      -0.1245
     55  CA       -25.1360   -2.1090   37.6920 C.3    26  LYS26       0.1561
     56  C        -25.6670   -2.0060   39.0930 C.2    26  LYS26       0.2260
     57  O        -25.7760   -3.0320   39.7230 O.2    26  LYS26      -0.2867
     58  CB       -23.6660   -1.8660   37.8080 C.3    26  LYS26       0.0271
     59  CG       -22.8680   -2.4300   36.7060 C.3    26  LYS26       0.0035
     60  CD       -21.3510   -2.2330   37.0720 C.3    26  LYS26       0.0206
     61  CE       -20.8760   -3.2240   38.1110 C.3    26  LYS26       0.1093
     62  NZ       -19.6910   -2.6350   38.7780 N.3    26  LYS26      -0.1314
     63  N        -27.1820   -4.9700   41.3040 N.3    30  LYS30      -0.1245
     64  CA       -26.7520   -5.2670   42.6250 C.3    30  LYS30       0.1561
     65  C        -27.9270   -5.3260   43.5960 C.2    30  LYS30       0.2260
     66  O        -27.9670   -6.2330   44.4280 O.2    30  LYS30      -0.2867
     67  CB       -25.6510   -4.2920   43.0730 C.3    30  LYS30       0.0271
     68  CG       -24.3620   -4.5860   42.3230 C.3    30  LYS30       0.0035
     69  CD       -23.1350   -3.7580   42.7340 C.3    30  LYS30       0.0206
     70  CE       -22.0360   -3.8350   41.6890 C.3    30  LYS30       0.1093
     71  NZ       -21.0210   -2.7590   41.8220 N.3    30  LYS30      -0.1314
     72  N        -23.1270   -7.1420   27.9550 N.3   125  LYS125     -0.1245
     73  CA       -22.4630   -7.3580   29.2650 C.3   125  LYS125      0.1561
     74  C        -23.3620   -7.1750   30.4780 C.2   125  LYS125      0.2260
     75  O        -23.2750   -7.9500   31.4040 O.2   125  LYS125     -0.2867
     76  CB       -21.2520   -6.4670   29.3450 C.3   125  LYS125      0.0271
     77  CG       -20.1170   -7.0060   28.5130 C.3   125  LYS125      0.0035
     78  CD       -19.2660   -8.0720   29.2150 C.3   125  LYS125      0.0206
     79  CE       -18.9910   -7.7770   30.6910 C.3   125  LYS125      0.1093
     80  NZ       -17.8440   -8.5690   31.3190 N.3   125  LYS125     -0.1314
     81  N        -25.7780  -10.1580   30.6950 N.3   128  LYS128     -0.1231
     82  CA       -25.0280  -11.2620   31.1600 C.3   128  LYS128      0.1693
     83  C        -24.7680  -11.1670   32.6610 C.2   128  LYS128      0.2591
     84  O        -24.7250  -12.1860   33.4010 O.2   128  LYS128     -0.2718
     85  CB       -23.7130  -11.2900   30.4220 C.3   128  LYS128      0.0285
     86  CG       -22.7980  -12.4290   30.7580 C.3   128  LYS128      0.0035
     87  CD       -21.4430  -12.2470   30.0570 C.3   128  LYS128      0.0206
     88  CE       -20.3920  -11.6380   31.0410 C.3   128  LYS128      0.1093
     89  NZ       -18.9710  -12.1630   31.0710 N.3   128  LYS128     -0.1314
     90  N        -24.4430   -9.9730   33.0950 N.am  129  LYS129     -0.1980
     91  CA       -24.2050   -9.7540   34.5000 C.3   129  LYS129      0.1596
     92  C        -25.4670  -10.0960   35.3880 C.2   129  LYS129      0.2287
     93  O        -25.3840  -10.8330   36.4130 O.2   129  LYS129     -0.2864
     94  CB       -23.7760   -8.3050   34.7690 C.3   129  LYS129      0.0298
     95  CG       -23.5620   -8.0220   36.2940 C.3   129  LYS129      0.0038
     96  CD       -23.2090   -6.5850   36.6450 C.3   129  LYS129      0.0206
     97  CE       -21.9740   -6.0860   35.8670 C.3   129  LYS129      0.1093
     98  NZ       -20.7400   -6.7250   36.4550 N.3   129  LYS129     -0.1314
     99  N        -26.0250  -13.7730   35.7120 N.3   132  LYS132     -0.1231
    100  CA       -24.9740  -14.4160   36.5070 C.3   132  LYS132      0.1693
    101  C        -25.2940  -14.1530   37.9910 C.2   132  LYS132      0.2591
    102  O        -25.0470  -15.0070   38.7960 O.2   132  LYS132     -0.2718
    103  CB       -23.6060  -13.7720   36.0290 C.3   132  LYS132      0.0285
    104  CG       -22.2920  -14.3850   36.3660 C.3   132  LYS132      0.0035
    105  CD       -21.2260  -13.7060   35.5070 C.3   132  LYS132      0.0206
    106  CE       -19.8670  -13.7560   36.1630 C.3   132  LYS132      0.1093
    107  NZ       -19.1320  -12.5020   35.8440 N.3   132  LYS132     -0.1314
    108  N        -25.8790  -13.0010   38.3190 N.am  133  LYS133     -0.1980
    109  CA       -26.0490  -12.5460   39.7340 C.3   133  LYS133      0.1596
    110  C        -27.4330  -12.7840   40.3340 C.2   133  LYS133      0.2287
    111  O        -27.6140  -12.5890   41.5220 O.2   133  LYS133     -0.2864
    112  CB       -25.7470  -11.0580   39.9080 C.3   133  LYS133      0.0298
    113  CG       -24.4280  -10.5680   39.4360 C.3   133  LYS133      0.0038
    114  CD       -23.3040  -11.0460   40.2750 C.3   133  LYS133      0.0206
    115  CE       -22.0550  -10.3410   39.7590 C.3   133  LYS133      0.1093
    116  NZ       -20.9220  -10.8020   40.5590 N.3   133  LYS133     -0.1314
@<TRIPOS>BOND
     1     8     7    1
     2     7     6    1
     3    27    28   ar
     4    27    25   ar
     5     5     6    1
     6     5     2    1
     7    28    26   ar
     8    25    23   ar
     9    72    73    1
    10    77    78    1
    11    77    76    1
    12     1     2    1
    13     2     3    1
    14    26    24   ar
    15    23    24   ar
    16    23    22    1
    17    78    79    1
    18    73    76    1
    19    73    74    1
    20     3     4    2
    21     3     9   am
    22    22    19    1
    23    87    86    1
    24    87    88    1
    25    19    20    1
    26    19    18    1
    27    12    11    2
    28    21    20    2
    29    85    86    1
    30    85    82    1
    31    74    75    2
    32    79    80    1
    33    81    82    1
    34     9    10    1
    35    11    18   am
    36    11    10    1
    37    20    29   am
    38    88    89    1
    39    82    83    1
    40    48    50   ar
    41    48    47   ar
    42    50    52   ar
    43    10    13    1
    44    46    47    1
    45    46    43    1
    46    42    43    1
    47    47    49   ar
    48    29    30    1
    49    36    35    2
    50    35    34    1
    51    13    14    1
    52    52    53    1
    53    52    51   ar
    54    83    90   am
    55    83    84    2
    56    43    44    1
    57    32    31    2
    58    90    91    1
    59    30    31    1
    60    49    51   ar
    61    31    33   am
    62    33    34    1
    63    14    15    1
    64    34    37    1
    65    44    45    2
    66    37    38    1
    67    38    39    1
    68    91    94    1
    69    91    92    1
    70    40    39    1
    71    40    41    1
    72    94    95    1
    73    15    16    1
    74    92    93    2
    75   105   106    1
    76   105   104    1
    77    99   100    1
    78   107   106    1
    79    97    98    1
    80    97    96    1
    81   103   104    1
    82   103   100    1
    83    16    17    1
    84    95    96    1
    85   100   101    1
    86    59    60    1
    87    59    58    1
    88    54    55    1
    89    60    61    1
    90    55    58    1
    91    55    56    1
    92   101   108   am
    93   101   102    2
    94    61    62    1
    95   108   109    1
    96    56    57    2
    97   113   112    1
    98   113   114    1
    99   109   112    1
   100   109   110    1
   101   115   114    1
   102   115   116    1
   103   110   111    2
   104    63    64    1
   105    70    71    1
   106    70    69    1
   107    68    69    1
   108    68    67    1
   109    64    67    1
   110    64    65    1
   111    65    66    2
