@<TRIPOS>MOLECULE
tmp/5ijpA00.pdb
 97 92 0 0 0
SMALL
GASTEIGER

@<TRIPOS>ATOM
      1  N        -12.4510   -7.7070    8.2150 N.3     1  MET1       -0.1230
      2  CA       -13.1140   -7.2150    7.0090 C.3     1  MET1        0.1702
      3  C        -13.9840   -5.9730    7.2570 C.2     1  MET1        0.2592
      4  O        -14.2160   -5.5970    8.4090 O.2     1  MET1       -0.2718
      5  CB       -13.9200   -8.3380    6.3290 C.3     1  MET1        0.0401
      6  CG       -13.1870   -8.9990    5.1730 C.3     1  MET1        0.0596
      7  SD       -12.9140   -7.9230    3.7340 S.3     1  MET1       -0.1393
      8  CE       -14.5440   -7.9290    2.9980 C.3     1  MET1        0.0692
      9  N        -14.4530   -5.3340    6.1650 N.am    2  LYS2       -0.1966
     10  CA       -15.2890   -4.1280    6.1930 C.3     2  LYS2        0.1728
     11  C        -16.3420   -4.1170    5.0650 C.2     2  LYS2        0.2616
     12  O        -16.4970   -3.1090    4.3700 O.2     2  LYS2       -0.2715
     13  CB       -14.4220   -2.8370    6.2040 C.3     2  LYS2        0.0311
     14  CG       -13.0830   -2.9120    5.4490 C.3     2  LYS2        0.0038
     15  CD       -13.2090   -2.7130    3.9390 C.3     2  LYS2        0.0206
     16  CE       -11.9010   -2.9660    3.2310 C.3     2  LYS2        0.1093
     17  NZ       -12.0540   -2.9060    1.7540 N.3     2  LYS2       -0.1314
     18  N        -17.0820   -5.2380    4.9080 N.am    3  PHE3       -0.1960
     19  CA       -18.1080   -5.3980    3.8710 C.3     3  PHE3        0.1771
     20  C        -19.3250   -4.4790    4.0440 C.2     3  PHE3        0.2620
     21  O        -19.8590   -3.9990    3.0410 O.2     3  PHE3       -0.2715
     22  CB       -18.5500   -6.8660    3.7260 C.3     3  PHE3        0.0574
     23  CG       -19.3420   -7.1250    2.4630 C.ar    3  PHE3       -0.0200
     24  CD1      -18.6970   -7.3520    1.2530 C.ar    3  PHE3       -0.0042
     25  CD2      -20.7320   -7.1120    2.4790 C.ar    3  PHE3       -0.0042
     26  CE1      -19.4290   -7.5610    0.0810 C.ar    3  PHE3       -0.0003
     27  CE2      -21.4620   -7.3070    1.3050 C.ar    3  PHE3       -0.0003
     28  CZ       -20.8050   -7.5360    0.1160 C.ar    3  PHE3       -0.0000
     29  N        -19.7500   -4.2570    5.2910 N.am    4  GLY4       -0.1940
     30  CA       -20.8880   -3.4070    5.6390 C.3     4  GLY4        0.2014
     31  C        -20.8160   -2.0080    5.0550 C.2     4  GLY4        0.2638
     32  O        -21.8330   -1.4610    4.6190 O.2     4  GLY4       -0.2714
     33  N        -19.5970   -1.4370    5.0220 N.am    5  GLN5       -0.1977
     34  CA       -19.3060   -0.1160    4.4670 C.3     5  GLN5        0.1601
     35  C        -18.9580   -0.2220    2.9730 C.2     5  GLN5        0.2287
     36  O        -19.2490    0.7080    2.2200 O.2     5  GLN5       -0.2864
     37  CB       -18.1650    0.5510    5.2490 C.3     5  GLN5        0.0394
     38  CG       -18.1770    2.0720    5.1780 C.3     5  GLN5        0.0908
     39  CD       -17.0950    2.6740    6.0350 C.2     5  GLN5        0.2608
     40  OE1      -15.9170    2.7020    5.6640 O.2     5  GLN5       -0.2717
     41  NE2      -17.4720    3.1740    7.2010 N.am    5  GLN5       -0.0878
     42  N        -27.5110   -6.6430    4.2980 N.3    22  TYR22      -0.1241
     43  CA       -26.3790   -7.1920    5.0450 C.3    22  TYR22       0.1605
     44  C        -26.4150   -6.7920    6.5160 C.2    22  TYR22       0.2264
     45  O        -26.2120   -7.6470    7.3760 O.2    22  TYR22      -0.2867
     46  CB       -25.0510   -6.7780    4.3870 C.3    22  TYR22       0.0534
     47  CG       -23.8640   -7.6130    4.8140 C.ar   22  TYR22      -0.0201
     48  CD1      -23.5650   -8.8130    4.1750 C.ar   22  TYR22      -0.0009
     49  CD2      -23.0170   -7.1870    5.8320 C.ar   22  TYR22      -0.0009
     50  CE1      -22.4670   -9.5820    4.5570 C.ar   22  TYR22       0.0417
     51  CE2      -21.9160   -7.9470    6.2230 C.ar   22  TYR22       0.0417
     52  CZ       -21.6440   -9.1440    5.5810 C.ar   22  TYR22       0.1957
     53  OH       -20.5610   -9.8970    5.9620 O.3    22  TYR22      -0.2866
     54  N        -27.4060   -9.2470    9.6690 N.3    26  LYS26      -0.1245
     55  CA       -26.3750   -9.2750   10.7150 C.3    26  LYS26       0.1561
     56  C        -27.0220   -9.0230   12.0830 C.2    26  LYS26       0.2260
     57  O        -26.6570   -9.6770   13.0620 O.2    26  LYS26      -0.2867
     58  CB       -25.3030   -8.2080   10.4320 C.3    26  LYS26       0.0271
     59  CG       -23.9580   -8.4590   11.1120 C.3    26  LYS26       0.0035
     60  CD       -23.0600   -7.2160   11.1080 C.3    26  LYS26       0.0206
     61  CE       -22.3680   -6.9610    9.7870 C.3    26  LYS26       0.1093
     62  NZ       -21.6110   -5.6820    9.7980 N.3    26  LYS26      -0.1314
     63  N        -27.9970  -11.5640   15.9520 N.3    30  LYS30      -0.1245
     64  CA       -27.8080  -11.1330   17.3390 C.3    30  LYS30       0.1561
     65  C        -29.1050  -11.2960   18.1470 C.2    30  LYS30       0.2260
     66  O        -29.0580  -11.3060   19.3800 O.2    30  LYS30      -0.2867
     67  CB       -27.3280   -9.6650   17.3900 C.3    30  LYS30       0.0271
     68  CG       -26.0530   -9.3640   16.5940 C.3    30  LYS30       0.0035
     69  CD       -24.7760   -9.6300   17.3870 C.3    30  LYS30       0.0206
     70  CE       -23.5430   -9.3680   16.5590 C.3    30  LYS30       0.1093
     71  NZ       -22.3000   -9.6580   17.3190 N.3    30  LYS30      -0.1314
     72  N        -20.7500  -14.1440    2.5320 N.3   130  LYS130     -0.1245
     73  CA       -20.2010  -13.6370    3.7900 C.3   130  LYS130      0.1561
     74  C        -21.1770  -13.7650    4.9580 C.2   130  LYS130      0.2260
     75  O        -20.7480  -14.1300    6.0530 O.2   130  LYS130     -0.2867
     76  CB       -19.7310  -12.1830    3.6370 C.3   130  LYS130      0.0271
     77  CG       -18.2480  -11.9840    3.9150 C.3   130  LYS130      0.0035
     78  CD       -17.4570  -11.7440    2.6370 C.3   130  LYS130      0.0206
     79  CE       -16.0000  -11.4770    2.9180 C.3   130  LYS130      0.1093
     80  NZ       -15.2530  -11.1490    1.6760 N.3   130  LYS130     -0.1314
     81  N        -20.9960  -16.1230    8.2980 N.3   134  LYS134     -0.1245
     82  CA       -21.1400  -15.3820    9.5550 C.3   134  LYS134      0.1561
     83  C        -22.1530  -16.1040   10.4530 C.2   134  LYS134      0.2260
     84  O        -21.9510  -16.1700   11.6650 O.2   134  LYS134     -0.2867
     85  CB       -21.5950  -13.9380    9.2810 C.3   134  LYS134      0.0271
     86  CG       -21.4280  -12.9880   10.4670 C.3   134  LYS134      0.0035
     87  CD       -22.0850  -11.6310   10.2120 C.3   134  LYS134      0.0206
     88  CE       -21.1450  -10.5940    9.6360 C.3   134  LYS134      0.1093
     89  NZ       -20.2240  -10.0420   10.6660 N.3   134  LYS134     -0.1314
     90  N        -21.2120  -17.6430   14.0840 N.3   138  MET138     -0.1245
     91  CA       -21.8550  -17.0560   15.2660 C.3   138  MET138      0.1570
     92  C        -22.7880  -18.0190   16.0020 C.2   138  MET138      0.2261
     93  O        -22.6690  -18.1690   17.2190 O.2   138  MET138     -0.2867
     94  CB       -22.6260  -15.7750   14.8990 C.3   138  MET138      0.0387
     95  CG       -21.7530  -14.5600   14.7130 C.3   138  MET138      0.0595
     96  SD       -22.7630  -13.0910   14.4060 S.3   138  MET138     -0.1393
     97  CE       -21.5040  -11.8550   14.3220 C.3   138  MET138      0.0692
@<TRIPOS>BOND
     1    26    28   ar
     2    26    24   ar
     3    28    27   ar
     4    24    23   ar
     5    27    25   ar
     6    80    79    1
     7    17    16    1
     8    36    35    2
     9    23    25   ar
    10    23    22    1
    11    72    73    1
    12    78    79    1
    13    78    77    1
    14    35    34    1
    15     8     7    1
    16    21    20    2
    17    16    15    1
    18    76    73    1
    19    76    77    1
    20    22    19    1
    21     7     6    1
    22    73    74    1
    23    19    20    1
    24    19    18    1
    25    15    14    1
    26    20    29   am
    27    48    50   ar
    28    48    47   ar
    29    42    43    1
    30    12    11    2
    31    46    47    1
    32    46    43    1
    33    34    33    1
    34    34    37    1
    35    50    52   ar
    36    32    31    2
    37    47    49   ar
    38    18    11   am
    39    74    75    2
    40    33    31   am
    41    43    44    1
    42    31    30    1
    43    11    10    1
    44     6     5    1
    45    38    37    1
    46    38    39    1
    47    29    30    1
    48    14    13    1
    49    52    53    1
    50    52    51   ar
    51    40    39    2
    52    49    51   ar
    53    39    41   am
    54     9    10    1
    55     9     3   am
    56    10    13    1
    57     5     2    1
    58    44    45    2
    59     2     3    1
    60     2     1    1
    61     3     4    2
    62    81    82    1
    63    85    82    1
    64    85    86    1
    65    82    83    1
    66    88    87    1
    67    88    89    1
    68    54    55    1
    69    61    62    1
    70    61    60    1
    71    87    86    1
    72    58    55    1
    73    58    59    1
    74    83    84    2
    75    55    56    1
    76    60    59    1
    77    56    57    2
    78    90    91    1
    79    97    96    1
    80    96    95    1
    81    95    94    1
    82    94    91    1
    83    91    92    1
    84    63    64    1
    85    92    93    2
    86    70    71    1
    87    70    69    1
    88    68    69    1
    89    68    67    1
    90    64    67    1
    91    64    65    1
    92    65    66    2
