@<TRIPOS>MOLECULE
tmp/5ijsA02.pdb
 197 200 0 0 0
SMALL
GASTEIGER

@<TRIPOS>ATOM
      1  N         30.3870    4.1900   25.6360 N.3    23  LEU23      -0.1245
      2  CA        30.5940    4.0010   27.0720 C.3    23  LEU23       0.1561
      3  C         31.9790    4.4130   27.5840 C.2    23  LEU23       0.2260
      4  O         32.3290    4.0710   28.7130 O.2    23  LEU23      -0.2867
      5  CB        30.3440    2.5300   27.4160 C.3    23  LEU23       0.0270
      6  CG        28.9270    2.0270   27.1440 C.3    23  LEU23       0.0019
      7  CD1       28.9130    0.5150   26.9540 C.3    23  LEU23       0.0001
      8  CD2       28.0030    2.4530   28.2750 C.3    23  LEU23       0.0001
      9  N         31.5660    6.3090   30.7870 N.3    26  SER26      -0.1202
     10  CA        31.2040    5.4040   31.8880 C.3    26  SER26       0.2020
     11  C         32.4000    4.6770   32.5320 C.2    26  SER26       0.2618
     12  O         32.3320    4.3220   33.7090 O.2    26  SER26      -0.2717
     13  CB        30.1720    4.3720   31.4100 C.3    26  SER26       0.2103
     14  OG        29.0090    4.9920   30.8890 O.3    26  SER26      -0.2182
     15  N         33.4700    4.4470   31.7640 N.am   27  TYR27      -0.1975
     16  CA        34.7380    3.9090   32.2940 C.3    27  TYR27       0.1639
     17  C         35.7730    4.9970   32.6280 C.2    27  TYR27       0.2290
     18  O         36.8570    4.6730   33.1120 O.2    27  TYR27      -0.2864
     19  CB        35.3650    2.9180   31.2990 C.3    27  TYR27       0.0560
     20  CG        34.6440    1.5910   31.1680 C.ar   27  TYR27      -0.0198
     21  CD1       34.9840    0.5030   31.9760 C.ar   27  TYR27      -0.0009
     22  CD2       33.6350    1.4130   30.2190 C.ar   27  TYR27      -0.0009
     23  CE1       34.3310   -0.7180   31.8460 C.ar   27  TYR27       0.0417
     24  CE2       32.9750    0.1980   30.0820 C.ar   27  TYR27       0.0417
     25  CZ        33.3260   -0.8640   30.8950 C.ar   27  TYR27       0.1957
     26  OH        32.6720   -2.0670   30.7530 O.3    27  TYR27      -0.2866
     27  N         17.2360   -2.0260   36.2140 N.3   154  PHE154     -0.1241
     28  CA        18.1700   -3.0680   35.7760 C.3   154  PHE154      0.1605
     29  C         17.5790   -4.4670   35.5940 C.2   154  PHE154      0.2264
     30  O         17.8550   -5.1080   34.5810 O.2   154  PHE154     -0.2867
     31  CB        19.4040   -3.1290   36.6790 C.3   154  PHE154      0.0534
     32  CG        20.5280   -2.2410   36.2210 C.ar  154  PHE154     -0.0203
     33  CD1       20.3010   -0.8950   35.9310 C.ar  154  PHE154     -0.0042
     34  CD2       21.8120   -2.7460   36.0740 C.ar  154  PHE154     -0.0042
     35  CE1       21.3350   -0.0790   35.4990 C.ar  154  PHE154     -0.0003
     36  CE2       22.8530   -1.9320   35.6430 C.ar  154  PHE154     -0.0003
     37  CZ        22.6130   -0.5970   35.3550 C.ar  154  PHE154     -0.0000
     38  N         17.4060   -5.9980   31.6600 N.3   158  TYR158     -0.1241
     39  CA        18.1150   -7.2270   31.3590 C.3   158  TYR158      0.1605
     40  C         17.1530   -8.3740   31.0160 C.2   158  TYR158      0.2264
     41  O         17.4710   -9.2020   30.1590 O.2   158  TYR158     -0.2867
     42  CB        19.1350   -7.5980   32.4390 C.3   158  TYR158      0.0534
     43  CG        20.2800   -8.4520   31.9080 C.ar  158  TYR158     -0.0201
     44  CD1       20.9880   -8.0820   30.7550 C.ar  158  TYR158     -0.0009
     45  CD2       20.6580   -9.6340   32.5480 C.ar  158  TYR158     -0.0009
     46  CE1       22.0210   -8.8660   30.2650 C.ar  158  TYR158      0.0417
     47  CE2       21.6930  -10.4140   32.0640 C.ar  158  TYR158      0.0417
     48  CZ        22.3690  -10.0250   30.9160 C.ar  158  TYR158      0.1957
     49  OH        23.4010  -10.7830   30.4150 O.3   158  TYR158     -0.2866
     50  N         23.8420    0.3300   41.1310 N.3   187  LEU187     -0.1245
     51  CA        23.4810    1.0480   39.9060 C.3   187  LEU187      0.1561
     52  C         24.5770    2.0510   39.5650 C.2   187  LEU187      0.2260
     53  O         25.0170    2.1390   38.4170 O.2   187  LEU187     -0.2867
     54  CB        22.1300    1.7520   40.0790 C.3   187  LEU187      0.0270
     55  CG        21.3940    2.2000   38.8100 C.3   187  LEU187      0.0019
     56  CD1       19.8950    2.2640   39.0740 C.3   187  LEU187      0.0001
     57  CD2       21.9020    3.5340   38.2690 C.3   187  LEU187      0.0001
     58  N         29.4320   -3.0090   38.4720 N.3   192  LYS192     -0.1231
     59  CA        28.4360   -3.4990   37.5120 C.3   192  LYS192      0.1693
     60  C         28.9920   -3.8000   36.1020 C.2   192  LYS192      0.2592
     61  O         28.3680   -4.5390   35.3350 O.2   192  LYS192     -0.2718
     62  CB        27.2500   -2.5230   37.4150 C.3   192  LYS192      0.0285
     63  CG        27.5620   -1.1520   36.8250 C.3   192  LYS192      0.0035
     64  CD        26.2960   -0.3950   36.4640 C.3   192  LYS192      0.0206
     65  CE        26.6150    0.9670   35.8690 C.3   192  LYS192      0.1093
     66  NZ        27.2670    1.8810   36.8500 N.3   192  LYS192     -0.1314
     67  N         30.1480   -3.2220   35.7700 N.am  193  PHE193     -0.1976
     68  CA        30.7870   -3.4420   34.4750 C.3   193  PHE193      0.1639
     69  C         31.4960   -4.7940   34.3590 C.2   193  PHE193      0.2290
     70  O         31.8120   -5.2260   33.2450 O.2   193  PHE193     -0.2864
     71  CB        31.7530   -2.2940   34.1530 C.3   193  PHE193      0.0560
     72  CG        31.0640   -0.9710   33.9820 C.ar  193  PHE193     -0.0200
     73  CD1       30.4970   -0.6180   32.7650 C.ar  193  PHE193     -0.0042
     74  CD2       30.9450   -0.0960   35.0470 C.ar  193  PHE193     -0.0042
     75  CE1       29.8470    0.5950   32.6130 C.ar  193  PHE193     -0.0003
     76  CE2       30.2930    1.1200   34.9050 C.ar  193  PHE193     -0.0003
     77  CZ        29.7430    1.4660   33.6850 C.ar  193  PHE193     -0.0000
     78  N         31.8010   -8.6920   34.0790 N.3   195  HIS195     -0.1241
     79  CA        30.9190   -9.6490   33.3950 C.3   195  HIS195      0.1621
     80  C         30.3250  -10.7370   34.2980 C.2   195  HIS195      0.2264
     81  O         29.2490  -11.2510   34.0090 O.2   195  HIS195     -0.2867
     82  CB        31.6030  -10.2770   32.1650 C.3   195  HIS195      0.0745
     83  CG        32.8170  -11.1060   32.4690 C.ar  195  HIS195      0.0817
     84  ND1       32.7480  -12.4440   32.7970 N.ar  195  HIS195     -0.2268
     85  CD2       34.1380  -10.8000   32.4330 C.ar  195  HIS195      0.1154
     86  CE1       33.9680  -12.9170   32.9790 C.ar  195  HIS195      0.1986
     87  NE2       34.8300  -11.9390   32.7620 N.ar  195  HIS195     -0.2212
     88  N         26.4750  -11.0900   35.1190 N.3   198  TRP198     -0.1227
     89  CA        25.4650  -11.1380   34.0650 C.3   198  TRP198      0.1737
     90  C         25.3450  -12.5260   33.4380 C.2   198  TRP198      0.2596
     91  O         26.2660  -13.0080   32.7870 O.2   198  TRP198     -0.2718
     92  CB        25.7840  -10.0960   33.0000 C.3   198  TRP198      0.0564
     93  CG        26.0280   -8.7300   33.5590 C.ar  198  TRP198      0.0003
     94  CD1       27.1890   -8.2640   34.1100 C.ar  198  TRP198      0.0946
     95  CD2       25.0860   -7.6540   33.6400 C.ar  198  TRP198      0.0152
     96  NE1       27.0280   -6.9610   34.5290 N.ar  198  TRP198     -0.2442
     97  CE2       25.7450   -6.5640   34.2520 C.ar  198  TRP198      0.0810
     98  CE3       23.7480   -7.5030   33.2570 C.ar  198  TRP198      0.0012
     99  CZ2       25.1130   -5.3400   34.4840 C.ar  198  TRP198      0.0191
    100  CZ3       23.1150   -6.2770   33.4890 C.ar  198  TRP198      0.0001
    101  CH2       23.8020   -5.2150   34.0980 C.ar  198  TRP198      0.0015
    102  N         24.1920  -13.1520   33.6530 N.am  199  GLY199     -0.1942
    103  CA        23.8950  -14.4870   33.1480 C.3   199  GLY199      0.2014
    104  C         23.0570  -14.4190   31.8970 C.2   199  GLY199      0.2639
    105  O         22.8300  -13.3410   31.3470 O.2   199  GLY199     -0.2714
    106  N         22.6110  -15.5850   31.4390 N.am  200  GLY200     -0.1939
    107  CA        21.8080  -15.6900   30.2310 C.3   200  GLY200      0.2014
    108  C         22.6070  -15.3480   28.9950 C.2   200  GLY200      0.2639
    109  O         23.8400  -15.4150   28.9920 O.2   200  GLY200     -0.2714
    110  N         21.8960  -14.9850   27.9380 N.am  201  GLN201     -0.1963
    111  CA        22.5280  -14.5310   26.7050 C.3   201  GLN201      0.1718
    112  C         21.6830  -13.3890   26.1540 C.2   201  GLN201      0.2458
    113  O         20.6040  -13.6350   25.6140 O.2   201  GLN201     -0.2730
    114  CB        22.6460  -15.6770   25.6990 C.3   201  GLN201      0.0407
    115  CG        23.4220  -15.3040   24.4440 C.3   201  GLN201      0.0908
    116  CD        23.4270  -16.4120   23.4120 C.2   201  GLN201      0.2608
    117  OE1       22.6680  -16.3760   22.4540 O.2   201  GLN201     -0.2717
    118  NE2       24.2760  -17.4050   23.6120 N.am  201  GLN201     -0.0878
    119  N         22.1560  -12.1360   26.3040 N.am  202  PRO202     -0.2727
    120  CA        21.3510  -11.0150   25.8380 C.3   202  PRO202      0.1402
    121  C         21.3200  -10.8950   24.3120 C.2   202  PRO202      0.2269
    122  O         22.1670  -11.4690   23.6290 O.2   202  PRO202     -0.2865
    123  CB        22.0230   -9.7980   26.4870 C.3   202  PRO202      0.0296
    124  CG        23.4300  -10.2090   26.7090 C.3   202  PRO202      0.0237
    125  CD        23.4240  -11.6920   26.9160 C.3   202  PRO202      0.0939
    126  N         22.1170   -8.8030   21.9790 N.3   204  TRP204     -0.1227
    127  CA        23.3200   -8.3550   21.2470 C.3   204  TRP204      0.1737
    128  C         24.3830   -9.4630   21.0990 C.2   204  TRP204      0.2595
    129  O         25.1130   -9.4880   20.1070 O.2   204  TRP204     -0.2718
    130  CB        23.9230   -7.0520   21.8400 C.3   204  TRP204      0.0564
    131  CG        24.3130   -7.1080   23.2990 C.ar  204  TRP204      0.0003
    132  CD1       25.5240   -7.4660   23.8090 C.ar  204  TRP204      0.0946
    133  CD2       23.4810   -6.7870   24.4250 C.ar  204  TRP204      0.0152
    134  NE1       25.4950   -7.4050   25.1850 N.ar  204  TRP204     -0.2442
    135  CE2       24.2510   -6.9900   25.5870 C.ar  204  TRP204      0.0810
    136  CE3       22.1500   -6.3540   24.5630 C.ar  204  TRP204      0.0012
    137  CZ2       23.7370   -6.7680   26.8790 C.ar  204  TRP204      0.0191
    138  CZ3       21.6380   -6.1340   25.8540 C.ar  204  TRP204      0.0001
    139  CH2       22.4320   -6.3470   26.9870 C.ar  204  TRP204      0.0015
    140  N         24.4480  -10.3810   22.0620 N.am  205  ILE205     -0.1980
    141  CA        25.3480  -11.5350   21.9760 C.3   205  ILE205      0.1595
    142  C         24.7410  -12.6270   21.1060 C.2   205  ILE205      0.2287
    143  O         25.4490  -13.2400   20.3060 O.2   205  ILE205     -0.2864
    144  CB        25.7080  -12.0860   23.3720 C.3   205  ILE205      0.0276
    145  CG1       26.4450  -11.0190   24.1980 C.3   205  ILE205      0.0022
    146  CG2       26.5570  -13.3490   23.2730 C.3   205  ILE205      0.0022
    147  CD1       27.7430  -10.5010   23.6010 C.3   205  ILE205      0.0001
    148  N         24.1250    0.5330   25.0060 N.3   218  PHE218     -0.1227
    149  CA        24.1330    1.3700   26.2000 C.3   218  PHE218      0.1736
    150  C         24.8340    2.6950   25.9680 C.2   218  PHE218      0.2595
    151  O         25.8650    2.7460   25.3030 O.2   218  PHE218     -0.2718
    152  CB        24.8040    0.6140   27.3330 C.3   218  PHE218      0.0547
    153  CG        24.1880   -0.7210   27.5890 C.ar  218  PHE218     -0.0202
    154  CD1       23.0020   -0.8130   28.3100 C.ar  218  PHE218     -0.0042
    155  CD2       24.7630   -1.8810   27.0810 C.ar  218  PHE218     -0.0042
    156  CE1       22.4110   -2.0400   28.5490 C.ar  218  PHE218     -0.0003
    157  CE2       24.1760   -3.1150   27.3150 C.ar  218  PHE218     -0.0003
    158  CZ        22.9980   -3.1910   28.0510 C.ar  218  PHE218     -0.0000
    159  N         24.2660    3.7530   26.5460 N.am  219  TRP219     -0.1962
    160  CA        24.7280    5.1190   26.3460 C.3   219  TRP219      0.1771
    161  C         25.1220    5.7550   27.6760 C.2   219  TRP219      0.2620
    162  O         24.3880    5.6620   28.6510 O.2   219  TRP219     -0.2715
    163  CB        23.6110    5.9410   25.7260 C.3   219  TRP219      0.0590
    164  CG        23.0600    5.3770   24.4670 C.ar  219  TRP219      0.0006
    165  CD1       22.0190    4.5010   24.3450 C.ar  219  TRP219      0.0946
    166  CD2       23.5030    5.6670   23.1380 C.ar  219  TRP219      0.0152
    167  NE1       21.7900    4.2180   23.0200 N.ar  219  TRP219     -0.2442
    168  CE2       22.6830    4.9230   22.2550 C.ar  219  TRP219      0.0810
    169  CE3       24.5170    6.4790   22.6040 C.ar  219  TRP219      0.0012
    170  CZ2       22.8410    4.9730   20.8650 C.ar  219  TRP219      0.0191
    171  CZ3       24.6730    6.5310   21.2170 C.ar  219  TRP219      0.0001
    172  CH2       23.8380    5.7780   20.3640 C.ar  219  TRP219      0.0015
    173  N         26.2800    6.4030   27.7130 N.am  220  SER220     -0.1936
    174  CA        26.6790    7.1660   28.8900 C.3   220  SER220      0.2055
    175  C         25.7080    8.3230   29.0860 C.2   220  SER220      0.2642
    176  O         25.3020    8.9660   28.1160 O.2   220  SER220     -0.2714
    177  CB        28.1070    7.6880   28.7460 C.3   220  SER220      0.2130
    178  OG        29.0220    6.6110   28.6710 O.3   220  SER220     -0.2179
    179  N         25.3290    8.5720   30.3380 N.am  221  VAL221     -0.1977
    180  CA        24.3280    9.6020   30.6490 C.3   221  VAL221      0.1596
    181  C         24.7240   11.0110   30.1580 C.2   221  VAL221      0.2287
    182  O         23.8540   11.8250   29.8470 O.2   221  VAL221     -0.2864
    183  CB        23.9530    9.6050   32.1590 C.3   221  VAL221      0.0276
    184  CG1       25.1200   10.0540   33.0440 C.3   221  VAL221      0.0022
    185  CG2       22.7150   10.4600   32.4030 C.3   221  VAL221      0.0022
    186  N         18.0820    4.3020   24.7340 N.3   250  TYR250     -0.1241
    187  CA        17.6040    4.3300   26.1080 C.3   250  TYR250      0.1605
    188  C         17.3500    5.7880   26.4970 C.2   250  TYR250      0.2264
    189  O         18.1500    6.6620   26.1640 O.2   250  TYR250     -0.2867
    190  CB        18.6340    3.6980   27.0460 C.3   250  TYR250      0.0534
    191  CG        18.3290    3.9220   28.5090 C.ar  250  TYR250     -0.0201
    192  CD1       17.3310    3.1840   29.1560 C.ar  250  TYR250     -0.0009
    193  CD2       19.0170    4.8920   29.2480 C.ar  250  TYR250     -0.0009
    194  CE1       17.0370    3.3970   30.4980 C.ar  250  TYR250      0.0417
    195  CE2       18.7280    5.1110   30.5830 C.ar  250  TYR250      0.0417
    196  CZ        17.7400    4.3620   31.2030 C.ar  250  TYR250      0.1957
    197  OH        17.4560    4.5830   32.5270 O.3   250  TYR250     -0.2866
@<TRIPOS>BOND
     1   129   128    2
     2   143   142    2
     3   172   170   ar
     4   172   171   ar
     5   170   168   ar
     6   128   127    1
     7   128   140   am
     8   142   141    1
     9   171   169   ar
    10   127   130    1
    11   127   126    1
    12   130   131    1
    13   141   140    1
    14   141   144    1
    15   168   167   ar
    16   168   166   ar
    17   117   116    2
    18   169   166   ar
    19   167   165   ar
    20   166   164   ar
    21   146   144    1
    22   131   132   ar
    23   131   133   ar
    24   144   145    1
    25   116   118   am
    26   116   115    1
    27   147   145    1
    28   122   121    2
    29   132   134   ar
    30   121   120    1
    31   165   164   ar
    32   133   136   ar
    33   133   135   ar
    34   115   114    1
    35   164   163    1
    36   136   138   ar
    37   186   187    1
    38   148   149    1
    39   134   135   ar
    40   151   150    2
    41   135   137   ar
    42   113   112    2
    43     1     2    1
    44   114   111    1
    45   163   160    1
    46   120   119    1
    47   120   123    1
    48   138   139   ar
    49   150   149    1
    50   150   159   am
    51   187   188    1
    52   187   190    1
    53   112   119   am
    54   112   111    1
    55   189   188    2
    56   149   152    1
    57   119   125    1
    58   160   159    1
    59   160   161    1
    60   123   124    1
    61   111   110    1
    62   124   125    1
    63   137   139   ar
    64     7     6    1
    65   190   191    1
    66     2     5    1
    67     2     3    1
    68   155   157   ar
    69   155   153   ar
    70     6     5    1
    71     6     8    1
    72   157   158   ar
    73   152   153    1
    74     3     4    2
    75   153   154   ar
    76   161   173   am
    77   161   162    2
    78   173   174    1
    79   110   108   am
    80   158   156   ar
    81   176   175    2
    82   154   156   ar
    83   191   192   ar
    84   191   193   ar
    85   178   177    1
    86   177   174    1
    87   174   175    1
    88   109   108    2
    89   108   107    1
    90   175   179   am
    91   192   194   ar
    92   193   195   ar
    93   182   181    2
    94    24    22   ar
    95    24    25   ar
    96   181   180    1
    97    41    40    2
    98    22    20   ar
    99   107   106    1
   100    46    44   ar
   101    46    48   ar
   102   179   180    1
   103    49    48    1
   104   194   196   ar
   105   195   196   ar
   106   180   183    1
   107    26    25    1
   108    44    43   ar
   109     9    10    1
   110    14    13    1
   111    25    23   ar
   112    48    47   ar
   113    40    39    1
   114    20    19    1
   115    20    21   ar
   116   196   197    1
   117    19    16    1
   118   105   104    2
   119    39    38    1
   120    39    42    1
   121    13    10    1
   122   106   104   am
   123    15    16    1
   124    15    11   am
   125    23    21   ar
   126    10    11    1
   127   104   103    1
   128    43    42    1
   129    43    45   ar
   130    47    45   ar
   131   183   185    1
   132   183   184    1
   133    82    83    1
   134    82    79    1
   135    16    17    1
   136    85    83   ar
   137    85    87   ar
   138    83    84   ar
   139    11    12    2
   140    75    73   ar
   141    75    77   ar
   142    17    18    2
   143    87    86   ar
   144    73    72   ar
   145    91    90    2
   146    84    86   ar
   147    92    93    1
   148    92    89    1
   149   103   102    1
   150    70    69    2
   151    98   100   ar
   152    98    95   ar
   153    79    78    1
   154    79    80    1
   155    90   102   am
   156    90    89    1
   157   100   101   ar
   158    93    95   ar
   159    93    94   ar
   160    95    97   ar
   161    77    76   ar
   162    72    71    1
   163    72    74   ar
   164    81    80    2
   165    89    88    1
   166   101    99   ar
   167    94    96   ar
   168    71    68    1
   169    97    99   ar
   170    97    96   ar
   171    69    68    1
   172    68    67    1
   173    30    29    2
   174    76    74   ar
   175    61    60    2
   176    37    35   ar
   177    37    36   ar
   178    35    33   ar
   179    29    28    1
   180    36    34   ar
   181    67    60   am
   182    28    27    1
   183    28    31    1
   184    65    64    1
   185    65    66    1
   186    33    32   ar
   187    34    32   ar
   188    60    59    1
   189    32    31    1
   190    64    63    1
   191    63    62    1
   192    62    59    1
   193    59    58    1
   194    57    55    1
   195    53    52    2
   196    55    56    1
   197    55    54    1
   198    52    51    1
   199    51    54    1
   200    51    50    1
