@<TRIPOS>MOLECULE
tmp/5ijsA00.pdb
 98 96 0 0 0
SMALL
GASTEIGER

@<TRIPOS>ATOM
      1  N         14.5870  -13.7840   30.1860 N.3   164  LEU164     -0.1231
      2  CA        14.7560  -14.5520   31.4070 C.3   164  LEU164      0.1693
      3  C         14.2070  -13.7890   32.5970 C.2   164  LEU164      0.2592
      4  O         14.1570  -12.5520   32.5920 O.2   164  LEU164     -0.2718
      5  CB        16.2360  -14.8440   31.6580 C.3   164  LEU164      0.0284
      6  CG        16.9560  -15.7920   30.6940 C.3   164  LEU164      0.0019
      7  CD1       18.4500  -15.8040   30.9800 C.3   164  LEU164      0.0001
      8  CD2       16.3920  -17.2010   30.7970 C.3   164  LEU164      0.0001
      9  N         13.7800  -14.5420   33.6090 N.am  165  TYR165     -0.1976
     10  CA        13.4050  -13.9720   34.8990 C.3   165  TYR165      0.1639
     11  C         14.6780  -13.5100   35.5950 C.2   165  TYR165      0.2290
     12  O         15.7320  -14.1140   35.4040 O.2   165  TYR165     -0.2864
     13  CB        12.7000  -15.0040   35.7870 C.3   165  TYR165      0.0560
     14  CG        11.3550  -15.4570   35.2780 C.ar  165  TYR165     -0.0198
     15  CD1       10.3080  -14.5570   35.1350 C.ar  165  TYR165     -0.0009
     16  CD2       11.1250  -16.7920   34.9590 C.ar  165  TYR165     -0.0009
     17  CE1        9.0750  -14.9670   34.6670 C.ar  165  TYR165      0.0417
     18  CE2        9.8910  -17.2160   34.4950 C.ar  165  TYR165      0.0417
     19  CZ         8.8740  -16.2980   34.3430 C.ar  165  TYR165      0.1957
     20  OH         7.6530  -16.7230   33.8870 O.3   165  TYR165     -0.2866
     21  N         15.8230  -14.0170   38.5410 N.3   167  GLU167     -0.1231
     22  CA        16.4680  -15.1370   39.2400 C.3   167  GLU167      0.1699
     23  C         17.3560  -16.0090   38.3360 C.2   167  GLU167      0.2592
     24  O         18.3320  -16.5850   38.8200 O.2   167  GLU167     -0.2718
     25  CB        15.4320  -16.0180   39.9500 C.3   167  GLU167      0.0402
     26  CG        14.5460  -16.8630   39.0330 C.3   167  GLU167      0.1161
     27  CD        13.5960  -17.7700   39.7970 C.2   167  GLU167      0.3649
     28  OE1       13.6210  -17.7810   41.0480 O.co2 167  GLU167     -0.2457
     29  OE2       12.8060  -18.4720   39.1380 O.co2 167  GLU167     -0.2457
     30  N         16.9920  -16.1180   37.0520 N.am  168  SER168     -0.1952
     31  CA        17.7610  -16.8750   36.0670 C.3   168  SER168      0.1924
     32  C         18.8910  -16.0650   35.4360 C.2   168  SER168      0.2314
     33  O         19.9790  -16.6030   35.2570 O.2   168  SER168     -0.2863
     34  CB        16.8500  -17.4400   34.9770 C.3   168  SER168      0.2116
     35  OG        16.0350  -18.4680   35.4990 O.3   168  SER168     -0.2180
     36  N          8.3620  -15.4570   40.5950 N.3   377  HIS377     -0.1241
     37  CA         9.5790  -16.1830   40.2040 C.3   377  HIS377      0.1621
     38  C         10.8400  -15.5800   40.8470 C.2   377  HIS377      0.2264
     39  O         11.8870  -15.4260   40.1970 O.2   377  HIS377     -0.2867
     40  CB         9.7000  -16.2550   38.6700 C.3   377  HIS377      0.0745
     41  CG         8.5550  -16.9590   38.0050 C.ar  377  HIS377      0.0817
     42  ND1        8.4440  -18.3340   37.9700 N.ar  377  HIS377     -0.2268
     43  CD2        7.4670  -16.4780   37.3580 C.ar  377  HIS377      0.1154
     44  CE1        7.3380  -18.6680   37.3290 C.ar  377  HIS377      0.1986
     45  NE2        6.7270  -17.5600   36.9480 N.ar  377  HIS377     -0.2212
     46  N         17.8570  -20.4150   25.0580 N.3   456  PRO456     -0.2102
     47  CA        16.7790  -20.8940   25.9360 C.3   456  PRO456      0.1504
     48  C         16.3620  -19.8030   26.9140 C.2   456  PRO456      0.2576
     49  O         17.2250  -19.2050   27.5540 O.2   456  PRO456     -0.2718
     50  CB        17.4150  -22.0840   26.6670 C.3   456  PRO456      0.0282
     51  CG        18.5250  -22.5290   25.7620 C.3   456  PRO456      0.0208
     52  CD        19.0610  -21.2590   25.1680 C.3   456  PRO456      0.0893
     53  N         15.0630  -19.5140   26.9780 N.am  457  ASN457     -0.1961
     54  CA        14.5470  -18.4230   27.8000 C.3   457  ASN457      0.1819
     55  C         13.1410  -18.7390   28.3550 C.2   457  ASN457      0.2621
     56  O         12.5900  -19.8030   28.0760 O.2   457  ASN457     -0.2715
     57  CB        14.5930  -17.1100   27.0010 C.3   457  ASN457      0.1195
     58  CG        13.6260  -17.0890   25.8350 C.2   457  ASN457      0.2630
     59  OD1       12.5400  -16.5130   25.9270 O.2   457  ASN457     -0.2716
     60  ND2       14.0170  -17.7050   24.7230 N.am  457  ASN457     -0.0877
     61  N         12.5770  -17.8320   29.1520 N.am  458  ASN458     -0.1972
     62  CA        11.3040  -18.0900   29.8600 C.3   458  ASN458      0.1688
     63  C         10.0640  -17.5950   29.1490 C.2   458  ASN458      0.2292
     64  O          8.9650  -17.7750   29.6600 O.2   458  ASN458     -0.2864
     65  CB        11.3590  -17.5180   31.2820 C.3   458  ASN458      0.1181
     66  CG        12.5790  -17.9910   32.0300 C.2   458  ASN458      0.2629
     67  OD1       13.3650  -17.1900   32.5300 O.2   458  ASN458     -0.2716
     68  ND2       12.7510  -19.3110   32.0940 N.am  458  ASN458     -0.0877
     69  N         12.7480  -23.7890   42.5090 N.3   667  ASP667     -0.1225
     70  CA        13.2210  -23.3820   41.1800 C.3   667  ASP667      0.1805
     71  C         12.0920  -23.1440   40.1640 C.2   667  ASP667      0.2598
     72  O         12.3560  -22.8160   39.0110 O.2   667  ASP667     -0.2718
     73  CB        14.2890  -24.3510   40.6430 C.3   667  ASP667      0.1424
     74  CG        13.7830  -25.7740   40.4430 C.2   667  ASP667      0.3668
     75  OD1       12.5580  -26.0310   40.4930 O.co2 667  ASP667     -0.2456
     76  OD2       14.6420  -26.6570   40.2430 O.co2 667  ASP667     -0.2456
     77  N         10.8430  -23.2890   40.6020 N.am  668  GLY668     -0.1942
     78  CA         9.6820  -23.1520   39.7310 C.3   668  GLY668      0.2014
     79  C          9.4190  -24.3400   38.8210 C.2   668  GLY668      0.2638
     80  O          8.5910  -24.2450   37.9110 O.2   668  GLY668     -0.2714
     81  N         10.1090  -25.4550   39.0620 N.am  669  LEU669     -0.1977
     82  CA        10.0250  -26.6290   38.1950 C.3   669  LEU669      0.1596
     83  C          9.5930  -27.8420   39.0080 C.2   669  LEU669      0.2287
     84  O          9.9110  -27.9550   40.1960 O.2   669  LEU669     -0.2864
     85  CB        11.3710  -26.9200   37.5110 C.3   669  LEU669      0.0297
     86  CG        12.0930  -25.7730   36.7910 C.3   669  LEU669      0.0022
     87  CD1       13.4210  -26.2690   36.2300 C.3   669  LEU669      0.0001
     88  CD2       11.2430  -25.1670   35.6870 C.3   669  LEU669      0.0001
     89  N          5.0640  -25.7290   34.1750 N.3   755  HIS755     -0.1241
     90  CA         6.4690  -25.8880   34.6010 C.3   755  HIS755      0.1621
     91  C          6.5540  -26.6240   35.9350 C.2   755  HIS755      0.2264
     92  O          7.4390  -27.4510   36.1490 O.2   755  HIS755     -0.2867
     93  CB         7.1840  -24.5430   34.7720 C.3   755  HIS755      0.0745
     94  CG         7.2970  -23.7400   33.5170 C.ar  755  HIS755      0.0817
     95  ND1        7.8440  -24.2400   32.3550 N.ar  755  HIS755     -0.2268
     96  CD2        6.9710  -22.4530   33.2560 C.ar  755  HIS755      0.1154
     97  CE1        7.8220  -23.3050   31.4230 C.ar  755  HIS755      0.1986
     98  NE2        7.2950  -22.2110   31.9440 N.ar  755  HIS755     -0.2212
@<TRIPOS>BOND
     1    60    58   am
     2    46    52    1
     3    46    47    1
     4    52    51    1
     5    51    50    1
     6    58    59    2
     7    58    57    1
     8    47    50    1
     9    47    48    1
    10    48    53   am
    11    48    49    2
    12    53    54    1
    13    57    54    1
    14    54    55    1
    15    56    55    2
    16    55    61   am
    17    63    64    2
    18    63    62    1
    19    61    62    1
    20    62    65    1
    21     1     2    1
    22     6     8    1
    23     6     7    1
    24     6     5    1
    25    65    66    1
    26     2     5    1
    27     2     3    1
    28    97    98   ar
    29    97    95   ar
    30    98    96   ar
    31    66    68   am
    32    66    67    2
    33    95    94   ar
    34     4     3    2
    35     3     9   am
    36    96    94   ar
    37    94    93    1
    38     9    10    1
    39    20    19    1
    40    89    90    1
    41    19    18   ar
    42    19    17   ar
    43    18    16   ar
    44    90    93    1
    45    90    91    1
    46    17    15   ar
    47    10    11    1
    48    10    13    1
    49    16    14   ar
    50    34    35    1
    51    34    31    1
    52    15    14   ar
    53    33    32    2
    54    14    13    1
    55    12    11    2
    56    32    31    1
    57    88    86    1
    58    91    92    2
    59    31    30    1
    60    87    86    1
    61    86    85    1
    62    45    44   ar
    63    45    43   ar
    64    30    23   am
    65    44    42   ar
    66    43    41   ar
    67    85    82    1
    68    80    79    2
    69    42    41   ar
    70    41    40    1
    71    82    83    1
    72    82    81    1
    73    23    24    2
    74    23    22    1
    75    21    22    1
    76    40    37    1
    77    79    81   am
    78    79    78    1
    79    83    84    2
    80    72    71    2
    81    26    27    1
    82    26    25    1
    83    29    27   ar
    84    22    25    1
    85    78    77    1
    86    27    28   ar
    87    71    77   am
    88    71    70    1
    89    39    38    2
    90    37    36    1
    91    37    38    1
    92    76    74   ar
    93    74    75   ar
    94    74    73    1
    95    73    70    1
    96    70    69    1
