@<TRIPOS>MOLECULE
tmp/5ijwB00.pdb
 111 106 0 0 0
SMALL
GASTEIGER

@<TRIPOS>ATOM
      1  N         25.0900   61.6090   61.0920 N.3    14  ASP14      -0.1225
      2  CA        24.7340   60.4210   61.8490 C.3    14  ASP14       0.1805
      3  C         25.3220   60.5880   63.2330 C.2    14  ASP14       0.2598
      4  O         26.2050   61.4180   63.4420 O.2    14  ASP14      -0.2718
      5  CB        25.2740   59.1400   61.1810 C.3    14  ASP14       0.1424
      6  CG        24.9740   57.8900   61.9870 C.2    14  ASP14       0.3668
      7  OD1       23.7870   57.6670   62.3100 O.co2  14  ASP14      -0.2456
      8  OD2       25.9220   57.1400   62.3100 O.co2  14  ASP14      -0.2456
      9  N         24.8090   59.7980   64.1850 N.am   15  SER15      -0.1952
     10  CA        25.4060   59.7620   65.5130 C.3    15  SER15       0.1924
     11  C         26.8540   59.3030   65.4880 C.2    15  SER15       0.2314
     12  O         27.5920   59.5690   66.4450 O.2    15  SER15      -0.2863
     13  CB        24.5980   58.8340   66.4290 C.3    15  SER15       0.2116
     14  OG        24.7410   57.4820   66.0260 O.3    15  SER15      -0.2180
     15  N         27.0270   57.1310   71.4960 N.3    45  PRO45      -0.2102
     16  CA        25.7960   56.8700   70.7420 C.3    45  PRO45       0.1504
     17  C         24.5910   57.6420   71.2570 C.2    45  PRO45       0.2576
     18  O         24.5450   58.0250   72.4360 O.2    45  PRO45      -0.2718
     19  CB        25.5820   55.3640   70.9340 C.3    45  PRO45       0.0282
     20  CG        26.2280   55.0800   72.2630 C.3    45  PRO45       0.0208
     21  CD        27.4560   55.9560   72.2720 C.3    45  PRO45       0.0893
     22  N         23.6250   57.8720   70.3620 N.am   46  TYR46      -0.1963
     23  CA        22.3940   58.5670   70.7270 C.3    46  TYR46       0.1771
     24  C         21.3540   57.6320   71.3290 C.2    46  TYR46       0.2620
     25  O         20.4870   58.0850   72.0900 O.2    46  TYR46      -0.2715
     26  CB        21.7780   59.2420   69.5050 C.3    46  TYR46       0.0574
     27  CG        22.5410   60.4110   68.9050 C.ar   46  TYR46      -0.0198
     28  CD1       23.5940   61.0220   69.5760 C.ar   46  TYR46      -0.0009
     29  CD2       22.1760   60.9120   67.6490 C.ar   46  TYR46      -0.0009
     30  CE1       24.2800   62.1110   69.0060 C.ar   46  TYR46       0.0417
     31  CE2       22.8460   61.9770   67.0740 C.ar   46  TYR46       0.0417
     32  CZ        23.8920   62.5800   67.7520 C.ar   46  TYR46       0.1957
     33  OH        24.5340   63.6490   67.1480 O.3    46  TYR46      -0.2866
     34  N         21.4010   56.3490   70.9800 N.am   47  GLY47      -0.1954
     35  CA        20.4340   55.3670   71.4380 C.3    47  GLY47       0.1869
     36  C         19.9740   55.4570   72.8860 C.2    47  GLY47       0.2309
     37  O         18.7740   55.4060   73.1670 O.2    47  GLY47      -0.2863
     38  N         20.6500   59.0400   60.7360 N.3    77  CYS77      -0.1221
     39  CA        20.4890   58.3850   62.0290 C.3    77  CYS77       0.1808
     40  C         19.0040   58.2800   62.3500 C.2    77  CYS77       0.2601
     41  O         18.3070   59.2960   62.3610 O.2    77  CYS77      -0.2717
     42  CB        21.2020   59.2090   63.1000 C.3    77  CYS77       0.0970
     43  SG        21.0410   58.5310   64.7600 S.3    77  CYS77      -0.0800
     44  N         18.5210   57.0570   62.6190 N.am   78  ASN78      -0.1960
     45  CA        17.1190   56.9010   63.0120 C.3    78  ASN78       0.1819
     46  C         16.8380   57.5400   64.3640 C.2    78  ASN78       0.2621
     47  O         15.7370   58.0530   64.5890 O.2    78  ASN78      -0.2715
     48  CB        16.7400   55.4220   63.0600 C.3    78  ASN78       0.1195
     49  CG        16.9090   54.7350   61.7180 C.2    78  ASN78       0.2630
     50  OD1       18.0280   54.4540   61.2990 O.2    78  ASN78      -0.2716
     51  ND2       15.7950   54.4550   61.0390 N.am   78  ASN78      -0.0877
     52  N         17.8090   57.5130   65.2780 N.am   79  THR79      -0.1951
     53  CA        17.5840   58.1220   66.5830 C.3    79  THR79       0.1897
     54  C         17.5170   59.6460   66.4750 C.2    79  THR79       0.2313
     55  O         16.6140   60.2760   67.0370 O.2    79  THR79      -0.2863
     56  CB        18.6680   57.6920   67.5760 C.3    79  THR79       0.1794
     57  OG1       18.7220   56.2570   67.6570 O.3    79  THR79      -0.2208
     58  CG2       18.3340   58.2340   68.9570 C.3    79  THR79       0.0378
     59  N         16.7050   51.6530   68.2550 N.3   122  THR122     -0.1218
     60  CA        17.2280   51.9360   69.5840 C.3   122  THR122      0.1862
     61  C         16.0980   52.2820   70.5450 C.2   122  THR122      0.2287
     62  O         14.9720   52.6010   70.1540 O.2   122  THR122     -0.2866
     63  CB        18.1900   53.1210   69.5800 C.3   122  THR122      0.1770
     64  OG1       17.4580   54.3020   69.2210 O.3   122  THR122     -0.2211
     65  CG2       19.3610   52.8920   68.6140 C.3   122  THR122      0.0375
     66  N         14.7940   55.8340   69.8240 N.3   125  THR125     -0.1218
     67  CA        13.9560   55.8130   68.6300 C.3   125  THR125      0.1862
     68  C         12.5730   55.2620   68.9290 C.2   125  THR125      0.2287
     69  O         11.5640   55.8250   68.4920 O.2   125  THR125     -0.2866
     70  CB        14.6160   54.9640   67.5550 C.3   125  THR125      0.1770
     71  OG1       15.8140   55.6060   67.1350 O.3   125  THR125     -0.2211
     72  CG2       13.6640   54.7910   66.3700 C.3   125  THR125      0.0375
     73  N         23.3180   47.2330   68.5040 N.3   152  VAL152     -0.1245
     74  CA        24.3690   48.1310   68.0110 C.3   152  VAL152      0.1561
     75  C         25.7530   47.6070   68.3990 C.2   152  VAL152      0.2260
     76  O         26.6710   47.5510   67.5690 O.2   152  VAL152     -0.2867
     77  CB        24.1350   49.5660   68.5180 C.3   152  VAL152      0.0252
     78  CG1       25.4180   50.3820   68.4310 C.3   152  VAL152      0.0019
     79  CG2       23.0410   50.2400   67.6860 C.3   152  VAL152      0.0019
     80  N         28.7600   46.4060   65.9020 N.3   156  GLU156     -0.1245
     81  CA        30.0560   47.0760   65.8570 C.3   156  GLU156      0.1567
     82  C         31.1940   46.1010   66.1400 C.2   156  GLU156      0.2260
     83  O         32.2780   46.2440   65.5650 O.2   156  GLU156     -0.2867
     84  CB        30.0710   48.2740   66.8110 C.3   156  GLU156      0.0388
     85  CG        29.1110   49.3780   66.3310 C.3   156  GLU156      0.1160
     86  CD        29.3240   50.7480   66.9690 C.2   156  GLU156      0.3649
     87  OE1       30.0510   50.8500   67.9710 O.co2 156  GLU156     -0.2457
     88  OE2       28.7420   51.7320   66.4560 O.co2 156  GLU156     -0.2457
     89  N         17.2700   51.4300   62.3300 N.3   188  CYS188     -0.1221
     90  CA        18.5410   51.7900   62.9420 C.3   188  CYS188      0.1808
     91  C         19.6240   51.6210   61.8910 C.2   188  CYS188      0.2602
     92  O         19.5680   50.6660   61.1090 O.2   188  CYS188     -0.2717
     93  CB        18.8290   50.8950   64.1560 C.3   188  CYS188      0.0970
     94  SG        20.4200   51.1470   64.9740 S.3   188  CYS188     -0.0800
     95  N         20.6050   52.5370   61.8920 N.am  189  THR189     -0.1939
     96  CA        21.6860   52.5130   60.9010 C.3   189  THR189      0.2028
     97  C         22.4150   51.1780   60.8810 C.2   189  THR189      0.2642
     98  O         22.9410   50.7720   59.8370 O.2   189  THR189     -0.2714
     99  CB        22.7130   53.6170   61.1880 C.3   189  THR189      0.1808
    100  OG1       23.1100   53.5610   62.5660 O.3   189  THR189     -0.2208
    101  CG2       22.1690   55.0020   60.8820 C.3   189  THR189      0.0379
    102  N         22.5120   50.5150   62.0350 N.am  190  HIS190     -0.1973
    103  CA        23.3480   49.3240   62.1460 C.3   190  HIS190      0.1656
    104  C         22.6500   48.0560   61.6720 C.2   190  HIS190      0.2291
    105  O         23.3200   47.0420   61.4500 O.2   190  HIS190     -0.2864
    106  CB        23.7910   49.1260   63.6040 C.3   190  HIS190      0.0771
    107  CG        24.7490   50.1690   64.1010 C.ar  190  HIS190      0.0820
    108  ND1       24.5200   51.5230   63.9700 N.ar  190  HIS190     -0.2267
    109  CD2       25.9330   50.0500   64.7530 C.ar  190  HIS190      0.1154
    110  CE1       25.5250   52.1930   64.5070 C.ar  190  HIS190      0.1986
    111  NE2       26.3970   51.3230   64.9880 N.ar  190  HIS190     -0.2212
@<TRIPOS>BOND
     1    98    97    2
     2    38    39    1
     3    97    96    1
     4    97   102   am
     5   101    99    1
     6    96    99    1
     7    96    95    1
     8    51    49   am
     9     1     2    1
    10    92    91    2
    11     5     2    1
    12     5     6    1
    13    99   100    1
    14    50    49    2
    15   105   104    2
    16   104   103    1
    17    49    48    1
    18     2     3    1
    19    91    95   am
    20    91    90    1
    21     6     8   ar
    22     6     7   ar
    23    39    40    1
    24    39    42    1
    25   102   103    1
    26   103   106    1
    27    89    90    1
    28    40    41    2
    29    40    44   am
    30    44    45    1
    31    90    93    1
    32    45    48    1
    33    45    46    1
    34    42    43    1
    35     3     4    2
    36     3     9   am
    37   106   107    1
    38   108   107   ar
    39   108   110   ar
    40   107   109   ar
    41    93    94    1
    42     9    10    1
    43    46    47    2
    44    46    52   am
    45   110   111   ar
    46   109   111   ar
    47    52    53    1
    48    11    10    1
    49    11    12    2
    50    10    13    1
    51    83    82    2
    52    81    80    1
    53    81    82    1
    54    81    84    1
    55    14    13    1
    56    85    84    1
    57    85    86    1
    58    72    70    1
    59    88    86   ar
    60    54    53    1
    61    54    55    2
    62    53    56    1
    63    86    87   ar
    64    31    29   ar
    65    31    32   ar
    66    71    70    1
    67    33    32    1
    68    70    67    1
    69    76    75    2
    70    56    57    1
    71    56    58    1
    72    29    27   ar
    73    79    77    1
    74    32    30   ar
    75    74    75    1
    76    74    73    1
    77    74    77    1
    78    59    60    1
    79    78    77    1
    80    69    68    2
    81    65    63    1
    82    67    68    1
    83    67    66    1
    84    27    26    1
    85    27    28   ar
    86    30    28   ar
    87    64    63    1
    88    26    23    1
    89    63    60    1
    90    60    61    1
    91    62    61    2
    92    22    23    1
    93    22    17   am
    94    23    24    1
    95    16    19    1
    96    16    17    1
    97    16    15    1
    98    19    20    1
    99    34    24   am
   100    34    35    1
   101    17    18    2
   102    24    25    2
   103    35    36    1
   104    15    21    1
   105    20    21    1
   106    36    37    2
