@<TRIPOS>MOLECULE
tmp/5ijxA00.pdb
 131 121 0 0 0
SMALL
GASTEIGER

@<TRIPOS>ATOM
      1  N         35.5980    2.0900   14.1930 N.3    65  TYR65      -0.1241
      2  CA        35.7370    1.7680   15.6060 C.3    65  TYR65       0.1605
      3  C         35.5440    3.0210   16.4470 C.2    65  TYR65       0.2264
      4  O         35.8640    4.1350   16.0230 O.2    65  TYR65      -0.2867
      5  CB        37.0940    1.1060   15.9120 C.3    65  TYR65       0.0534
      6  CG        38.1700    2.0210   16.4670 C.ar   65  TYR65      -0.0201
      7  CD1       38.2990    2.2220   17.8370 C.ar   65  TYR65      -0.0009
      8  CD2       39.0750    2.6570   15.6280 C.ar   65  TYR65      -0.0009
      9  CE1       39.2850    3.0450   18.3520 C.ar   65  TYR65       0.0417
     10  CE2       40.0640    3.4840   16.1350 C.ar   65  TYR65       0.0417
     11  CZ        40.1630    3.6730   17.4990 C.ar   65  TYR65       0.1957
     12  OH        41.1440    4.4920   18.0140 O.3    65  TYR65      -0.2866
     13  N         35.8720    4.2100   20.7850 N.3    67  GLY67      -0.1210
     14  CA        36.4600    3.8300   22.0610 C.3    67  GLY67       0.1956
     15  C         35.7910    4.5440   23.2140 C.2    67  GLY67       0.2612
     16  O         35.4760    5.7320   23.1220 O.2    67  GLY67      -0.2717
     17  N         35.5770    3.8130   24.3050 N.am   68  VAL68      -0.1965
     18  CA        35.0400    4.3700   25.5390 C.3    68  VAL68       0.1727
     19  C         36.0030    4.0410   26.6670 C.2    68  VAL68       0.2616
     20  O         36.4170    2.8860   26.8210 O.2    68  VAL68      -0.2715
     21  CB        33.6370    3.8260   25.8520 C.3    68  VAL68       0.0290
     22  CG1       33.1270    4.4090   27.1600 C.3    68  VAL68       0.0023
     23  CG2       32.6900    4.1620   24.7260 C.3    68  VAL68       0.0023
     24  N         36.3530    5.0530   27.4540 N.am   69  ASP69      -0.1971
     25  CA        37.1780    4.8390   28.6300 C.3    69  ASP69       0.1709
     26  C         36.2870    4.4750   29.8100 C.2    69  ASP69       0.2293
     27  O         35.4180    5.2740   30.1820 O.2    69  ASP69      -0.2864
     28  CB        37.9920    6.0790   28.9500 C.3    69  ASP69       0.1436
     29  CG        39.4400    5.9590   28.5020 C.2    69  ASP69       0.3671
     30  OD1       39.7440    5.0710   27.6750 O.co2  69  ASP69      -0.2456
     31  OD2       40.2740    6.7580   28.9810 O.co2  69  ASP69      -0.2456
     32  N         27.1920    8.3170   25.2190 N.3    79  HIS79      -0.1241
     33  CA        28.0880    7.5030   24.4060 C.3    79  HIS79       0.1621
     34  C         27.4320    6.9570   23.1440 C.2    79  HIS79       0.2264
     35  O         28.1370    6.3860   22.3050 O.2    79  HIS79      -0.2867
     36  CB        28.6130    6.3120   25.2130 C.3    79  HIS79       0.0745
     37  CG        29.3640    6.6900   26.4520 C.ar   79  HIS79       0.0817
     38  ND1       30.6240    7.2470   26.4200 N.ar   79  HIS79      -0.2268
     39  CD2       29.0430    6.5620   27.7600 C.ar   79  HIS79       0.1154
     40  CE1       31.0410    7.4600   27.6550 C.ar   79  HIS79       0.1986
     41  NE2       30.1000    7.0520   28.4870 N.ar   79  HIS79      -0.2212
     42  N         35.5340   -0.5990   21.1770 N.3    97  LEU97      -0.1245
     43  CA        36.7770   -0.6930   21.9330 C.3    97  LEU97       0.1561
     44  C         36.5880   -0.1290   23.3340 C.2    97  LEU97       0.2260
     45  O         36.0920    0.9910   23.4990 O.2    97  LEU97      -0.2867
     46  CB        37.9130    0.0480   21.2220 C.3    97  LEU97       0.0270
     47  CG        39.2550    0.0660   21.9600 C.3    97  LEU97       0.0019
     48  CD1       39.7220   -1.3480   22.2720 C.3    97  LEU97       0.0001
     49  CD2       40.3040    0.7980   21.1440 C.3    97  LEU97       0.0001
     50  N         38.5770    1.1160   26.7030 N.3    99  GLY99      -0.1225
     51  CA        39.8860    1.6490   27.0290 C.3    99  GLY99       0.1811
     52  C         40.4300    1.1300   28.3430 C.2    99  GLY99       0.2280
     53  O         40.5700    1.8870   29.3080 O.2    99  GLY99      -0.2866
     54  N         44.0260    2.9220   28.6990 N.3   102  THR102     -0.1218
     55  CA        43.9110    4.3730   28.6130 C.3   102  THR102      0.1862
     56  C         43.1440    4.9480   29.7980 C.2   102  THR102      0.2287
     57  O         43.4220    6.0730   30.2300 O.2   102  THR102     -0.2866
     58  CB        43.2300    4.7560   27.2990 C.3   102  THR102      0.1770
     59  OG1       42.0710    3.9360   27.1000 O.3   102  THR102     -0.2211
     60  CG2       44.1840    4.5710   26.1310 C.3   102  THR102      0.0375
     61  N         41.6800   10.4480   29.8710 N.3   107  ASP107     -0.1239
     62  CA        41.8530   11.3300   28.7250 C.3   107  ASP107      0.1674
     63  C         41.9130   12.7770   29.2000 C.2   107  ASP107      0.2266
     64  O         40.9380   13.2630   29.7880 O.2   107  ASP107     -0.2867
     65  CB        40.7070   11.1450   27.7390 C.3   107  ASP107      0.1410
     66  CG        40.9780   11.8060   26.4050 C.2   107  ASP107      0.3668
     67  OD1       41.9870   12.5360   26.3000 O.co2 107  ASP107     -0.2456
     68  OD2       40.1810   11.6070   25.4640 O.co2 107  ASP107     -0.2456
     69  N         41.6760   -2.5040   24.7050 N.3   156  ASN156     -0.1240
     70  CA        42.9850   -2.1470   24.1730 C.3   156  ASN156      0.1653
     71  C         44.1230   -2.7390   24.9900 C.2   156  ASN156      0.2266
     72  O         45.2110   -2.9580   24.4430 O.2   156  ASN156     -0.2867
     73  CB        43.1350   -0.6250   24.0690 C.3   156  ASN156      0.1155
     74  CG        42.9860    0.0750   25.3970 C.2   156  ASN156      0.2627
     75  OD1       42.9630   -0.5560   26.4540 O.2   156  ASN156     -0.2716
     76  ND2       42.8870    1.3990   25.3510 N.am  156  ASN156     -0.0877
     77  N         48.8650   10.3900   26.5310 N.3   201  TYR201     -0.1241
     78  CA        47.5760    9.7590   26.2550 C.3   201  TYR201      0.1605
     79  C         47.2360    9.7580   24.7710 C.2   201  TYR201      0.2264
     80  O         46.9430    8.6770   24.2240 O.2   201  TYR201     -0.2867
     81  CB        46.4830   10.4530   27.0720 C.3   201  TYR201      0.0534
     82  CG        45.1290    9.7970   26.9440 C.ar  201  TYR201     -0.0201
     83  CD1       44.6840    8.8890   27.8940 C.ar  201  TYR201     -0.0009
     84  CD2       44.2980   10.0800   25.8670 C.ar  201  TYR201     -0.0009
     85  CE1       43.4470    8.2860   27.7780 C.ar  201  TYR201      0.0417
     86  CE2       43.0640    9.4800   25.7400 C.ar  201  TYR201      0.0417
     87  CZ        42.6400    8.5850   26.6970 C.ar  201  TYR201      0.1957
     88  OH        41.4060    7.9890   26.5690 O.3   201  TYR201     -0.2866
     89  N         46.3230    6.4760   22.3310 N.3   204  GLN204     -0.1245
     90  CA        45.1050    6.3550   21.5360 C.3   204  GLN204      0.1566
     91  C         45.4260    6.2660   20.0470 C.2   204  GLN204      0.2260
     92  O         44.8270    5.4600   19.3190 O.2   204  GLN204     -0.2867
     93  CB        44.1770    7.5320   21.8280 C.3   204  GLN204      0.0367
     94  CG        42.9470    7.5750   20.9470 C.3   204  GLN204      0.0905
     95  CD        41.8520    8.4480   21.5210 C.2   204  GLN204      0.2608
     96  OE1       41.9070    8.8530   22.6840 O.2   204  GLN204     -0.2717
     97  NE2       40.8470    8.7460   20.7070 N.am  204  GLN204     -0.0878
     98  N         46.4090    2.7530   19.4270 N.3   207  ASP207     -0.1239
     99  CA        45.2200    1.9290   19.2440 C.3   207  ASP207      0.1674
    100  C         44.7230    2.0440   17.8100 C.2   207  ASP207      0.2266
    101  O         44.4520    1.0340   17.1440 O.2   207  ASP207     -0.2867
    102  CB        44.1210    2.3470   20.2250 C.3   207  ASP207      0.1410
    103  CG        44.4650    2.0350   21.6650 C.2   207  ASP207      0.3668
    104  OD1       45.4400    1.2930   21.9060 O.co2 207  ASP207     -0.2456
    105  OD2       43.7420    2.5260   22.5570 O.co2 207  ASP207     -0.2456
    106  N         37.9330    6.1630   12.4210 N.3   219  GLN219     -0.1245
    107  CA        37.6810    6.2700   13.8540 C.3   219  GLN219      0.1566
    108  C         36.5160    7.2200   14.0880 C.2   219  GLN219      0.2260
    109  O         36.4920    8.3290   13.5430 O.2   219  GLN219     -0.2867
    110  CB        38.9130    6.7560   14.6230 C.3   219  GLN219      0.0367
    111  CG        38.7260    6.6750   16.1460 C.3   219  GLN219      0.0905
    112  CD        39.9150    7.1700   16.9640 C.2   219  GLN219      0.2608
    113  OE1       39.8030    7.3490   18.1760 O.2   219  GLN219     -0.2717
    114  NE2       41.0540    7.3830   16.3140 N.am  219  GLN219     -0.0878
    115  N         34.0910   16.2050   21.1070 N.3   224  ASP224     -0.1225
    116  CA        35.2550   16.4970   21.9370 C.3   224  ASP224      0.1805
    117  C         36.4870   15.7210   21.4910 C.2   224  ASP224      0.2597
    118  O         37.6170   16.1680   21.7140 O.2   224  ASP224     -0.2718
    119  CB        34.9360   16.1740   23.3960 C.3   224  ASP224      0.1424
    120  CG        34.6440   14.6970   23.6130 C.2   224  ASP224      0.3668
    121  OD1       33.5720   14.2300   23.1700 O.co2 224  ASP224     -0.2456
    122  OD2       35.4850   14.0020   24.2250 O.co2 224  ASP224     -0.2456
    123  N         36.2960   14.5630   20.8650 N.am  225  GLN225     -0.1979
    124  CA        37.4120   13.7070   20.4930 C.3   225  GLN225      0.1601
    125  C         38.0650   14.1120   19.1800 C.2   225  GLN225      0.2287
    126  O         39.0340   13.4620   18.7700 O.2   225  GLN225     -0.2864
    127  CB        36.9410   12.2550   20.4120 C.3   225  GLN225      0.0394
    128  CG        36.6240   11.6510   21.7690 C.3   225  GLN225      0.0908
    129  CD        37.8670   11.4280   22.6120 C.2   225  GLN225      0.2608
    130  OE1       38.7520   10.6570   22.2380 O.2   225  GLN225     -0.2717
    131  NE2       37.9440   12.1090   23.7530 N.am  225  GLN225     -0.0878
@<TRIPOS>BOND
     1   106   107    1
     2   109   108    2
     3   107   108    1
     4   107   110    1
     5     1     2    1
     6   110   111    1
     7     2     5    1
     8     2     3    1
     9     8    10   ar
    10     8     6   ar
    11     5     6    1
    12     4     3    2
    13    10    11   ar
    14   111   112    1
    15   114   112   am
    16     6     7   ar
    17   112   113    2
    18   101   100    2
    19    11    12    1
    20    11     9   ar
    21   100    99    1
    22     7     9   ar
    23   126   125    2
    24   125   124    1
    25    99    98    1
    26    99   102    1
    27    92    91    2
    28    91    90    1
    29   102   103    1
    30   127   124    1
    31   127   128    1
    32   124   123    1
    33    97    95   am
    34    13    14    1
    35   123   117   am
    36    94    95    1
    37    94    93    1
    38   115   116    1
    39    49    47    1
    40    42    43    1
    41    46    43    1
    42    46    47    1
    43   117   118    2
    44   117   116    1
    45    95    96    2
    46    90    93    1
    47    90    89    1
    48   103   104   ar
    49   103   105   ar
    50   128   129    1
    51    43    44    1
    52   116   119    1
    53    47    48    1
    54    14    15    1
    55   130   129    2
    56    35    34    2
    57   129   131   am
    58    16    15    2
    59    34    33    1
    60   121   120   ar
    61    15    17   am
    62    44    45    2
    63   119   120    1
    64   120   122   ar
    65    73    70    1
    66    73    74    1
    67    70    69    1
    68    70    71    1
    69    80    79    2
    70    17    18    1
    71    33    36    1
    72    33    32    1
    73    72    71    2
    74    23    21    1
    75    79    78    1
    76    36    37    1
    77    76    74   am
    78    74    75    2
    79    68    66   ar
    80    18    21    1
    81    18    19    1
    82    86    84   ar
    83    86    87   ar
    84    21    22    1
    85    84    82   ar
    86    60    58    1
    87    78    77    1
    88    78    81    1
    89    67    66   ar
    90    66    65    1
    91    38    37   ar
    92    38    40   ar
    93    37    39   ar
    94    88    87    1
    95    19    20    2
    96    19    24   am
    97    87    85   ar
    98    50    51    1
    99    82    81    1
   100    82    83   ar
   101    51    52    1
   102    59    58    1
   103    58    55    1
   104    24    25    1
   105    40    41   ar
   106    30    29   ar
   107    65    62    1
   108    39    41   ar
   109    85    83   ar
   110    52    53    2
   111    29    28    1
   112    29    31   ar
   113    55    54    1
   114    55    56    1
   115    25    28    1
   116    25    26    1
   117    62    63    1
   118    62    61    1
   119    63    64    2
   120    56    57    2
   121    26    27    2
