@<TRIPOS>MOLECULE
tmp/5ijzB01.pdb
 105 95 0 0 0
SMALL
GASTEIGER

@<TRIPOS>ATOM
      1  N         64.8680   14.8450  -24.0760 N.3    92  LYS92      -0.1231
      2  CA        65.1240   16.0790  -23.3910 C.3    92  LYS92       0.1693
      3  C         66.5500   16.0900  -22.9360 C.2    92  LYS92       0.2593
      4  O         66.9620   15.1390  -22.3060 O.2    92  LYS92      -0.2718
      5  CB        64.2470   16.2100  -22.1570 C.3    92  LYS92       0.0285
      6  CG        64.3910   17.5370  -21.4260 C.3    92  LYS92       0.0035
      7  CD        63.5100   18.5370  -22.1020 C.3    92  LYS92       0.0206
      8  CE        63.8210   19.9930  -21.7470 C.3    92  LYS92       0.1093
      9  NZ        65.1520   20.4820  -22.2250 N.3    92  LYS92      -0.1314
     10  N         67.2630   17.1830  -23.2050 N.am   93  GLY93      -0.1942
     11  CA        68.6130   17.3740  -22.7510 C.3    93  GLY93       0.2014
     12  C         69.2840   18.4170  -23.6280 C.2    93  GLY93       0.2639
     13  O         68.9000   18.5890  -24.8050 O.2    93  GLY93      -0.2714
     14  N         70.2480   19.1210  -23.0480 N.am   94  GLY94      -0.1954
     15  CA        70.8940   20.2510  -23.6820 C.3    94  GLY94       0.1869
     16  C         71.8910   19.9950  -24.8070 C.2    94  GLY94       0.2309
     17  O         72.0470   18.8760  -25.2970 O.2    94  GLY94      -0.2863
     18  N         71.2590   11.2110  -19.0010 N.3   113  GLN113     -0.1245
     19  CA        70.0880   12.0010  -19.0580 C.3   113  GLN113      0.1566
     20  C         68.8260   11.1460  -18.9110 C.2   113  GLN113      0.2260
     21  O         67.8470   11.6040  -18.3360 O.2   113  GLN113     -0.2867
     22  CB        70.0550   12.8340  -20.3460 C.3   113  GLN113      0.0367
     23  CG        69.1290   14.0230  -20.2410 C.3   113  GLN113      0.0905
     24  CD        69.7300   15.2220  -19.5090 C.2   113  GLN113      0.2608
     25  OE1       70.8910   15.5610  -19.6860 O.2   113  GLN113     -0.2717
     26  NE2       68.9100   15.8870  -18.6970 N.am  113  GLN113     -0.0878
     27  N         68.4280   10.6120  -15.0780 N.3   116  LYS116     -0.1245
     28  CA        68.2160   11.8710  -14.3660 C.3   116  LYS116      0.1561
     29  C         66.7630   12.3720  -14.5710 C.2   116  LYS116      0.2260
     30  O         66.0380   12.6950  -13.6130 O.2   116  LYS116     -0.2867
     31  CB        69.2090   12.9260  -14.9020 C.3   116  LYS116      0.0271
     32  CG        69.0220   14.3320  -14.3240 C.3   116  LYS116      0.0035
     33  CD        69.8160   15.3510  -15.1170 C.3   116  LYS116      0.0206
     34  CE        71.2370   14.8710  -15.3190 C.3   116  LYS116      0.1093
     35  NZ        71.9600   16.0550  -15.8010 N.3   116  LYS116     -0.1314
     36  N         70.6510   14.3900  -25.8600 N.3   128  LYS128     -0.1245
     37  CA        71.6780   15.3630  -25.7290 C.3   128  LYS128      0.1561
     38  C         72.2360   15.6230  -27.1060 C.2   128  LYS128      0.2260
     39  O         72.0320   14.8410  -28.0160 O.2   128  LYS128     -0.2867
     40  CB        72.8260   14.8480  -24.8480 C.3   128  LYS128      0.0271
     41  CG        73.5900   15.9400  -24.0850 C.3   128  LYS128      0.0035
     42  CD        72.8210   16.4440  -22.8760 C.3   128  LYS128      0.0206
     43  CE        73.6310   17.5610  -22.2120 C.3   128  LYS128      0.1093
     44  NZ        73.0400   17.9210  -20.8830 N.3   128  LYS128     -0.1314
     45  N         68.1290   22.4170  -25.0290 N.3   166  ALA166     -0.1231
     46  CA        68.4830   23.3630  -23.9700 C.3   166  ALA166      0.1694
     47  C         69.9900   23.6400  -24.0420 C.2   166  ALA166      0.2593
     48  O         70.6910   23.1940  -24.9800 O.2   166  ALA166     -0.2718
     49  CB        68.1060   22.8290  -22.5990 C.3   166  ALA166      0.0304
     50  N         70.4730   24.4240  -23.0900 N.am  167  GLY167     -0.1942
     51  CA        71.8780   24.6830  -22.9260 C.3   167  GLY167      0.2014
     52  C         72.6700   23.5870  -22.2090 C.2   167  GLY167      0.2638
     53  O         72.1380   22.5730  -21.7630 O.2   167  GLY167     -0.2714
     54  N         73.9710   23.8440  -22.1570 N.am  168  ASP168     -0.1971
     55  CA        75.0450   23.0090  -21.5250 C.3   168  ASP168      0.1709
     56  C         76.3380   23.8010  -21.7690 C.2   168  ASP168      0.2293
     57  O         76.2660   24.9970  -22.0070 O.2   168  ASP168     -0.2864
     58  CB        75.0960   21.5910  -22.0840 C.3   168  ASP168      0.1436
     59  CG        75.7930   20.6180  -21.1350 C.2   168  ASP168      0.3671
     60  OD1       75.1360   20.0910  -20.1820 O.co2 168  ASP168     -0.2456
     61  OD2       77.0040   20.4120  -21.3440 O.co2 168  ASP168     -0.2456
     62  N         64.7750   29.1880  -14.1580 N.3   208  ARG208     -0.1245
     63  CA        65.5870   28.2870  -14.9850 C.3   208  ARG208      0.1563
     64  C         67.0530   28.6290  -15.0570 C.2   208  ARG208      0.2260
     65  O         67.8760   27.7070  -15.1040 O.2   208  ARG208     -0.2867
     66  CB        65.0390   28.1920  -16.4200 C.3   208  ARG208      0.0307
     67  CG        65.6580   27.0760  -17.2590 C.3   208  ARG208      0.0489
     68  CD        65.6390   25.6850  -16.6240 C.3   208  ARG208      0.2205
     69  NE        66.5920   24.7910  -17.3030 N.pl3 208  ARG208     -0.0865
     70  CZ        67.9010   24.6630  -17.0370 C.cat 208  ARG208      0.5346
     71  NH1       68.5070   25.3680  -16.1010 N.pl3 208  ARG208      0.1354
     72  NH2       68.6140   23.7940  -17.7290 N.pl3 208  ARG208      0.1354
     73  N         78.0050   17.0110  -14.9460 N.3   347  ASN347     -0.1240
     74  CA        77.7790   15.5900  -15.3200 C.3   347  ASN347      0.1653
     75  C         79.0740   14.7610  -15.2910 C.2   347  ASN347      0.2266
     76  O         80.0640   15.0810  -15.9550 O.2   347  ASN347     -0.2867
     77  CB        77.1520   15.4700  -16.7180 C.3   347  ASN347      0.1155
     78  CG        75.7040   15.9400  -16.7590 C.2   347  ASN347      0.2627
     79  OD1       75.3510   16.9230  -17.4230 O.2   347  ASN347     -0.2716
     80  ND2       74.8790   15.2350  -16.0690 N.am  347  ASN347     -0.0877
     81  N         72.2330   17.3410   -9.8090 N.3   372  ASN372     -0.1240
     82  CA        72.1070   18.3970  -10.8360 C.3   372  ASN372      0.1653
     83  C         70.7890   18.4150  -11.6420 C.2   372  ASN372      0.2266
     84  O         70.6390   19.1990  -12.5570 O.2   372  ASN372     -0.2867
     85  CB        73.3060   18.4310  -11.7660 C.3   372  ASN372      0.1155
     86  CG        73.3040   17.2840  -12.7680 C.2   372  ASN372      0.2627
     87  OD1       72.2510   16.8690  -13.2750 O.2   372  ASN372     -0.2716
     88  ND2       74.4820   16.8000  -13.0960 N.am  372  ASN372     -0.0877
     89  N         68.0240   21.5160  -12.8920 N.3   375  GLY375     -0.1210
     90  CA        68.0250   22.1100  -14.2120 C.3   375  GLY375      0.1956
     91  C         66.9520   21.5720  -15.1310 C.2   375  GLY375      0.2611
     92  O         66.0250   22.2930  -15.5000 O.2   375  GLY375     -0.2717
     93  N         67.0760   20.2970  -15.4960 N.am  376  VAL376     -0.1979
     94  CA        66.1330   19.6660  -16.4030 C.3   376  VAL376      0.1595
     95  C         64.7390   19.6050  -15.7660 C.2   376  VAL376      0.2287
     96  O         63.7700   19.7400  -16.4580 O.2   376  VAL376     -0.2864
     97  CB        66.6230   18.3090  -16.9120 C.3   376  VAL376      0.0276
     98  CG1       66.5170   17.2550  -15.7850 C.3   376  VAL376      0.0022
     99  CG2       65.8240   17.9010  -18.1230 C.3   376  VAL376      0.0022
    100  N         63.4140   23.0360  -16.5190 N.3   379  SER379     -0.1217
    101  CA        63.1060   22.9160  -17.9460 C.3   379  SER379      0.1889
    102  C         61.7750   22.2000  -18.2070 C.2   379  SER379      0.2288
    103  O         60.9790   22.6590  -18.9840 O.2   379  SER379     -0.2866
    104  CB        64.1900   22.1250  -18.6470 C.3   379  SER379      0.2089
    105  OG        65.3040   22.9150  -18.9200 O.3   379  SER379     -0.2183
@<TRIPOS>BOND
     1    39    38    2
     2    38    37    1
     3    36    37    1
     4    37    40    1
     5    17    16    2
     6    45    46    1
     7    48    47    2
     8    40    41    1
     9    16    15    1
    10    13    12    2
    11    41    42    1
    12     1     2    1
    13    47    46    1
    14    47    50   am
    15    46    49    1
    16    15    14    1
    17    12    14   am
    18    12    11    1
    19     2     3    1
    20     2     5    1
    21    10     3   am
    22    10    11    1
    23    50    51    1
    24     3     4    2
    25    51    52    1
    26    42    43    1
    27     9     8    1
    28    43    44    1
    29    52    54   am
    30    52    53    2
    31     5     6    1
    32    54    55    1
    33     7     8    1
    34     7     6    1
    35    58    55    1
    36    58    59    1
    37    57    56    2
    38    56    55    1
    39    61    59   ar
    40    59    60   ar
    41    22    23    1
    42    22    19    1
    43    23    24    1
    44    25    24    2
    45    24    26   am
    46    19    18    1
    47    19    20    1
    48   103   102    2
    49   105   104    1
    50    20    21    2
    51   104   101    1
    52   102   101    1
    53    99    97    1
    54   101   100    1
    55    72    70    1
    56    79    78    2
    57    69    70    2
    58    69    68    1
    59    67    68    1
    60    67    66    1
    61    70    71    1
    62    97    94    1
    63    97    98    1
    64    78    77    1
    65    78    80   am
    66    77    74    1
    67    96    95    2
    68    66    63    1
    69    94    95    1
    70    94    93    1
    71    76    75    2
    72    35    34    1
    73    92    91    2
    74    93    91   am
    75    74    75    1
    76    74    73    1
    77    34    33    1
    78    91    90    1
    79    33    32    1
    80    65    64    2
    81    27    28    1
    82    64    63    1
    83    63    62    1
    84    31    28    1
    85    31    32    1
    86    29    28    1
    87    29    30    2
    88    90    89    1
    89    87    86    2
    90    88    86   am
    91    86    85    1
    92    84    83    2
    93    85    82    1
    94    83    82    1
    95    82    81    1
