@<TRIPOS>MOLECULE
tmp/5ik0A00.pdb
 216 204 0 0 0
SMALL
GASTEIGER

@<TRIPOS>ATOM
      1  N         12.4790   77.8000   10.6880 N.3   252  ARG252     -0.1245
      2  CA        12.9260   76.4520   10.3300 C.3   252  ARG252      0.1563
      3  C         12.5550   75.4170   11.3910 C.2   252  ARG252      0.2260
      4  O         12.7180   75.6660   12.5870 O.2   252  ARG252     -0.2867
      5  CB        14.4390   76.3910   10.1370 C.3   252  ARG252      0.0307
      6  CG        15.1100   77.6170    9.6140 C.3   252  ARG252      0.0489
      7  CD        16.3020   77.9210   10.4990 C.3   252  ARG252      0.2205
      8  NE        17.4530   78.4260    9.7590 N.pl3 252  ARG252     -0.0865
      9  CZ        18.3600   79.2490   10.2750 C.cat 252  ARG252      0.5346
     10  NH1       18.2320   79.6730   11.5280 N.pl3 252  ARG252      0.1354
     11  NH2       19.3850   79.6590    9.5370 N.pl3 252  ARG252      0.1354
     12  N         23.8300   68.8480   17.4340 N.3   261  TRP261     -0.1241
     13  CA        24.7170   69.8480   18.0160 C.3   261  TRP261      0.1605
     14  C         24.9950   69.5800   19.4960 C.2   261  TRP261      0.2264
     15  O         26.1440   69.5400   19.9120 O.2   261  TRP261     -0.2867
     16  CB        24.1180   71.2400   17.8480 C.3   261  TRP261      0.0550
     17  CG        24.4660   71.8800   16.5560 C.ar  261  TRP261      0.0003
     18  CD1       23.9710   71.5720   15.3220 C.ar  261  TRP261      0.0946
     19  CD2       25.3840   72.9570   16.3650 C.ar  261  TRP261      0.0152
     20  NE1       24.5320   72.3890   14.3690 N.ar  261  TRP261     -0.2442
     21  CE2       25.4020   73.2510   14.9850 C.ar  261  TRP261      0.0810
     22  CE3       26.1970   73.7000   17.2250 C.ar  261  TRP261      0.0012
     23  CZ2       26.2070   74.2570   14.4480 C.ar  261  TRP261      0.0191
     24  CZ3       26.9860   74.6950   16.6930 C.ar  261  TRP261      0.0001
     25  CH2       26.9940   74.9620   15.3170 C.ar  261  TRP261      0.0015
     26  N         19.0960   75.8000   22.1700 N.3   282  ILE282     -0.1245
     27  CA        19.5030   75.9640   20.7680 C.3   282  ILE282      0.1561
     28  C         18.3060   76.1610   19.8410 C.2   282  ILE282      0.2260
     29  O         18.2900   77.0620   18.9990 O.2   282  ILE282     -0.2867
     30  CB        20.3120   74.7590   20.2520 C.3   282  ILE282      0.0252
     31  CG1       21.6370   74.6370   21.0070 C.3   282  ILE282      0.0019
     32  CG2       20.5980   74.9290   18.7750 C.3   282  ILE282      0.0019
     33  CD1       22.5660   73.5580   20.4690 C.3   282  ILE282      0.0001
     34  N         16.5730   79.6590   20.4990 N.3   285  ILE285     -0.1231
     35  CA        17.3090   80.8330   20.0160 C.3   285  ILE285      0.1692
     36  C         17.2950   80.8650   18.4830 C.2   285  ILE285      0.2592
     37  O         17.4100   81.9270   17.8710 O.2   285  ILE285     -0.2718
     38  CB        18.7870   80.8990   20.5520 C.3   285  ILE285      0.0266
     39  CG1       19.3730   82.3050   20.3600 C.3   285  ILE285      0.0019
     40  CG2       19.6910   79.9020   19.8580 C.3   285  ILE285      0.0020
     41  CD1       18.6620   83.4190   21.1150 C.3   285  ILE285      0.0001
     42  N         17.1150   79.7080   17.8650 N.am  286  SER286     -0.1952
     43  CA        17.0250   79.6380   16.4140 C.3   286  SER286      0.1924
     44  C         15.7380   80.2630   15.8660 C.2   286  SER286      0.2314
     45  O         15.7420   80.8060   14.7620 O.2   286  SER286     -0.2863
     46  CB        17.1250   78.1880   15.9460 C.3   286  SER286      0.2116
     47  OG        17.0440   78.1320   14.5330 O.3   286  SER286     -0.2180
     48  N         16.0740   84.0450   16.0640 N.3   289  ASP289     -0.1239
     49  CA        16.9200   84.4940   14.9670 C.3   289  ASP289      0.1674
     50  C         16.1100   84.6490   13.6880 C.2   289  ASP289      0.2266
     51  O         16.2950   85.6090   12.9410 O.2   289  ASP289     -0.2867
     52  CB        18.0780   83.5190   14.7430 C.3   289  ASP289      0.1410
     53  CG        18.9030   83.8640   13.5150 C.2   289  ASP289      0.3668
     54  OD1       19.6980   84.8340   13.5810 O.co2 289  ASP289     -0.2456
     55  OD2       18.7510   83.1580   12.4890 O.co2 289  ASP289     -0.2456
     56  N         15.3850   87.8850   11.4370 N.3   293  ASP293     -0.1239
     57  CA        15.9140   87.7080   10.0890 C.3   293  ASP293      0.1674
     58  C         14.8640   87.5800    8.9810 C.2   293  ASP293      0.2266
     59  O         15.1170   87.9910    7.8510 O.2   293  ASP293     -0.2867
     60  CB        16.8200   86.4770   10.0460 C.3   293  ASP293      0.1410
     61  CG        18.0270   86.6690    9.1440 C.2   293  ASP293      0.3668
     62  OD1       18.0220   87.6310    8.3450 O.co2 293  ASP293     -0.2456
     63  OD2       18.9780   85.8570    9.2340 O.co2 293  ASP293     -0.2456
     64  N         21.3550   91.1510   17.7520 N.3   364  TYR364     -0.1241
     65  CA        20.4570   90.8520   16.6410 C.3   364  TYR364      0.1605
     66  C         19.8240   92.1660   16.1640 C.2   364  TYR364      0.2264
     67  O         19.6940   92.4240   14.9660 O.2   364  TYR364     -0.2867
     68  CB        19.3630   89.8550   17.0480 C.3   364  TYR364      0.0534
     69  CG        19.7630   88.3910   17.0240 C.ar  364  TYR364     -0.0201
     70  CD1       20.9730   87.9840   16.4660 C.ar  364  TYR364     -0.0009
     71  CD2       18.9210   87.4170   17.5490 C.ar  364  TYR364     -0.0009
     72  CE1       21.3370   86.6520   16.4370 C.ar  364  TYR364      0.0417
     73  CE2       19.2820   86.0640   17.5240 C.ar  364  TYR364      0.0417
     74  CZ        20.4900   85.6900   16.9620 C.ar  364  TYR364      0.1957
     75  OH        20.8640   84.3570   16.9300 O.3   364  TYR364     -0.2866
     76  N         22.3140   94.4510   14.2550 N.3   367  GLU367     -0.1245
     77  CA        22.5370   93.8640   12.9350 C.3   367  GLU367      0.1567
     78  C         21.4080   94.1960   11.9600 C.2   367  GLU367      0.2260
     79  O         21.6460   94.4190   10.7680 O.2   367  GLU367     -0.2867
     80  CB        22.6870   92.3460   13.0870 C.3   367  GLU367      0.0388
     81  CG        22.6980   91.5420   11.8050 C.3   367  GLU367      0.1160
     82  CD        22.7340   90.0320   12.0800 C.2   367  GLU367      0.3649
     83  OE1       23.5830   89.5810   12.8910 O.co2 367  GLU367     -0.2457
     84  OE2       21.9020   89.3020   11.4920 O.co2 367  GLU367     -0.2457
     85  N         26.3910   87.4140   18.0950 N.3   389  THR389     -0.1203
     86  CA        25.3080   86.8400   17.2840 C.3   389  THR389      0.1994
     87  C         25.6000   85.4130   16.7610 C.2   389  THR389      0.2619
     88  O         24.7130   84.7660   16.1990 O.2   389  THR389     -0.2717
     89  CB        24.9670   87.7280   16.0690 C.3   389  THR389      0.1784
     90  OG1       26.0610   87.7080   15.1510 O.3   389  THR389     -0.2211
     91  CG2       24.6810   89.1630   16.4890 C.3   389  THR389      0.0376
     92  N         26.8260   84.9130   16.9310 N.am  390  THR390     -0.1938
     93  CA        27.1020   83.4830   16.6750 C.3   390  THR390      0.2028
     94  C         26.3280   82.6250   17.6670 C.2   390  THR390      0.2643
     95  O         26.1150   81.4350   17.4440 O.2   390  THR390     -0.2714
     96  CB        28.5990   83.1310   16.8110 C.3   390  THR390      0.1808
     97  OG1       29.0120   83.2860   18.1770 O.3   390  THR390     -0.2208
     98  CG2       29.4510   84.0270   15.9390 C.3   390  THR390      0.0379
     99  N         25.9290   83.2710   18.7660 N.am  391  THR391     -0.1936
    100  CA        25.2980   82.6870   19.9530 C.3   391  THR391      0.2028
    101  C         26.2660   81.8460   20.7880 C.2   391  THR391      0.2642
    102  O         25.8450   81.2380   21.7670 O.2   391  THR391     -0.2714
    103  CB        24.0630   81.7970   19.6090 C.3   391  THR391      0.1808
    104  OG1       24.5150   80.5580   19.0520 O.3   391  THR391     -0.2208
    105  CG2       23.1300   82.4950   18.6300 C.3   391  THR391      0.0379
    106  N         27.5500   81.8090   20.4300 N.am  392  TYR392     -0.1973
    107  CA        28.4490   80.8430   21.0630 C.3   392  TYR392      0.1639
    108  C         28.8190   81.1950   22.5240 C.2   392  TYR392      0.2290
    109  O         29.0960   80.3020   23.3280 O.2   392  TYR392     -0.2864
    110  CB        29.7220   80.6650   20.2150 C.3   392  TYR392      0.0560
    111  CG        29.6880   79.4340   19.3400 C.ar  392  TYR392     -0.0198
    112  CD1       28.4770   78.8700   18.9530 C.ar  392  TYR392     -0.0009
    113  CD2       30.8670   78.8030   18.9370 C.ar  392  TYR392     -0.0009
    114  CE1       28.4330   77.7100   18.1620 C.ar  392  TYR392      0.0417
    115  CE2       30.8450   77.6520   18.1450 C.ar  392  TYR392      0.0417
    116  CZ        29.6250   77.1070   17.7650 C.ar  392  TYR392      0.1957
    117  OH        29.5980   75.9640   16.9850 O.3   392  TYR392     -0.2866
    118  N         25.6360   79.5920   24.1890 N.3   395  LEU395     -0.1245
    119  CA        25.5840   78.1230   24.2300 C.3   395  LEU395      0.1561
    120  C         26.6190   77.5330   25.1870 C.2   395  LEU395      0.2260
    121  O         26.3630   76.5110   25.8320 O.2   395  LEU395     -0.2867
    122  CB        25.8080   77.5090   22.8440 C.3   395  LEU395      0.0270
    123  CG        24.8710   77.9430   21.7290 C.3   395  LEU395      0.0019
    124  CD1       25.0960   77.0770   20.4870 C.3   395  LEU395      0.0001
    125  CD2       23.4330   77.8880   22.2190 C.3   395  LEU395      0.0001
    126  N         33.6670   80.1330   14.7110 N.3   428  CYS428     -0.1221
    127  CA        32.2930   80.0770   14.2450 C.3   428  CYS428      0.1808
    128  C         31.9840   81.2550   13.3150 C.2   428  CYS428      0.2601
    129  O         31.4280   81.0730   12.2290 O.2   428  CYS428     -0.2717
    130  CB        31.3290   80.0740   15.4240 C.3   428  CYS428      0.0970
    131  SG        29.6050   79.8160   14.9120 S.3   428  CYS428     -0.0800
    132  N         32.3590   82.4590   13.7380 N.am  429  ARG429     -0.1979
    133  CA        32.0310   83.6760   12.9900 C.3   429  ARG429      0.1597
    134  C         32.6440   83.6660   11.5860 C.2   429  ARG429      0.2287
    135  O         31.9120   83.7880   10.6040 O.2   429  ARG429     -0.2864
    136  CB        32.4840   84.9250   13.7570 C.3   429  ARG429      0.0334
    137  CG        32.1730   86.2590   13.0830 C.3   429  ARG429      0.0492
    138  CD        30.7170   86.6570   13.2120 C.3   429  ARG429      0.2205
    139  NE        29.9030   85.9690   12.2240 N.pl3 429  ARG429     -0.0865
    140  CZ        28.5980   85.7370   12.3350 C.cat 429  ARG429      0.5346
    141  NH1       27.9190   86.1530   13.3950 N.pl3 429  ARG429      0.1354
    142  NH2       27.9660   85.0790   11.3740 N.pl3 429  ARG429      0.1354
    143  N         31.4460   80.7660    9.1860 N.3   432  ASP432     -0.1239
    144  CA        30.0740   80.9950    8.7620 C.3   432  ASP432      0.1674
    145  C         30.0010   82.1310    7.7390 C.2   432  ASP432      0.2266
    146  O         29.2130   82.0640    6.8020 O.2   432  ASP432     -0.2867
    147  CB        29.1860   81.2870    9.9690 C.3   432  ASP432      0.1410
    148  CG        27.7860   81.7380    9.5700 C.2   432  ASP432      0.3668
    149  OD1       26.8920   80.8810    9.3450 O.co2 432  ASP432     -0.2456
    150  OD2       27.5810   82.9650    9.4820 O.co2 432  ASP432     -0.2456
    151  N         28.6440   81.4990    3.8450 N.3   436  THR436     -0.1218
    152  CA        27.3370   82.0570    3.5250 C.3   436  THR436      0.1862
    153  C         27.4120   83.4600    2.9200 C.2   436  THR436      0.2287
    154  O         26.4120   84.1700    2.9000 O.2   436  THR436     -0.2866
    155  CB        26.4300   82.1160    4.7830 C.3   436  THR436      0.1770
    156  OG1       26.9520   83.0770    5.7070 O.3   436  THR436     -0.2211
    157  CG2       26.3470   80.7560    5.4740 C.3   436  THR436      0.0375
    158  N         23.9270   85.6010    1.1320 N.3   440  GLU440     -0.1245
    159  CA        23.3970   86.8470    1.6730 C.3   440  GLU440      0.1567
    160  C         23.5930   88.0460    0.7360 C.2   440  GLU440      0.2260
    161  O         22.7100   88.9000    0.6340 O.2   440  GLU440     -0.2867
    162  CB        24.0480   87.1460    3.0220 C.3   440  GLU440      0.0388
    163  CG        23.9970   86.0010    4.0160 C.3   440  GLU440      0.1160
    164  CD        24.9030   86.2380    5.2170 C.2   440  GLU440      0.3649
    165  OE1       25.4250   87.3670    5.3640 O.co2 440  GLU440     -0.2457
    166  OE2       25.0980   85.2960    6.0160 O.co2 440  GLU440     -0.2457
    167  N         20.8250   88.7090   -1.6090 N.3   443  ARG443     -0.1245
    168  CA        19.6080   89.3270   -1.0880 C.3   443  ARG443      0.1563
    169  C         19.8880   90.5530   -0.1990 C.2   443  ARG443      0.2260
    170  O         19.1800   90.8000    0.7800 O.2   443  ARG443     -0.2867
    171  CB        18.7590   88.2890   -0.3360 C.3   443  ARG443      0.0307
    172  CG        19.4490   87.5530    0.8030 C.3   443  ARG443      0.0489
    173  CD        18.5830   86.3870    1.2940 C.3   443  ARG443      0.2205
    174  NE        18.4530   86.3540    2.7540 N.pl3 443  ARG443     -0.0865
    175  CZ        19.1440   85.5520    3.5660 C.cat 443  ARG443      0.5346
    176  NH1       20.0280   84.6910    3.0740 N.pl3 443  ARG443      0.1354
    177  NH2       18.9480   85.6060    4.8780 N.pl3 443  ARG443      0.1354
    178  N         30.2330   73.0310    8.3530 N.3   508  TYR508     -0.1241
    179  CA        30.4970   73.9110    7.2270 C.3   508  TYR508      0.1605
    180  C         31.6050   73.3770    6.3310 C.2   508  TYR508      0.2264
    181  O         32.1840   74.1240    5.5460 O.2   508  TYR508     -0.2867
    182  CB        30.8500   75.3090    7.7360 C.3   508  TYR508      0.0534
    183  CG        29.6590   76.0520    8.3050 C.ar  508  TYR508     -0.0201
    184  CD1       28.8310   76.7960    7.4820 C.ar  508  TYR508     -0.0009
    185  CD2       29.3590   76.0030    9.6610 C.ar  508  TYR508     -0.0009
    186  CE1       27.7440   77.4760    7.9900 C.ar  508  TYR508      0.0417
    187  CE2       28.2650   76.6780   10.1790 C.ar  508  TYR508      0.0417
    188  CZ        27.4620   77.4150    9.3370 C.ar  508  TYR508      0.1957
    189  OH        26.3690   78.0950    9.8260 O.3   508  TYR508     -0.2866
    190  N         26.4110   75.9330    3.8630 N.3   513  ASP513     -0.1239
    191  CA        25.7240   75.8470    5.1530 C.3   513  ASP513      0.1674
    192  C         25.0580   74.4830    5.3320 C.2   513  ASP513      0.2266
    193  O         24.2110   74.0800    4.5300 O.2   513  ASP513     -0.2867
    194  CB        24.6860   76.9760    5.2910 C.3   513  ASP513      0.1410
    195  CG        24.1870   77.1600    6.7350 C.2   513  ASP513      0.3668
    196  OD1       24.4910   76.3130    7.6070 O.co2 513  ASP513     -0.2456
    197  OD2       23.4740   78.1570    6.9950 O.co2 513  ASP513     -0.2456
    198  N         23.6400   73.5580    8.3510 N.3   515  TYR515     -0.1227
    199  CA        22.5430   73.6660    9.3080 C.3   515  TYR515      0.1736
    200  C         21.2440   74.0960    8.6140 C.2   515  TYR515      0.2596
    201  O         20.1790   73.5100    8.8490 O.2   515  TYR515     -0.2718
    202  CB        22.8830   74.6430   10.4390 C.3   515  TYR515      0.0548
    203  CG        21.7380   74.8170   11.4180 C.ar  515  TYR515     -0.0200
    204  CD1       21.4510   73.8360   12.3670 C.ar  515  TYR515     -0.0009
    205  CD2       20.9280   75.9510   11.3760 C.ar  515  TYR515     -0.0009
    206  CE1       20.3970   73.9870   13.2520 C.ar  515  TYR515      0.0417
    207  CE2       19.8720   76.1090   12.2530 C.ar  515  TYR515      0.0417
    208  CZ        19.6110   75.1290   13.1900 C.ar  515  TYR515      0.1957
    209  OH        18.5590   75.2960   14.0620 O.3   515  TYR515     -0.2866
    210  N         21.3350   75.1220    7.7680 N.am  516  THR516     -0.1953
    211  CA        20.1930   75.5590    6.9660 C.3   516  THR516      0.1897
    212  C         19.8490   74.4860    5.9240 C.2   516  THR516      0.2313
    213  O         18.6760   74.1540    5.7170 O.2   516  THR516     -0.2863
    214  CB        20.4700   76.9090    6.2690 C.3   516  THR516      0.1794
    215  OG1       20.6980   77.9200    7.2590 O.3   516  THR516     -0.2208
    216  CG2       19.2910   77.3150    5.4030 C.3   516  THR516      0.0378
@<TRIPOS>BOND
     1   167   168    1
     2   168   171    1
     3   168   169    1
     4   171   172    1
     5   169   170    2
     6   161   160    2
     7   160   159    1
     8   172   173    1
     9   158   159    1
    10   173   174    1
    11   159   162    1
    12   174   175    2
    13   154   153    2
    14   153   152    1
    15   162   163    1
    16   176   175    1
    17   152   151    1
    18   152   155    1
    19   175   177    1
    20   190   191    1
    21   163   164    1
    22   193   192    2
    23   155   157    1
    24   155   156    1
    25   191   194    1
    26   191   192    1
    27   164   165   ar
    28   164   166   ar
    29   194   195    1
    30   216   214    1
    31   181   180    2
    32   213   212    2
    33   212   211    1
    34   214   211    1
    35   214   215    1
    36   180   179    1
    37   195   197   ar
    38   195   196   ar
    39   146   145    2
    40   211   210    1
    41   179   182    1
    42   179   178    1
    43   184   186   ar
    44   184   183   ar
    45   182   183    1
    46   145   144    1
    47   210   200   am
    48    59    58    2
    49   186   188   ar
    50   183   185   ar
    51    62    61   ar
    52   198   199    1
    53   200   201    2
    54   200   199    1
    55   144   143    1
    56   144   147    1
    57    58    57    1
    58    61    63   ar
    59    61    60    1
    60   199   202    1
    61   188   189    1
    62   188   187   ar
    63   149   148   ar
    64   150   148   ar
    65    11     9    1
    66   148   147    1
    67     6     5    1
    68     6     7    1
    69   185   187   ar
    70     8     9    2
    71     8     7    1
    72    60    57    1
    73    57    56    1
    74     5     2    1
    75     9    10    1
    76     2     1    1
    77     2     3    1
    78   202   203    1
    79   135   134    2
    80    79    78    2
    81   142   140    1
    82   205   203   ar
    83   205   207   ar
    84     3     4    2
    85   203   204   ar
    86    84    82   ar
    87   134   133    1
    88    81    82    1
    89    81    80    1
    90    78    77    1
    91    82    83   ar
    92   139   140    2
    93   139   138    1
    94   129   128    2
    95   207   208   ar
    96   140   141    1
    97   204   206   ar
    98    55    53   ar
    99    77    80    1
   100    77    76    1
   101    51    50    2
   102   133   132    1
   103   133   136    1
   104   137   138    1
   105   137   136    1
   106   208   206   ar
   107   208   209    1
   108   128   132   am
   109   128   127    1
   110    53    54   ar
   111    53    52    1
   112    50    49    1
   113   127   126    1
   114   127   130    1
   115    20    21   ar
   116    20    18   ar
   117    23    21   ar
   118    23    25   ar
   119    47    46    1
   120    52    49    1
   121    45    44    2
   122   131   130    1
   123    67    66    2
   124    49    48    1
   125    21    19   ar
   126    90    89    1
   127    25    24   ar
   128    18    17   ar
   129    44    43    1
   130    98    96    1
   131    46    43    1
   132    89    91    1
   133    89    86    1
   134    66    65    1
   135    88    87    2
   136    19    17   ar
   137    19    22   ar
   138    43    42    1
   139    72    70   ar
   140    72    74   ar
   141    70    69   ar
   142    17    16    1
   143    65    68    1
   144    65    64    1
   145    93    96    1
   146    93    92    1
   147    93    94    1
   148    24    22   ar
   149    87    92   am
   150    87    86    1
   151    96    97    1
   152    75    74    1
   153    74    73   ar
   154   117   116    1
   155    69    68    1
   156    69    71   ar
   157    86    85    1
   158    12    13    1
   159    95    94    2
   160    73    71   ar
   161    94    99   am
   162   116   115   ar
   163   116   114   ar
   164    16    13    1
   165    42    36   am
   166    37    36    2
   167    13    14    1
   168   115   113   ar
   169   114   112   ar
   170    36    35    1
   171   105   103    1
   172    99   100    1
   173    32    30    1
   174   113   111   ar
   175   112   111   ar
   176    29    28    2
   177   104   103    1
   178   111   110    1
   179    14    15    2
   180   103   100    1
   181    28    27    1
   182    40    38    1
   183   100   101    1
   184    35    34    1
   185    35    38    1
   186   110   107    1
   187    30    27    1
   188    30    31    1
   189    39    38    1
   190    39    41    1
   191   106   101   am
   192   106   107    1
   193    33    31    1
   194   124   123    1
   195    27    26    1
   196   101   102    2
   197   107   108    1
   198   123   125    1
   199   123   122    1
   200   108   109    2
   201   122   119    1
   202   118   119    1
   203   119   120    1
   204   120   121    2
