@<TRIPOS>MOLECULE
tmp/5ik2J00.pdb
 118 115 0 0 0
SMALL
GASTEIGER

@<TRIPOS>ATOM
      1  N        -67.6680   33.9740  -51.9840 N.3   146  ARG146     -0.1231
      2  CA       -69.0860   34.1260  -52.2990 C.3   146  ARG146      0.1694
      3  C        -69.9540   33.5910  -51.1500 C.2   146  ARG146      0.2592
      4  O        -69.6930   32.5020  -50.6350 O.2   146  ARG146     -0.2718
      5  CB       -69.3900   33.3580  -53.5900 C.3   146  ARG146      0.0321
      6  CG       -70.6890   33.7280  -54.2730 C.3   146  ARG146      0.0489
      7  CD       -70.8770   32.9050  -55.5370 C.3   146  ARG146      0.2205
      8  NE       -71.1450   31.4990  -55.2310 N.pl3 146  ARG146     -0.0865
      9  CZ       -72.3240   30.9960  -54.8540 C.cat 146  ARG146      0.5346
     10  NH1      -73.4060   31.7690  -54.7250 N.pl3 146  ARG146      0.1354
     11  NH2      -72.4270   29.6940  -54.6020 N.pl3 146  ARG146      0.1354
     12  N        -70.9590   34.3720  -50.7470 N.am  147  GLN147     -0.1966
     13  CA       -71.9190   33.9930  -49.6900 C.3   147  GLN147      0.1733
     14  C        -71.2630   33.7100  -48.3280 C.2   147  GLN147      0.2617
     15  O        -71.5780   32.7140  -47.6710 O.2   147  GLN147     -0.2715
     16  CB       -72.7940   32.8060  -50.1390 C.3   147  GLN147      0.0408
     17  CG       -73.6220   33.0520  -51.3930 C.3   147  GLN147      0.0908
     18  CD       -74.8000   33.9840  -51.1530 C.2   147  GLN147      0.2608
     19  OE1      -75.6840   33.6820  -50.3480 O.2   147  GLN147     -0.2717
     20  NE2      -74.8250   35.1190  -51.8560 N.am  147  GLN147     -0.0878
     21  N        -70.3600   34.6000  -47.9170 N.am  148  THR148     -0.1937
     22  CA       -69.7050   34.5330  -46.6010 C.3   148  THR148      0.2028
     23  C        -70.1200   35.6790  -45.6580 C.2   148  THR148      0.2643
     24  O        -69.5430   35.8310  -44.5790 O.2   148  THR148     -0.2714
     25  CB       -68.1680   34.5230  -46.7450 C.3   148  THR148      0.1808
     26  OG1      -67.7410   35.6820  -47.4720 O.3   148  THR148     -0.2208
     27  CG2      -67.7050   33.2640  -47.4660 C.3   148  THR148      0.0379
     28  N        -71.1130   36.4740  -46.0590 N.am  149  GLY149     -0.1939
     29  CA       -71.6800   37.5180  -45.2010 C.3   149  GLY149      0.2014
     30  C        -71.1160   38.9190  -45.3820 C.2   149  GLY149      0.2639
     31  O        -71.2130   39.7300  -44.4650 O.2   149  GLY149     -0.2714
     32  N        -70.5520   39.2170  -46.5540 N.am  150  LYS150     -0.1963
     33  CA       -69.9170   40.5230  -46.8090 C.3   150  LYS150      0.1728
     34  C        -70.9070   41.6960  -46.8200 C.2   150  LYS150      0.2617
     35  O        -70.7310   42.6570  -46.0690 O.2   150  LYS150     -0.2715
     36  CB       -69.1260   40.5020  -48.1230 C.3   150  LYS150      0.0311
     37  CG       -67.9340   39.5530  -48.1220 C.3   150  LYS150      0.0038
     38  CD       -67.0610   39.6990  -49.3630 C.3   150  LYS150      0.0206
     39  CE       -67.7760   39.3430  -50.6640 C.3   150  LYS150      0.1093
     40  NZ       -68.2390   37.9290  -50.7280 N.3   150  LYS150     -0.1314
     41  N        -71.9350   41.6130  -47.6650 N.am  151  THR151     -0.1937
     42  CA       -72.9470   42.6790  -47.7840 C.3   151  THR151      0.2028
     43  C        -73.7020   42.9180  -46.4710 C.2   151  THR151      0.2642
     44  O        -73.9950   44.0650  -46.1350 O.2   151  THR151     -0.2714
     45  CB       -73.9600   42.3890  -48.9190 C.3   151  THR151      0.1808
     46  OG1      -73.2580   42.1980  -50.1510 O.3   151  THR151     -0.2208
     47  CG2      -74.9470   43.5430  -49.1060 C.3   151  THR151      0.0379
     48  N        -73.9980   41.8440  -45.7370 N.am  152  THR152     -0.1950
     49  CA       -74.6990   41.9400  -44.4490 C.3   152  THR152      0.1897
     50  C        -73.9440   42.7900  -43.4160 C.2   152  THR152      0.2313
     51  O        -74.5750   43.5260  -42.6590 O.2   152  THR152     -0.2863
     52  CB       -74.9930   40.5440  -43.8570 C.3   152  THR152      0.1794
     53  OG1      -75.5730   39.7090  -44.8670 O.3   152  THR152     -0.2208
     54  CG2      -75.9610   40.6360  -42.6750 C.3   152  THR152      0.0378
     55  N        -64.0760   39.8680  -53.4660 N.3   295  GLU295     -0.1245
     56  CA       -64.5850   38.5010  -53.4520 C.3   295  GLU295      0.1567
     57  C        -63.4950   37.5390  -53.9190 C.2   295  GLU295      0.2260
     58  O        -63.1620   37.4970  -55.1060 O.2   295  GLU295     -0.2867
     59  CB       -65.8290   38.3860  -54.3320 C.3   295  GLU295      0.0388
     60  CG       -66.4670   37.0050  -54.3170 C.3   295  GLU295      0.1160
     61  CD       -67.9540   37.0390  -54.6140 C.2   295  GLU295      0.3649
     62  OE1      -68.3430   36.7180  -55.7580 O.co2 295  GLU295     -0.2457
     63  OE2      -68.7300   37.3910  -53.6990 O.co2 295  GLU295     -0.2457
     64  N        -68.4790   30.0440  -41.5380 N.3   324  PHE324     -0.1241
     65  CA       -69.7770   30.5930  -41.9690 C.3   324  PHE324      0.1605
     66  C        -70.8460   29.5230  -42.2080 C.2   324  PHE324      0.2264
     67  O        -72.0170   29.7440  -41.8950 O.2   324  PHE324     -0.2867
     68  CB       -69.6170   31.4560  -43.2290 C.3   324  PHE324      0.0534
     69  CG       -70.8050   32.3340  -43.5160 C.ar  324  PHE324     -0.0203
     70  CD1      -70.9550   33.5520  -42.8630 C.ar  324  PHE324     -0.0042
     71  CD2      -71.7730   31.9450  -44.4380 C.ar  324  PHE324     -0.0042
     72  CE1      -72.0470   34.3680  -43.1220 C.ar  324  PHE324     -0.0003
     73  CE2      -72.8680   32.7550  -44.7010 C.ar  324  PHE324     -0.0003
     74  CZ       -73.0050   33.9690  -44.0430 C.ar  324  PHE324     -0.0000
     75  N        -71.6650   32.8680  -37.3750 N.3   329  ARG329     -0.1231
     76  CA       -71.9720   34.0510  -38.1870 C.3   329  ARG329      0.1679
     77  C        -72.0800   35.2820  -37.2730 C.2   329  ARG329      0.2434
     78  O        -72.8720   35.2490  -36.3290 O.2   329  ARG329     -0.2733
     79  CB       -73.2830   33.8440  -38.9460 C.3   329  ARG329      0.0321
     80  CG       -73.2620   32.6490  -39.8850 C.3   329  ARG329      0.0489
     81  CD       -74.4940   32.6030  -40.7750 C.3   329  ARG329      0.2205
     82  NE       -74.4300   31.5090  -41.7460 N.pl3 329  ARG329     -0.0865
     83  CZ       -75.3590   31.2410  -42.6670 C.cat 329  ARG329      0.5346
     84  NH1      -76.4610   31.9850  -42.7730 N.pl3 329  ARG329      0.1354
     85  NH2      -75.1840   30.2140  -43.4970 N.pl3 329  ARG329      0.1354
     86  N        -71.3220   36.3610  -37.5160 N.am  330  PRO330     -0.2729
     87  CA       -70.4010   36.5260  -38.6510 C.3   330  PRO330      0.1401
     88  C        -69.1100   35.7130  -38.5190 C.2   330  PRO330      0.2269
     89  O        -68.5740   35.5720  -37.4200 O.2   330  PRO330     -0.2865
     90  CB       -70.0900   38.0250  -38.6240 C.3   330  PRO330      0.0296
     91  CG       -70.2380   38.4110  -37.1940 C.3   330  PRO330      0.0237
     92  CD       -71.3400   37.5500  -36.6430 C.3   330  PRO330      0.0939
     93  N        -74.1080   36.3680  -33.7940 N.3   389  GLN389     -0.1231
     94  CA       -75.1020   37.4430  -33.8280 C.3   389  GLN389      0.1698
     95  C        -76.0170   37.3130  -35.0430 C.2   389  GLN389      0.2592
     96  O        -75.5520   37.0020  -36.1420 O.2   389  GLN389     -0.2718
     97  CB       -74.3910   38.8000  -33.8440 C.3   389  GLN389      0.0381
     98  CG       -75.2950   40.0010  -33.5980 C.3   389  GLN389      0.0905
     99  CD       -74.5270   41.3060  -33.4280 C.2   389  GLN389      0.2608
    100  OE1      -73.3250   41.3090  -33.1510 O.2   389  GLN389     -0.2717
    101  NE2      -75.2250   42.4270  -33.5850 N.am  389  GLN389     -0.0878
    102  N        -77.3140   37.5510  -34.8350 N.am  390  ASP390     -0.1960
    103  CA       -78.3020   37.5160  -35.9190 C.3   390  ASP390      0.1840
    104  C        -78.1170   38.6960  -36.8660 C.2   390  ASP390      0.2621
    105  O        -77.6210   39.7540  -36.4690 O.2   390  ASP390     -0.2715
    106  CB       -79.7320   37.5460  -35.3670 C.3   390  ASP390      0.1450
    107  CG       -80.1120   36.2720  -34.6390 C.2   390  ASP390      0.3671
    108  OD1      -79.2090   35.4990  -34.2480 O.co2 390  ASP390     -0.2456
    109  OD2      -81.3270   36.0470  -34.4540 O.co2 390  ASP390     -0.2456
    110  N        -78.5230   38.5010  -38.1180 N.am  391  GLU391     -0.1977
    111  CA       -78.4850   39.5680  -39.1180 C.3   391  GLU391      0.1602
    112  C        -79.5510   40.6260  -38.8360 C.2   391  GLU391      0.2287
    113  O        -80.6080   40.3240  -38.2790 O.2   391  GLU391     -0.2864
    114  CB       -78.6400   39.0080  -40.5410 C.3   391  GLU391      0.0415
    115  CG       -79.9960   38.3930  -40.8840 C.3   391  GLU391      0.1163
    116  CD       -80.1240   38.0430  -42.3560 C.2   391  GLU391      0.3649
    117  OE1      -79.0900   37.7840  -43.0090 O.co2 391  GLU391     -0.2457
    118  OE2      -81.2650   38.0260  -42.8620 O.co2 391  GLU391     -0.2457
@<TRIPOS>BOND
     1    62    61   ar
     2     7     8    1
     3     7     6    1
     4     8     9    2
     5    58    57    2
     6     9    10    1
     7     9    11    1
     8    61    60    1
     9    61    63   ar
    10    59    60    1
    11    59    56    1
    12     6     5    1
    13    57    56    1
    14     5     2    1
    15    55    56    1
    16     2     1    1
    17     2     3    1
    18    20    18   am
    19    17    18    1
    20    17    16    1
    21    18    19    2
    22     3    12   am
    23     3     4    2
    24    12    13    1
    25    40    39    1
    26    39    38    1
    27    46    45    1
    28    16    13    1
    29    13    14    1
    30    38    37    1
    31    47    45    1
    32    45    42    1
    33    14    21   am
    34    14    15    2
    35    36    37    1
    36    36    33    1
    37    21    22    1
    38    42    41    1
    39    42    43    1
    40    41    34   am
    41    26    25    1
    42    27    25    1
    43    34    33    1
    44    34    35    2
    45    33    32    1
    46    25    22    1
    47    22    23    1
    48    32    30   am
    49    43    44    2
    50    43    48   am
    51    28    23   am
    52    28    29    1
    53    48    49    1
    54    23    24    2
    55    30    29    1
    56    30    31    2
    57    53    52    1
    58    73    71   ar
    59    73    74   ar
    60    49    52    1
    61    49    50    1
    62    71    69   ar
    63    74    72   ar
    64    52    54    1
    65    69    68    1
    66    69    70   ar
    67    85    83    1
    68    50    51    2
    69    68    65    1
    70    72    70   ar
    71   117   116   ar
    72   118   116   ar
    73    84    83    1
    74    83    82    2
    75   116   115    1
    76    66    65    1
    77    66    67    2
    78    65    64    1
    79    82    81    1
    80   115   114    1
    81    81    80    1
    82   114   111    1
    83    80    79    1
    84   111   112    1
    85   111   110    1
    86    79    76    1
    87   112   113    2
    88    87    90    1
    89    87    88    1
    90    87    86    1
    91    90    91    1
    92    88    89    2
    93    76    75    1
    94    76    77    1
    95   110   104   am
    96    86    77   am
    97    86    92    1
    98    77    78    2
    99    91    92    1
   100   104   105    2
   101   104   103    1
   102    96    95    2
   103   103   106    1
   104   103   102    1
   105   106   107    1
   106    95   102   am
   107    95    94    1
   108   107   109   ar
   109   107   108   ar
   110    97    94    1
   111    97    98    1
   112    94    93    1
   113    98    99    1
   114   101    99   am
   115    99   100    2
