@<TRIPOS>MOLECULE
tmp/5ik6A00.pdb
 164 157 0 0 0
SMALL
GASTEIGER

@<TRIPOS>ATOM
      1  N         12.7450   77.4180   10.4100 N.3   252  ARG252     -0.1245
      2  CA        13.3640   76.1200   10.1540 C.3   252  ARG252      0.1563
      3  C         12.9480   75.0560   11.1730 C.2   252  ARG252      0.2260
      4  O         13.1270   75.2290   12.3770 O.2   252  ARG252     -0.2867
      5  CB        14.8850   76.2590   10.1520 C.3   252  ARG252      0.0307
      6  CG        15.4480   76.9290    8.9130 C.3   252  ARG252      0.0489
      7  CD        16.9390   77.1610    9.0580 C.3   252  ARG252      0.2205
      8  NE        17.2370   78.0650   10.1620 N.pl3 252  ARG252     -0.0865
      9  CZ        18.4500   78.5370   10.4410 C.cat 252  ARG252      0.5346
     10  NH1       19.4910   78.1820    9.6990 N.pl3 252  ARG252      0.1354
     11  NH2       18.6220   79.3650   11.4650 N.pl3 252  ARG252      0.1354
     12  N         23.6440   68.2820   17.1780 N.3   261  TRP261     -0.1241
     13  CA        24.5950   69.2560   17.6990 C.3   261  TRP261      0.1605
     14  C         24.8350   69.0740   19.1960 C.2   261  TRP261      0.2264
     15  O         25.9780   69.0900   19.6340 O.2   261  TRP261     -0.2867
     16  CB        24.1230   70.6760   17.3980 C.3   261  TRP261      0.0550
     17  CG        24.5600   71.1350   16.0470 C.ar  261  TRP261      0.0003
     18  CD1       24.3470   70.5010   14.8570 C.ar  261  TRP261      0.0946
     19  CD2       25.2910   72.3250   15.7420 C.ar  261  TRP261      0.0152
     20  NE1       24.9040   71.2210   13.8270 N.ar  261  TRP261     -0.2442
     21  CE2       25.4850   72.3500   14.3430 C.ar  261  TRP261      0.0810
     22  CE3       25.8070   73.3720   16.5140 C.ar  261  TRP261      0.0012
     23  CZ2       26.1730   73.3840   13.7020 C.ar  261  TRP261      0.0191
     24  CZ3       26.4870   74.3970   15.8740 C.ar  261  TRP261      0.0001
     25  CH2       26.6630   74.3960   14.4820 C.ar  261  TRP261      0.0015
     26  N         19.0970   75.2920   21.7600 N.3   282  ILE282     -0.1245
     27  CA        19.4960   75.4350   20.3580 C.3   282  ILE282      0.1561
     28  C         18.2620   75.5460   19.4570 C.2   282  ILE282      0.2260
     29  O         18.1830   76.3970   18.5760 O.2   282  ILE282     -0.2867
     30  CB        20.3680   74.2510   19.9000 C.3   282  ILE282      0.0252
     31  CG1       21.6590   74.1870   20.7230 C.3   282  ILE282      0.0019
     32  CG2       20.6960   74.3650   18.4230 C.3   282  ILE282      0.0019
     33  CD1       22.5880   73.0650   20.3160 C.3   282  ILE282      0.0001
     34  N         16.5710   79.1200   20.0560 N.3   285  ILE285     -0.1231
     35  CA        17.2780   80.2800   19.5220 C.3   285  ILE285      0.1692
     36  C         17.2990   80.2120   17.9920 C.2   285  ILE285      0.2592
     37  O         17.4860   81.2170   17.3110 O.2   285  ILE285     -0.2718
     38  CB        18.7210   80.4020   20.0880 C.3   285  ILE285      0.0266
     39  CG1       19.2770   81.8150   19.8530 C.3   285  ILE285      0.0019
     40  CG2       19.6440   79.3410   19.5030 C.3   285  ILE285      0.0020
     41  CD1       18.6830   82.9020   20.7700 C.3   285  ILE285      0.0001
     42  N         17.0870   79.0220   17.4520 N.am  286  SER286     -0.1952
     43  CA        16.9160   78.8770   16.0160 C.3   286  SER286      0.1924
     44  C         15.6510   79.5970   15.5590 C.2   286  SER286      0.2314
     45  O         15.6270   80.2170   14.4980 O.2   286  SER286     -0.2863
     46  CB        16.8510   77.3970   15.6290 C.3   286  SER286      0.2116
     47  OG        16.9470   77.2390   14.2230 O.3   286  SER286     -0.2180
     48  N         16.2590   83.4000   15.6910 N.3   289  ASP289     -0.1239
     49  CA        17.0640   83.8440   14.5560 C.3   289  ASP289      0.1674
     50  C         16.2340   83.9740   13.2770 C.2   289  ASP289      0.2266
     51  O         16.3940   84.9370   12.5200 O.2   289  ASP289     -0.2867
     52  CB        18.2410   82.9000   14.3080 C.3   289  ASP289      0.1410
     53  CG        18.9580   83.2040   13.0060 C.2   289  ASP289      0.3668
     54  OD1       19.6810   84.2230   12.9410 O.co2 289  ASP289     -0.2456
     55  OD2       18.7800   82.4370   12.0330 O.co2 289  ASP289     -0.2456
     56  N         21.3600   90.3750   17.3860 N.3   364  TYR364     -0.1241
     57  CA        20.4410   90.1060   16.2770 C.3   364  TYR364      0.1605
     58  C         19.7860   91.4230   15.8190 C.2   364  TYR364      0.2264
     59  O         19.6800   91.7200   14.6290 O.2   364  TYR364     -0.2867
     60  CB        19.3550   89.1080   16.6860 C.3   364  TYR364      0.0534
     61  CG        19.7440   87.6370   16.6420 C.ar  364  TYR364     -0.0201
     62  CD1       20.8920   87.2130   15.9880 C.ar  364  TYR364     -0.0009
     63  CD2       18.9380   86.6690   17.2430 C.ar  364  TYR364     -0.0009
     64  CE1       21.2420   85.8630   15.9470 C.ar  364  TYR364      0.0417
     65  CE2       19.2780   85.3200   17.2070 C.ar  364  TYR364      0.0417
     66  CZ        20.4280   84.9190   16.5550 C.ar  364  TYR364      0.1957
     67  OH        20.7710   83.5750   16.5110 O.3   364  TYR364     -0.2866
     68  N         26.3510   86.6830   17.7320 N.3   389  THR389     -0.1203
     69  CA        25.2650   86.1300   16.9050 C.3   389  THR389      0.1994
     70  C         25.5510   84.7050   16.3760 C.2   389  THR389      0.2619
     71  O         24.6810   84.0830   15.7640 O.2   389  THR389     -0.2717
     72  CB        24.9250   87.0400   15.6960 C.3   389  THR389      0.1784
     73  OG1       26.0440   87.1110   14.8160 O.3   389  THR389     -0.2211
     74  CG2       24.5350   88.4530   16.1420 C.3   389  THR389      0.0376
     75  N         26.7590   84.1860   16.6040 N.am  390  THR390     -0.1938
     76  CA        27.0350   82.7670   16.3470 C.3   390  THR390      0.2028
     77  C         26.1880   81.9220   17.2920 C.2   390  THR390      0.2643
     78  O         25.8800   80.7710   17.0030 O.2   390  THR390     -0.2714
     79  CB        28.5210   82.3930   16.5720 C.3   390  THR390      0.1808
     80  OG1       28.8540   82.5990   17.9530 O.3   390  THR390     -0.2208
     81  CG2       29.4420   83.2310   15.6920 C.3   390  THR390      0.0379
     82  N         25.8130   82.5490   18.4090 N.am  391  THR391     -0.1936
     83  CA        25.1800   81.9510   19.5880 C.3   391  THR391      0.2028
     84  C         26.1500   81.1120   20.4100 C.2   391  THR391      0.2642
     85  O         25.7350   80.5100   21.3970 O.2   391  THR391     -0.2714
     86  CB        23.9200   81.0570   19.2550 C.3   391  THR391      0.1808
     87  OG1       24.3370   79.7750   18.7700 O.3   391  THR391     -0.2208
     88  CG2       22.9980   81.7330   18.2500 C.3   391  THR391      0.0379
     89  N         27.4380   81.0950   20.0620 N.am  392  TYR392     -0.1973
     90  CA        28.3330   80.1380   20.7190 C.3   392  TYR392      0.1639
     91  C         28.6840   80.5150   22.1680 C.2   392  TYR392      0.2290
     92  O         28.9120   79.6240   22.9850 O.2   392  TYR392     -0.2864
     93  CB        29.6100   79.9240   19.8900 C.3   392  TYR392      0.0560
     94  CG        29.5440   78.6770   19.0280 C.ar  392  TYR392     -0.0198
     95  CD1       28.3210   78.1700   18.5970 C.ar  392  TYR392     -0.0009
     96  CD2       30.7060   77.9740   18.6820 C.ar  392  TYR392     -0.0009
     97  CE1       28.2500   77.0040   17.8230 C.ar  392  TYR392      0.0417
     98  CE2       30.6530   76.8180   17.9070 C.ar  392  TYR392      0.0417
     99  CZ        29.4230   76.3290   17.4870 C.ar  392  TYR392      0.1957
    100  OH        29.3640   75.1720   16.7280 O.3   392  TYR392     -0.2866
    101  N         25.5650   79.0470   23.7640 N.3   395  LEU395     -0.1245
    102  CA        25.4780   77.5720   23.7820 C.3   395  LEU395      0.1561
    103  C         26.4780   76.9690   24.7640 C.2   395  LEU395      0.2260
    104  O         26.1540   76.0280   25.4810 O.2   395  LEU395     -0.2867
    105  CB        25.7120   76.9680   22.4000 C.3   395  LEU395      0.0270
    106  CG        24.7160   77.3340   21.3110 C.3   395  LEU395      0.0019
    107  CD1       24.9010   76.4240   20.0970 C.3   395  LEU395      0.0001
    108  CD2       23.2940   77.2980   21.8560 C.3   395  LEU395      0.0001
    109  N         33.4450   79.4290   14.5060 N.3   428  CYS428     -0.1221
    110  CA        32.0600   79.3750   14.0420 C.3   428  CYS428      0.1808
    111  C         31.7510   80.5380   13.0950 C.2   428  CYS428      0.2601
    112  O         31.1980   80.3470   12.0000 O.2   428  CYS428     -0.2717
    113  CB        31.0840   79.4000   15.2150 C.3   428  CYS428      0.0970
    114  SG        29.3540   79.1930   14.6880 S.3   428  CYS428     -0.0800
    115  N         32.1260   81.7410   13.5160 N.am  429  ARG429     -0.1979
    116  CA        31.8120   82.9430   12.7440 C.3   429  ARG429      0.1597
    117  C         32.4360   82.9360   11.3510 C.2   429  ARG429      0.2287
    118  O         31.7320   83.1190   10.3620 O.2   429  ARG429     -0.2864
    119  CB        32.2630   84.2040   13.4950 C.3   429  ARG429      0.0334
    120  CG        31.9850   85.5020   12.7590 C.3   429  ARG429      0.0492
    121  CD        30.5320   85.8680   12.8410 C.3   429  ARG429      0.2205
    122  NE        29.7810   85.1320   11.8500 N.pl3 429  ARG429     -0.0865
    123  CZ        28.4860   84.8580   11.9300 C.cat 429  ARG429      0.5346
    124  NH1       27.7620   85.2730   12.9620 N.pl3 429  ARG429      0.1354
    125  NH2       27.9180   84.1630   10.9620 N.pl3 429  ARG429      0.1354
    126  N         31.2390   80.0350    9.0130 N.3   432  ASP432     -0.1239
    127  CA        29.8730   80.3140    8.5780 C.3   432  ASP432      0.1674
    128  C         29.8690   81.3950    7.4960 C.2   432  ASP432      0.2266
    129  O         29.2110   81.2410    6.4670 O.2   432  ASP432     -0.2867
    130  CB        29.0020   80.7390    9.7570 C.3   432  ASP432      0.1410
    131  CG        27.5740   81.0510    9.3420 C.2   432  ASP432      0.3668
    132  OD1       27.3620   82.0580    8.6400 O.co2 432  ASP432     -0.2456
    133  OD2       26.6560   80.2930    9.7180 O.co2 432  ASP432     -0.2456
    134  N         31.2190   72.8240   14.1280 N.3   504  VAL504     -0.1245
    135  CA        31.3870   73.7980   13.0420 C.3   504  VAL504      0.1561
    136  C         32.0890   73.1900   11.8400 C.2   504  VAL504      0.2260
    137  O         31.5880   73.2370   10.7320 O.2   504  VAL504     -0.2867
    138  CB        32.2440   75.0280   13.4760 C.3   504  VAL504      0.0252
    139  CG1       32.5470   75.9200   12.2810 C.3   504  VAL504      0.0019
    140  CG2       31.5880   75.7940   14.5980 C.3   504  VAL504      0.0019
    141  N         29.9980   72.4040    8.2930 N.3   508  TYR508     -0.1241
    142  CA        30.3050   73.2360    7.1390 C.3   508  TYR508      0.1605
    143  C         31.4440   72.6650    6.3150 C.2   508  TYR508      0.2264
    144  O         32.1720   73.4070    5.6660 O.2   508  TYR508     -0.2867
    145  CB        30.6430   74.6520    7.5830 C.3   508  TYR508      0.0534
    146  CG        29.4810   75.3890    8.1950 C.ar  508  TYR508     -0.0201
    147  CD1       29.1430   75.2060    9.5260 C.ar  508  TYR508     -0.0009
    148  CD2       28.7280   76.2800    7.4460 C.ar  508  TYR508     -0.0009
    149  CE1       28.0810   75.8800   10.0940 C.ar  508  TYR508      0.0417
    150  CE2       27.6660   76.9610    8.0040 C.ar  508  TYR508      0.0417
    151  CZ        27.3460   76.7550    9.3260 C.ar  508  TYR508      0.1957
    152  OH        26.2840   77.4280    9.8760 O.3   508  TYR508     -0.2866
    153  N         23.4250   72.8130    8.1200 N.3   515  TYR515     -0.1241
    154  CA        22.3080   72.8880    9.0560 C.3   515  TYR515      0.1605
    155  C         21.0380   73.3490    8.3420 C.2   515  TYR515      0.2264
    156  O         19.9670   72.7540    8.5040 O.2   515  TYR515     -0.2867
    157  CB        22.6460   73.8230   10.2130 C.3   515  TYR515      0.0534
    158  CG        21.5080   74.0510   11.1820 C.ar  515  TYR515     -0.0201
    159  CD1       21.2320   73.1340   12.1930 C.ar  515  TYR515     -0.0009
    160  CD2       20.7130   75.1980   11.0940 C.ar  515  TYR515     -0.0009
    161  CE1       20.1890   73.3520   13.0880 C.ar  515  TYR515      0.0417
    162  CE2       19.6720   75.4190   11.9740 C.ar  515  TYR515      0.0417
    163  CZ        19.4140   74.4960   12.9680 C.ar  515  TYR515      0.1957
    164  OH        18.3790   74.7240   13.8430 O.3   515  TYR515     -0.2866
@<TRIPOS>BOND
     1   144   143    2
     2   143   142    1
     3   129   128    2
     4   142   145    1
     5   142   141    1
     6   148   150   ar
     7   148   146   ar
     8   128   127    1
     9   145   146    1
    10   150   151   ar
    11   153   154    1
    12   146   147   ar
    13   155   156    2
    14   155   154    1
    15   127   126    1
    16   127   130    1
    17   132   131   ar
    18     6     7    1
    19     6     5    1
    20   154   157    1
    21     7     8    1
    22   151   152    1
    23   151   149   ar
    24   131   133   ar
    25   131   130    1
    26   147   149   ar
    27    10     9    1
    28     5     2    1
    29     2     1    1
    30     2     3    1
    31     8     9    2
    32   157   158    1
    33   118   117    2
    34     9    11    1
    35   137   136    2
    36   125   123    1
    37   160   158   ar
    38   160   162   ar
    39     3     4    2
    40   158   159   ar
    41   117   116    1
    42   136   135    1
    43   122   123    2
    44   122   121    1
    45   123   124    1
    46   162   163   ar
    47   112   111    2
    48    55    53   ar
    49   159   161   ar
    50   139   138    1
    51    51    50    2
    52   116   119    1
    53   116   115    1
    54   120   121    1
    55   120   119    1
    56    54    53   ar
    57   163   161   ar
    58   163   164    1
    59    53    52    1
    60   135   138    1
    61   135   134    1
    62   111   115   am
    63   111   110    1
    64    50    49    1
    65   138   140    1
    66    23    21   ar
    67    23    25   ar
    68    20    21   ar
    69    20    18   ar
    70   110   109    1
    71   110   113    1
    72    47    46    1
    73    52    49    1
    74    21    19   ar
    75    25    24   ar
    76    45    44    2
    77    49    48    1
    78    59    58    2
    79   114   113    1
    80    73    72    1
    81    18    17   ar
    82    44    43    1
    83    46    43    1
    84    81    79    1
    85    72    74    1
    86    72    69    1
    87    19    17   ar
    88    19    22   ar
    89    71    70    2
    90    58    57    1
    91    24    22   ar
    92    64    62   ar
    93    64    66   ar
    94    62    61   ar
    95    43    42    1
    96    17    16    1
    97    57    60    1
    98    57    56    1
    99    76    79    1
   100    76    75    1
   101    76    77    1
   102    70    75   am
   103    70    69    1
   104    67    66    1
   105    66    65   ar
   106    79    80    1
   107    61    60    1
   108    61    63   ar
   109   100    99    1
   110    69    68    1
   111    78    77    2
   112    12    13    1
   113    65    63   ar
   114    77    82   am
   115    37    36    2
   116    16    13    1
   117    42    36   am
   118    99    97   ar
   119    99    98   ar
   120    13    14    1
   121    97    95   ar
   122    98    96   ar
   123    36    35    1
   124    88    86    1
   125    82    83    1
   126    32    30    1
   127    29    28    2
   128    95    94   ar
   129    96    94   ar
   130    87    86    1
   131    94    93    1
   132    14    15    2
   133    86    83    1
   134    28    27    1
   135    40    38    1
   136    35    34    1
   137    35    38    1
   138    83    84    1
   139    39    38    1
   140    39    41    1
   141    93    90    1
   142    30    27    1
   143    30    31    1
   144    89    84   am
   145    89    90    1
   146   107   106    1
   147    33    31    1
   148    27    26    1
   149    84    85    2
   150    90    91    1
   151   106   108    1
   152   106   105    1
   153    91    92    2
   154   105   102    1
   155   101   102    1
   156   102   103    1
   157   103   104    2
