@<TRIPOS>MOLECULE
tmp/5ik9A00.pdb
 208 196 0 0 0
SMALL
GASTEIGER

@<TRIPOS>ATOM
      1  N         12.1520   77.1300   10.8760 N.3   252  ARG252     -0.1245
      2  CA        12.7770   75.8360   10.6270 C.3   252  ARG252      0.1563
      3  C         12.3500   74.7750   11.6340 C.2   252  ARG252      0.2260
      4  O         12.3480   75.0120   12.8410 O.2   252  ARG252     -0.2867
      5  CB        14.3030   75.9680   10.6620 C.3   252  ARG252      0.0307
      6  CG        14.9190   76.6040    9.4290 C.3   252  ARG252      0.0489
      7  CD        16.3990   76.8930    9.6420 C.3   252  ARG252      0.2205
      8  NE        16.5730   77.9070   10.6710 N.pl3 252  ARG252     -0.0865
      9  CZ        17.7070   78.5580   10.9070 C.cat 252  ARG252      0.5346
     10  NH1       18.7880   78.2940   10.1840 N.pl3 252  ARG252      0.1354
     11  NH2       17.7570   79.4780   11.8670 N.pl3 252  ARG252      0.1354
     12  N         23.5530   68.1270   17.2600 N.3   261  TRP261     -0.1241
     13  CA        24.4390   69.1570   17.8010 C.3   261  TRP261      0.1605
     14  C         24.7830   68.8870   19.2560 C.2   261  TRP261      0.2264
     15  O         25.9460   68.8820   19.6580 O.2   261  TRP261     -0.2867
     16  CB        23.7810   70.5290   17.6930 C.3   261  TRP261      0.0550
     17  CG        24.6340   71.5670   17.0800 C.ar  261  TRP261      0.0003
     18  CD1       25.4860   72.4190   17.7230 C.ar  261  TRP261      0.0946
     19  CD2       24.7150   71.8870   15.6880 C.ar  261  TRP261      0.0152
     20  NE1       26.0960   73.2500   16.8140 N.ar  261  TRP261     -0.2442
     21  CE2       25.6350   72.9500   15.5580 C.ar  261  TRP261      0.0810
     22  CE3       24.0930   71.3840   14.5380 C.ar  261  TRP261      0.0012
     23  CZ2       25.9590   73.5100   14.3230 C.ar  261  TRP261      0.0191
     24  CZ3       24.4120   71.9400   13.3140 C.ar  261  TRP261      0.0001
     25  CH2       25.3380   72.9940   13.2150 C.ar  261  TRP261      0.0015
     26  N         18.9520   75.0230   21.9000 N.3   282  ILE282     -0.1245
     27  CA        19.3030   75.2110   20.4960 C.3   282  ILE282      0.1561
     28  C         18.0270   75.3390   19.6540 C.2   282  ILE282      0.2260
     29  O         17.9420   76.1970   18.7730 O.2   282  ILE282     -0.2867
     30  CB        20.1800   74.0710   19.9580 C.3   282  ILE282      0.0252
     31  CG1       21.5170   74.0340   20.6970 C.3   282  ILE282      0.0019
     32  CG2       20.4720   74.2830   18.4940 C.3   282  ILE282      0.0019
     33  CD1       22.3340   72.8050   20.3710 C.3   282  ILE282      0.0001
     34  N         16.3930   78.9120   20.4470 N.3   285  ILE285     -0.1231
     35  CA        17.0980   80.0810   19.9180 C.3   285  ILE285      0.1692
     36  C         17.0520   80.0660   18.3850 C.2   285  ILE285      0.2592
     37  O         17.1000   81.1100   17.7450 O.2   285  ILE285     -0.2718
     38  CB        18.5650   80.1770   20.4170 C.3   285  ILE285      0.0266
     39  CG1       19.0980   81.5930   20.1880 C.3   285  ILE285      0.0019
     40  CG2       19.4680   79.1680   19.7280 C.3   285  ILE285      0.0020
     41  CD1       18.3830   82.6780   20.9840 C.3   285  ILE285      0.0001
     42  N         16.9210   78.8820   17.8010 N.am  286  SER286     -0.1952
     43  CA        16.7000   78.7670   16.3650 C.3   286  SER286      0.1924
     44  C         15.3810   79.4370   15.9360 C.2   286  SER286      0.2314
     45  O         15.3110   80.0790   14.8890 O.2   286  SER286     -0.2863
     46  CB        16.7040   77.2930   15.9550 C.3   286  SER286      0.2116
     47  OG        16.5910   77.1490   14.5520 O.3   286  SER286     -0.2180
     48  N         15.9240   83.1350   16.1470 N.3   289  ASP289     -0.1239
     49  CA        16.7140   83.5460   14.9950 C.3   289  ASP289      0.1674
     50  C         15.8580   83.7110   13.7520 C.2   289  ASP289      0.2266
     51  O         16.0030   84.7000   13.0300 O.2   289  ASP289     -0.2867
     52  CB        17.8340   82.5500   14.6910 C.3   289  ASP289      0.1410
     53  CG        18.6310   82.9550   13.4620 C.2   289  ASP289      0.3668
     54  OD1       19.4170   83.9220   13.5620 O.co2 289  ASP289     -0.2456
     55  OD2       18.4310   82.3470   12.3870 O.co2 289  ASP289     -0.2456
     56  N         15.1280   86.8810   11.3660 N.3   293  ASP293     -0.1239
     57  CA        15.6910   86.7100   10.0290 C.3   293  ASP293      0.1674
     58  C         14.6800   86.6000    8.9170 C.2   293  ASP293      0.2266
     59  O         14.9820   86.9140    7.7690 O.2   293  ASP293     -0.2867
     60  CB        16.5580   85.4480    9.9820 C.3   293  ASP293      0.1410
     61  CG        17.9680   85.7090   10.4040 C.2   293  ASP293      0.3668
     62  OD1       18.3990   86.8730   10.2720 O.co2 293  ASP293     -0.2456
     63  OD2       18.6420   84.7620   10.8650 O.co2 293  ASP293     -0.2456
     64  N         21.1240   90.2330   17.7250 N.3   364  TYR364     -0.1241
     65  CA        20.1760   89.9660   16.6440 C.3   364  TYR364      0.1605
     66  C         19.5200   91.2690   16.1520 C.2   364  TYR364      0.2264
     67  O         19.4000   91.5180   14.9550 O.2   364  TYR364     -0.2867
     68  CB        19.0760   89.0000   17.1010 C.3   364  TYR364      0.0534
     69  CG        19.4280   87.5280   17.0540 C.ar  364  TYR364     -0.0201
     70  CD1       20.6240   87.0910   16.5030 C.ar  364  TYR364     -0.0009
     71  CD2       18.5530   86.5750   17.5680 C.ar  364  TYR364     -0.0009
     72  CE1       20.9400   85.7410   16.4610 C.ar  364  TYR364      0.0417
     73  CE2       18.8610   85.2280   17.5350 C.ar  364  TYR364      0.0417
     74  CZ        20.0520   84.8160   16.9760 C.ar  364  TYR364      0.1957
     75  OH        20.3510   83.4710   16.9360 O.3   364  TYR364     -0.2866
     76  N         21.9250   93.4850   14.2570 N.3   367  GLU367     -0.1245
     77  CA        22.0980   92.8810   12.9390 C.3   367  GLU367      0.1567
     78  C         20.9380   93.2510   12.0040 C.2   367  GLU367      0.2260
     79  O         21.1430   93.5640   10.8270 O.2   367  GLU367     -0.2867
     80  CB        22.2210   91.3540   13.0920 C.3   367  GLU367      0.0388
     81  CG        22.8940   90.5950   11.9540 C.3   367  GLU367      0.1160
     82  CD        23.1880   89.1260   12.3370 C.2   367  GLU367      0.3649
     83  OE1       24.3750   88.6960   12.3080 O.co2 367  GLU367     -0.2457
     84  OE2       22.2300   88.4070   12.6880 O.co2 367  GLU367     -0.2457
     85  N         26.1670   86.4700   17.8670 N.3   389  THR389     -0.1203
     86  CA        25.0610   85.9370   17.0580 C.3   389  THR389      0.1994
     87  C         25.3500   84.5370   16.4960 C.2   389  THR389      0.2619
     88  O         24.4800   83.9270   15.8500 O.2   389  THR389     -0.2717
     89  CB        24.6770   86.8760   15.8740 C.3   389  THR389      0.1784
     90  OG1       25.7650   86.9930   14.9540 O.3   389  THR389     -0.2211
     91  CG2       24.2800   88.2790   16.3750 C.3   389  THR389      0.0376
     92  N         26.5540   84.0160   16.7380 N.am  390  THR390     -0.1938
     93  CA        26.8150   82.5930   16.4710 C.3   390  THR390      0.2028
     94  C         26.0270   81.7280   17.4470 C.2   390  THR390      0.2643
     95  O         25.8180   80.5440   17.2020 O.2   390  THR390     -0.2714
     96  CB        28.3030   82.2110   16.6170 C.3   390  THR390      0.1808
     97  OG1       28.6950   82.3290   17.9950 O.3   390  THR390     -0.2208
     98  CG2       29.2060   83.0680   15.7210 C.3   390  THR390      0.0379
     99  N         25.6220   82.3540   18.5530 N.am  391  THR391     -0.1936
    100  CA        25.0030   81.7410   19.7360 C.3   391  THR391      0.2028
    101  C         26.0030   80.9400   20.5670 C.2   391  THR391      0.2642
    102  O         25.6250   80.3720   21.5930 O.2   391  THR391     -0.2714
    103  CB        23.7780   80.8090   19.3910 C.3   391  THR391      0.1808
    104  OG1       24.2280   79.5910   18.7890 O.3   391  THR391     -0.2208
    105  CG2       22.8110   81.5090   18.4570 C.3   391  THR391      0.0379
    106  N         27.2770   80.9270   20.1720 N.am  392  TYR392     -0.1973
    107  CA        28.2250   79.9960   20.7890 C.3   392  TYR392      0.1639
    108  C         28.6110   80.3590   22.2320 C.2   392  TYR392      0.2290
    109  O         28.8970   79.4540   22.9990 O.2   392  TYR392     -0.2864
    110  CB        29.4960   79.8400   19.9140 C.3   392  TYR392      0.0560
    111  CG        29.4580   78.5710   19.0880 C.ar  392  TYR392     -0.0198
    112  CD1       28.2390   78.0190   18.6930 C.ar  392  TYR392     -0.0009
    113  CD2       30.6230   77.8980   18.7450 C.ar  392  TYR392     -0.0009
    114  CE1       28.1810   76.8220   17.9590 C.ar  392  TYR392      0.0417
    115  CE2       30.5830   76.7120   18.0070 C.ar  392  TYR392      0.0417
    116  CZ        29.3630   76.1770   17.6240 C.ar  392  TYR392      0.1957
    117  OH        29.3270   74.9980   16.9080 O.3   392  TYR392     -0.2866
    118  N         25.4900   78.8670   23.9000 N.3   395  LEU395     -0.1245
    119  CA        25.4480   77.3990   23.9140 C.3   395  LEU395      0.1561
    120  C         26.4710   76.7970   24.8730 C.2   395  LEU395      0.2260
    121  O         26.1720   75.8260   25.5710 O.2   395  LEU395     -0.2867
    122  CB        25.6750   76.8310   22.5150 C.3   395  LEU395      0.0270
    123  CG        24.6180   77.2150   21.4830 C.3   395  LEU395      0.0019
    124  CD1       24.7520   76.3530   20.2510 C.3   395  LEU395      0.0001
    125  CD2       23.2190   77.1360   22.0700 C.3   395  LEU395      0.0001
    126  N         33.3740   79.3040   14.6140 N.3   428  CYS428     -0.1221
    127  CA        31.9980   79.2410   14.1280 C.3   428  CYS428      0.1808
    128  C         31.7000   80.4390   13.2210 C.2   428  CYS428      0.2601
    129  O         31.1450   80.2750   12.1330 O.2   428  CYS428     -0.2717
    130  CB        30.9990   79.2000   15.2860 C.3   428  CYS428      0.0970
    131  SG        29.2600   79.0260   14.7470 S.3   428  CYS428     -0.0800
    132  N         32.0860   81.6370   13.6560 N.am  429  ARG429     -0.1979
    133  CA        31.7730   82.8500   12.8930 C.3   429  ARG429      0.1597
    134  C         32.3860   82.8400   11.4920 C.2   429  ARG429      0.2287
    135  O         31.6760   83.0460   10.5050 O.2   429  ARG429     -0.2864
    136  CB        32.2370   84.1150   13.6370 C.3   429  ARG429      0.0334
    137  CG        31.9580   85.4330   12.8880 C.3   429  ARG429      0.0492
    138  CD        30.4780   85.8420   12.9430 C.3   429  ARG429      0.2205
    139  NE        29.6810   85.0600   12.0130 N.pl3 429  ARG429     -0.0865
    140  CZ        28.3840   84.8090   12.1410 C.cat 429  ARG429      0.5346
    141  NH1       27.7000   85.2860   13.1770 N.pl3 429  ARG429      0.1354
    142  NH2       27.7750   84.0720   11.2230 N.pl3 429  ARG429      0.1354
    143  N         31.1450   79.8430    9.1070 N.3   432  ASP432     -0.1239
    144  CA        29.8020   80.1080    8.6050 C.3   432  ASP432      0.1674
    145  C         29.8010   81.2840    7.6130 C.2   432  ASP432      0.2266
    146  O         29.1140   81.2370    6.5930 O.2   432  ASP432     -0.2867
    147  CB        28.8410   80.3810    9.7570 C.3   432  ASP432      0.1410
    148  CG        27.5230   80.9690    9.2750 C.2   432  ASP432      0.3668
    149  OD1       27.4830   82.1920    9.0550 O.co2 432  ASP432     -0.2456
    150  OD2       26.5360   80.2150    9.0980 O.co2 432  ASP432     -0.2456
    151  N         28.3180   80.8080    4.0130 N.3   436  THR436     -0.1218
    152  CA        27.0180   81.4140    3.7360 C.3   436  THR436      0.1862
    153  C         27.1110   82.7990    3.1040 C.2   436  THR436      0.2287
    154  O         26.1020   83.4860    2.9820 O.2   436  THR436     -0.2866
    155  CB        26.1680   81.5220    5.0130 C.3   436  THR436      0.1770
    156  OG1       26.8210   82.3860    5.9520 O.3   436  THR436     -0.2211
    157  CG2       25.9680   80.1430    5.6430 C.3   436  THR436      0.0375
    158  N         23.7030   84.9830    1.5770 N.3   440  GLU440     -0.1245
    159  CA        23.4040   86.2270    2.2730 C.3   440  GLU440      0.1567
    160  C         23.5740   87.4470    1.3680 C.2   440  GLU440      0.2260
    161  O         22.7840   88.3880    1.4360 O.2   440  GLU440     -0.2867
    162  CB        24.2830   86.3530    3.5210 C.3   440  GLU440      0.0388
    163  CG        23.7930   85.5040    4.6800 C.3   440  GLU440      0.1160
    164  CD        24.8640   85.1990    5.7140 C.2   440  GLU440      0.3649
    165  OE1       25.7970   86.0070    5.8930 O.co2 440  GLU440     -0.2457
    166  OE2       24.7600   84.1390    6.3590 O.co2 440  GLU440     -0.2457
    167  N         20.5840   87.9010   -0.7000 N.3   443  ARG443     -0.1245
    168  CA        19.4240   88.3580    0.0500 C.3   443  ARG443      0.1563
    169  C         19.5620   89.8340    0.4320 C.2   443  ARG443      0.2260
    170  O         18.6850   90.3950    1.0930 O.2   443  ARG443     -0.2867
    171  CB        19.2200   87.4790    1.2940 C.3   443  ARG443      0.0307
    172  CG        18.4770   86.1680    1.0020 C.3   443  ARG443      0.0489
    173  CD        18.8260   85.0530    1.9840 C.3   443  ARG443      0.2205
    174  NE        18.4920   85.3840    3.3690 N.pl3 443  ARG443     -0.0865
    175  CZ        19.0530   84.8080    4.4330 C.cat 443  ARG443      0.5346
    176  NH1       19.9830   83.8750    4.2740 N.pl3 443  ARG443      0.1354
    177  NH2       18.6920   85.1700    5.6580 N.pl3 443  ARG443      0.1354
    178  N         31.1750   72.6720   14.2730 N.3   504  VAL504     -0.1245
    179  CA        31.3080   73.6510   13.1940 C.3   504  VAL504      0.1561
    180  C         31.9900   73.0710   11.9690 C.2   504  VAL504      0.2260
    181  O         31.4820   73.1580   10.8510 O.2   504  VAL504     -0.2867
    182  CB        32.1650   74.8880   13.6360 C.3   504  VAL504      0.0252
    183  CG1       32.4080   75.8130   12.4690 C.3   504  VAL504      0.0019
    184  CG2       31.5490   75.6010   14.8050 C.3   504  VAL504      0.0019
    185  N         30.0180   72.2710    8.4300 N.3   508  TYR508     -0.1241
    186  CA        30.3150   73.0460    7.2360 C.3   508  TYR508      0.1605
    187  C         31.4650   72.4550    6.4190 C.2   508  TYR508      0.2264
    188  O         32.1400   73.1850    5.6940 O.2   508  TYR508     -0.2867
    189  CB        30.6490   74.4840    7.6100 C.3   508  TYR508      0.0534
    190  CG        29.5150   75.2990    8.2020 C.ar  508  TYR508     -0.0201
    191  CD1       29.3120   75.3440    9.5730 C.ar  508  TYR508     -0.0009
    192  CD2       28.6900   76.0740    7.3920 C.ar  508  TYR508     -0.0009
    193  CE1       28.3040   76.1120   10.1210 C.ar  508  TYR508      0.0417
    194  CE2       27.6750   76.8500    7.9350 C.ar  508  TYR508      0.0417
    195  CZ        27.4890   76.8620    9.3010 C.ar  508  TYR508      0.1957
    196  OH        26.4860   77.6220    9.8550 O.3   508  TYR508     -0.2866
    197  N         23.2520   72.8560    8.6210 N.3   515  TYR515     -0.1241
    198  CA        22.0990   72.8490    9.5190 C.3   515  TYR515      0.1605
    199  C         20.8420   73.2940    8.7800 C.2   515  TYR515      0.2264
    200  O         19.8110   72.6200    8.8470 O.2   515  TYR515     -0.2867
    201  CB        22.3490   73.7390   10.7400 C.3   515  TYR515      0.0534
    202  CG        21.1330   73.9560   11.6210 C.ar  515  TYR515     -0.0201
    203  CD1       20.2260   74.9780   11.3450 C.ar  515  TYR515     -0.0009
    204  CD2       20.8990   73.1560   12.7370 C.ar  515  TYR515     -0.0009
    205  CE1       19.1170   75.1870   12.1320 C.ar  515  TYR515      0.0417
    206  CE2       19.7800   73.3700   13.5450 C.ar  515  TYR515      0.0417
    207  CZ        18.8980   74.3930   13.2340 C.ar  515  TYR515      0.1957
    208  OH        17.7810   74.6330   14.0080 O.3   515  TYR515     -0.2866
@<TRIPOS>BOND
     1   167   168    1
     2   168   169    1
     3   168   171    1
     4   169   170    2
     5   172   171    1
     6   172   173    1
     7   160   161    2
     8   160   159    1
     9   158   159    1
    10   173   174    1
    11   159   162    1
    12   154   153    2
    13   153   152    1
    14   174   175    2
    15   162   163    1
    16   152   151    1
    17   152   155    1
    18   176   175    1
    19   175   177    1
    20   163   164    1
    21   155   157    1
    22   155   156    1
    23   188   187    2
    24   164   165   ar
    25   164   166   ar
    26   187   186    1
    27   146   145    2
    28   186   189    1
    29   186   185    1
    30   192   194   ar
    31   192   190   ar
    32   189   190    1
    33   145   144    1
    34    59    58    2
    35   194   195   ar
    36   190   191   ar
    37   144   143    1
    38   144   147    1
    39   197   198    1
    40   199   200    2
    41   199   198    1
    42    58    57    1
    43   149   148   ar
    44   150   148   ar
    45   148   147    1
    46   195   196    1
    47   195   193   ar
    48     6     7    1
    49     6     5    1
    50   198   201    1
    51   191   193   ar
    52     7     8    1
    53    60    57    1
    54    60    61    1
    55    57    56    1
    56    10     9    1
    57    62    61   ar
    58    61    63   ar
    59   135   134    2
    60     2     5    1
    61     2     1    1
    62     2     3    1
    63     8     9    2
    64   201   202    1
    65    79    78    2
    66   181   180    2
    67     9    11    1
    68   142   140    1
    69   203   202   ar
    70   203   205   ar
    71   134   133    1
    72   202   204   ar
    73     3     4    2
    74    81    82    1
    75    81    80    1
    76   180   179    1
    77    78    77    1
    78   139   140    2
    79   139   138    1
    80   205   207   ar
    81   129   128    2
    82   140   141    1
    83    83    82   ar
    84    82    84   ar
    85    55    53   ar
    86   183   182    1
    87   204   206   ar
    88   137   138    1
    89   137   136    1
    90   133   136    1
    91   133   132    1
    92    77    80    1
    93    77    76    1
    94    51    50    2
    95   179   182    1
    96   179   178    1
    97    25    24   ar
    98    25    23   ar
    99   128   132   am
   100   128   127    1
   101   207   206   ar
   102   207   208    1
   103    24    22   ar
   104    53    54   ar
   105    53    52    1
   106   182   184    1
   107    50    49    1
   108   127   126    1
   109   127   130    1
   110    23    21   ar
   111    22    19   ar
   112    47    46    1
   113    52    49    1
   114   131   130    1
   115    45    44    2
   116    90    89    1
   117    67    66    2
   118    49    48    1
   119    21    19   ar
   120    21    20   ar
   121    19    17   ar
   122    98    96    1
   123    88    87    2
   124    89    91    1
   125    89    86    1
   126    44    43    1
   127    46    43    1
   128    66    65    1
   129    43    42    1
   130    72    70   ar
   131    72    74   ar
   132    93    96    1
   133    93    92    1
   134    93    94    1
   135    87    92   am
   136    87    86    1
   137    70    69   ar
   138    96    97    1
   139    65    68    1
   140    65    64    1
   141    20    18   ar
   142   117   116    1
   143    75    74    1
   144    74    73   ar
   145    69    68    1
   146    69    71   ar
   147    86    85    1
   148    17    16    1
   149    17    18   ar
   150    95    94    2
   151    12    13    1
   152    94    99   am
   153    73    71   ar
   154   116   114   ar
   155   116   115   ar
   156    16    13    1
   157    37    36    2
   158    42    36   am
   159    13    14    1
   160   114   112   ar
   161   115   113   ar
   162    36    35    1
   163   105   103    1
   164    32    30    1
   165    99   100    1
   166   112   111   ar
   167   113   111   ar
   168    29    28    2
   169   104   103    1
   170   111   110    1
   171    14    15    2
   172   103   100    1
   173    28    27    1
   174    40    38    1
   175   100   101    1
   176   110   107    1
   177    35    38    1
   178    35    34    1
   179    30    27    1
   180    30    31    1
   181   106   101   am
   182   106   107    1
   183    39    38    1
   184    39    41    1
   185   124   123    1
   186    33    31    1
   187    27    26    1
   188   101   102    2
   189   107   108    1
   190   123   125    1
   191   123   122    1
   192   108   109    2
   193   122   119    1
   194   118   119    1
   195   119   120    1
   196   120   121    2
