@<TRIPOS>MOLECULE
tmp/5ikbA00.pdb
 129 120 0 0 0
SMALL
GASTEIGER

@<TRIPOS>ATOM
      1  N         21.6740   27.7960   57.1050 N.3     9  GLU9       -0.1245
      2  CA        21.9840   26.4050   57.5990 C.3     9  GLU9        0.1567
      3  C         22.5550   25.5790   56.4800 C.2     9  GLU9        0.2260
      4  O         21.8240   25.3330   55.5020 O.2     9  GLU9       -0.2867
      5  CB        20.7330   25.6890   58.0740 C.3     9  GLU9        0.0388
      6  CG        21.0080   24.3050   58.6380 C.3     9  GLU9        0.1160
      7  CD        21.4100   24.3540   60.1120 C.2     9  GLU9        0.3649
      8  OE1       20.8610   25.1470   60.8870 O.co2   9  GLU9       -0.2457
      9  OE2       22.2310   23.5370   60.5170 O.co2   9  GLU9       -0.2457
     10  N         14.1110   27.8340   64.6100 N.3    57  TYR57      -0.1241
     11  CA        13.1780   26.9900   63.8590 C.3    57  TYR57       0.1605
     12  C         11.7540   27.0610   64.4120 C.2    57  TYR57       0.2264
     13  O         10.8070   27.3690   63.6740 O.2    57  TYR57      -0.2867
     14  CB        13.6580   25.5320   63.7690 C.3    57  TYR57       0.0534
     15  CG        14.7790   25.3400   62.7510 C.ar   57  TYR57      -0.0201
     16  CD1       16.0920   25.8060   63.0200 C.ar   57  TYR57      -0.0009
     17  CD2       14.5370   24.7630   61.4890 C.ar   57  TYR57      -0.0009
     18  CE1       17.1330   25.6280   62.1090 C.ar   57  TYR57       0.0417
     19  CE2       15.5850   24.6300   60.5570 C.ar   57  TYR57       0.0417
     20  CZ        16.8830   25.0530   60.8910 C.ar   57  TYR57       0.1957
     21  OH        17.9370   24.8480   60.0360 O.3    57  TYR57      -0.2866
     22  N         15.1980   22.9410   56.8060 N.3    84  GLY84      -0.1225
     23  CA        15.1200   21.6050   57.4270 C.3    84  GLY84       0.1811
     24  C         14.1740   21.6090   58.6130 C.2    84  GLY84       0.2280
     25  O         14.5370   21.3270   59.7820 O.2    84  GLY84      -0.2866
     26  N         11.5800   20.1100   60.7500 N.3    86  THR86      -0.1218
     27  CA        11.1780   18.7720   61.1040 C.3    86  THR86       0.1862
     28  C          9.6610   18.7520   61.4030 C.2    86  THR86       0.2287
     29  O          9.1680   19.5820   62.1330 O.2    86  THR86      -0.2866
     30  CB        12.0050   18.2680   62.3120 C.3    86  THR86       0.1770
     31  OG1       13.4120   18.3800   61.9980 O.3    86  THR86      -0.2211
     32  CG2       11.6940   16.7810   62.6190 C.3    86  THR86       0.0375
     33  N          4.1450   20.3640   66.2150 N.3    91  ARG91      -0.1245
     34  CA         4.0610   21.3940   65.1670 C.3    91  ARG91       0.1563
     35  C          2.8340   21.2590   64.3050 C.2    91  ARG91       0.2260
     36  O          2.1880   22.2340   63.9720 O.2    91  ARG91      -0.2867
     37  CB         5.3460   21.3820   64.3420 C.3    91  ARG91       0.0307
     38  CG         6.5110   21.8480   65.1700 C.3    91  ARG91       0.0489
     39  CD         7.8090   21.7250   64.4010 C.3    91  ARG91       0.2205
     40  NE         8.8880   22.4180   65.0960 N.pl3  91  ARG91      -0.0865
     41  CZ        10.1710   22.3740   64.7530 C.cat  91  ARG91       0.5346
     42  NH1       10.6050   21.6230   63.6980 N.pl3  91  ARG91       0.1354
     43  NH2       11.0320   23.0620   65.4850 N.pl3  91  ARG91       0.1354
     44  N         22.7180   18.5530   72.5830 N.3   132  THR132     -0.1203
     45  CA        22.0220   18.9320   71.3450 C.3   132  THR132      0.1994
     46  C         21.7230   20.4430   71.2610 C.2   132  THR132      0.2617
     47  O         22.0330   21.2470   72.1850 O.2   132  THR132     -0.2717
     48  CB        20.6740   18.1390   71.1920 C.3   132  THR132      0.1784
     49  OG1       20.1990   18.2450   69.8350 O.3   132  THR132     -0.2211
     50  CG2       19.6310   18.6010   72.1820 C.3   132  THR132      0.0376
     51  N         21.0840   20.8390   70.1600 N.am  133  ILE133     -0.1979
     52  CA        20.7110   22.1990   70.0500 C.3   133  ILE133      0.1595
     53  C         19.5060   22.4080   70.9630 C.2   133  ILE133      0.2287
     54  O         18.5400   21.7060   70.8200 O.2   133  ILE133     -0.2864
     55  CB        20.3090   22.5530   68.6200 C.3   133  ILE133      0.0276
     56  CG1       21.5370   22.5350   67.7160 C.3   133  ILE133      0.0022
     57  CG2       19.6150   23.9130   68.6090 C.3   133  ILE133      0.0022
     58  CD1       21.1790   22.6170   66.2360 C.3   133  ILE133      0.0001
     59  N         15.3890   22.3170   69.8210 N.3   136  GLY136     -0.1210
     60  CA        15.1390   21.6540   68.5550 C.3   136  GLY136      0.1956
     61  C         14.2860   20.4200   68.7620 C.2   136  GLY136      0.2613
     62  O         14.0460   19.9810   69.9210 O.2   136  GLY136     -0.2717
     63  N         13.8440   19.8600   67.6510 N.am  137  SER137     -0.1938
     64  CA        13.1230   18.5630   67.6430 C.3   137  SER137      0.2055
     65  C         13.8820   17.4030   68.3270 C.2   137  SER137      0.2643
     66  O         13.3130   16.7300   69.1540 O.2   137  SER137     -0.2714
     67  CB        12.6990   18.1890   66.2080 C.3   137  SER137      0.2130
     68  OG        11.6090   19.0070   65.7920 O.3   137  SER137     -0.2179
     69  N         15.1760   17.2370   68.0680 N.am  138  SER138     -0.1949
     70  CA        15.9480   16.2000   68.7460 C.3   138  SER138      0.1924
     71  C         15.8870   16.3620   70.2860 C.2   138  SER138      0.2314
     72  O         15.6870   15.3980   70.9760 O.2   138  SER138     -0.2863
     73  CB        17.4380   16.1970   68.2740 C.3   138  SER138      0.2116
     74  OG        17.4940   16.0540   66.8530 O.3   138  SER138     -0.2180
     75  N         23.7780   26.3670   70.5590 N.3   167  LYS167     -0.1231
     76  CA        22.8550   27.3020   69.8740 C.3   167  LYS167      0.1693
     77  C         22.6820   27.1180   68.3570 C.2   167  LYS167      0.2593
     78  O         21.7780   27.7210   67.7690 O.2   167  LYS167     -0.2718
     79  CB        23.3350   28.7330   70.0830 C.3   167  LYS167      0.0285
     80  CG        22.7790   29.3330   71.3410 C.3   167  LYS167      0.0035
     81  CD        23.3790   28.7270   72.5960 C.3   167  LYS167      0.0206
     82  CE        23.2850   29.7290   73.7410 C.3   167  LYS167      0.1093
     83  NZ        23.3420   29.0300   75.0580 N.3   167  LYS167     -0.1314
     84  N         23.5550   26.3380   67.7340 N.am  168  SER168     -0.1938
     85  CA        23.5580   26.1240   66.2710 C.3   168  SER168      0.2055
     86  C         24.3070   24.8100   65.9170 C.2   168  SER168      0.2643
     87  O         25.0090   24.2310   66.7460 O.2   168  SER168     -0.2714
     88  CB        24.2420   27.3030   65.5810 C.3   168  SER168      0.2130
     89  OG        25.6680   27.1960   65.6800 O.3   168  SER168     -0.2179
     90  N         24.1620   24.3690   64.6700 N.am  169  THR169     -0.1950
     91  CA        24.7610   23.1730   64.1880 C.3   169  THR169      0.1897
     92  C         26.3030   23.3990   64.1090 C.2   169  THR169      0.2313
     93  O         27.1100   22.5560   64.5480 O.2   169  THR169     -0.2863
     94  CB        24.1340   22.8610   62.8220 C.3   169  THR169      0.1794
     95  OG1       22.7170   22.6840   62.9730 O.3   169  THR169     -0.2208
     96  CG2       24.6750   21.6380   62.2530 C.3   169  THR169      0.0378
     97  N         24.1640   15.3830   69.3400 N.3   184  LEU184     -0.1231
     98  CA        22.8550   14.7260   69.0040 C.3   184  LEU184      0.1693
     99  C         22.1980   15.5710   67.9260 C.2   184  LEU184      0.2592
    100  O         21.8030   16.6410   68.2280 O.2   184  LEU184     -0.2718
    101  CB        21.9540   14.5610   70.2440 C.3   184  LEU184      0.0284
    102  CG        22.5860   13.7190   71.4120 C.3   184  LEU184      0.0019
    103  CD1       21.6600   13.6750   72.6300 C.3   184  LEU184      0.0001
    104  CD2       23.0180   12.2930   71.0290 C.3   184  LEU184      0.0001
    105  N         22.1730   15.0790   66.6750 N.am  185  LEU185     -0.1966
    106  CA        21.7780   15.8390   65.4900 C.3   185  LEU185      0.1728
    107  C         21.1930   14.9810   64.4040 C.2   185  LEU185      0.2616
    108  O         21.3480   13.7100   64.3630 O.2   185  LEU185     -0.2715
    109  CB        22.9240   16.6750   64.9030 C.3   185  LEU185      0.0311
    110  CG        23.9240   16.0150   63.9500 C.3   185  LEU185      0.0022
    111  CD1       24.8790   16.9970   63.3690 C.3   185  LEU185      0.0001
    112  CD2       24.7200   14.9730   64.6970 C.3   185  LEU185      0.0001
    113  N         20.4370   15.6660   63.5370 N.am  186  GLU186     -0.1977
    114  CA        19.7520   14.9670   62.4670 C.3   186  GLU186      0.1602
    115  C         20.8450   14.4280   61.4640 C.2   186  GLU186      0.2287
    116  O         21.8550   15.1000   61.1980 O.2   186  GLU186     -0.2864
    117  CB        18.6340   15.8010   61.8390 C.3   186  GLU186      0.0415
    118  CG        17.5870   16.0800   62.9030 C.3   186  GLU186      0.1163
    119  CD        16.5600   17.1730   62.5990 C.2   186  GLU186      0.3649
    120  OE1       16.7760   18.0780   61.7550 O.co2 186  GLU186     -0.2457
    121  OE2       15.4830   17.0900   63.2370 O.co2 186  GLU186     -0.2457
    122  N         22.4490   16.2820   58.6170 N.3   189  MET189     -0.1245
    123  CA        23.5690   17.1350   58.9760 C.3   189  MET189      0.1570
    124  C         24.7940   16.2860   59.2660 C.2   189  MET189      0.2261
    125  O         25.9020   16.6200   58.8630 O.2   189  MET189     -0.2867
    126  CB        23.2420   18.0740   60.1680 C.3   189  MET189      0.0387
    127  CG        22.3380   19.2960   59.8600 C.3   189  MET189      0.0595
    128  SD        20.6080   18.8020   59.5450 S.3   189  MET189     -0.1393
    129  CE        19.8000   20.3460   59.9780 C.3   189  MET189      0.0692
@<TRIPOS>BOND
     1     4     3    2
     2     3     2    1
     3    22    23    1
     4     1     2    1
     5    23    24    1
     6     2     5    1
     7     5     6    1
     8    24    25    2
     9   122   123    1
    10     6     7    1
    11   125   124    2
    12   123   124    1
    13   123   126    1
    14   128   127    1
    15   128   129    1
    16   127   126    1
    17    21    20    1
    18     7     9   ar
    19     7     8   ar
    20    19    20   ar
    21    19    17   ar
    22    26    27    1
    23    20    18   ar
    24    27    28    1
    25    27    30    1
    26   116   115    2
    27    28    29    2
    28   115   114    1
    29    17    15   ar
    30   120   119   ar
    31   117   114    1
    32   117   118    1
    33    31    30    1
    34    18    16   ar
    35    96    94    1
    36    30    32    1
    37   114   113    1
    38   119   118    1
    39   119   121   ar
    40    15    16   ar
    41    15    14    1
    42    94    95    1
    43    94    91    1
    44   111   110    1
    45   113   107   am
    46    13    12    2
    47    42    41    1
    48    14    11    1
    49    11    12    1
    50    11    10    1
    51   110   112    1
    52   110   109    1
    53    36    35    2
    54    92    91    1
    55    92    93    2
    56    91    90    1
    57    35    34    1
    58    37    34    1
    59    37    38    1
    60   108   107    2
    61    39    40    1
    62    39    38    1
    63   107   106    1
    64    90    86   am
    65    41    40    2
    66    41    43    1
    67   109   106    1
    68    34    33    1
    69   106   105    1
    70    88    89    1
    71    88    85    1
    72    68    67    1
    73    86    85    1
    74    86    87    2
    75    67    64    1
    76    58    56    1
    77    85    84    1
    78   105    99   am
    79    74    73    1
    80    64    63    1
    81    64    65    1
    82    63    61   am
    83    56    55    1
    84    84    77   am
    85    78    77    2
    86    99   100    2
    87    99    98    1
    88    69    65   am
    89    69    70    1
    90    73    70    1
    91    65    66    2
    92    77    76    1
    93    60    61    1
    94    60    59    1
    95    57    55    1
    96    55    52    1
    97    70    71    1
    98    61    62    2
    99    98    97    1
   100    98   101    1
   101    49    48    1
   102    76    79    1
   103    76    75    1
   104    52    51    1
   105    52    53    1
   106    79    80    1
   107    51    46   am
   108   101   102    1
   109    71    72    2
   110    54    53    2
   111   104   102    1
   112    48    45    1
   113    48    50    1
   114    46    45    1
   115    46    47    2
   116    80    81    1
   117    45    44    1
   118   102   103    1
   119    81    82    1
   120    82    83    1
