@<TRIPOS>MOLECULE
tmp/5ikhA00.pdb
 164 156 0 0 0
SMALL
GASTEIGER

@<TRIPOS>ATOM
      1  N        -13.8060   51.6020  -10.9290 N.3   252  ARG252     -0.1245
      2  CA       -12.5260   51.0110  -10.5630 C.3   252  ARG252      0.1563
      3  C        -11.4090   51.4760  -11.4930 C.2   252  ARG252      0.2260
      4  O        -11.6000   51.5910  -12.7050 O.2   252  ARG252     -0.2867
      5  CB       -12.6120   49.4830  -10.5880 C.3   252  ARG252      0.0307
      6  CG       -13.2500   48.8680   -9.3550 C.3   252  ARG252      0.0489
      7  CD       -13.5180   47.3860   -9.5620 C.3   252  ARG252      0.2205
      8  NE       -14.4620   47.1680  -10.6530 N.pl3 252  ARG252     -0.0865
      9  CZ       -14.9100   45.9750  -11.0370 C.cat 252  ARG252      0.5346
     10  NH1      -14.4910   44.8750  -10.4220 N.pl3 252  ARG252      0.1354
     11  NH2      -15.7730   45.8820  -12.0430 N.pl3 252  ARG252      0.1354
     12  N         -8.3850   49.9400  -12.5630 N.3   254  ARG254     -0.1245
     13  CA        -7.7100   48.6460  -12.5330 C.3   254  ARG254      0.1563
     14  C         -7.1880   48.1750  -13.8830 C.2   254  ARG254      0.2260
     15  O         -7.3450   47.0130  -14.2260 O.2   254  ARG254     -0.2867
     16  CB        -8.6700   47.5780  -12.0090 C.3   254  ARG254      0.0307
     17  CG        -9.3020   47.8870  -10.6760 C.3   254  ARG254      0.0489
     18  CD        -8.2850   47.7760   -9.5680 C.3   254  ARG254      0.2205
     19  NE        -8.9160   47.9430   -8.2650 N.pl3 254  ARG254     -0.0865
     20  CZ        -8.8350   49.0490   -7.5350 C.cat 254  ARG254      0.5346
     21  NH1       -8.1330   50.0850   -7.9730 N.pl3 254  ARG254      0.1354
     22  NH2       -9.4490   49.1130   -6.3610 N.pl3 254  ARG254      0.1354
     23  N         -4.5140   45.1710  -13.6620 N.3   257  GLU257     -0.1231
     24  CA        -5.1820   43.8930  -13.4490 C.3   257  GLU257      0.1699
     25  C         -5.9070   43.4000  -14.7110 C.2   257  GLU257      0.2592
     26  O         -5.8670   42.2080  -15.0240 O.2   257  GLU257     -0.2718
     27  CB        -6.1760   43.9930  -12.2840 C.3   257  GLU257      0.0402
     28  CG        -5.5270   44.1540  -10.9120 C.3   257  GLU257      0.1161
     29  CD        -4.9920   45.5650  -10.6590 C.2   257  GLU257      0.3649
     30  OE1       -5.2870   46.4760  -11.4650 O.co2 257  GLU257     -0.2457
     31  OE2       -4.2690   45.7530   -9.6510 O.co2 257  GLU257     -0.2457
     32  N         -6.5630   44.3050  -15.4390 N.am  258  CYS258     -0.1970
     33  CA        -7.2070   43.9130  -16.7000 C.3   258  CYS258      0.1712
     34  C         -6.1800   43.4080  -17.7140 C.2   258  CYS258      0.2296
     35  O         -6.4460   42.4610  -18.4540 O.2   258  CYS258     -0.2864
     36  CB        -7.9910   45.0760  -17.3100 C.3   258  CYS258      0.0983
     37  SG        -9.3870   45.6510  -16.2910 S.3   258  CYS258     -0.0798
     38  N         -4.9720   39.9830  -17.0400 N.3   261  TRP261     -0.1241
     39  CA        -5.9250   38.9800  -17.4770 C.3   261  TRP261      0.1605
     40  C         -5.6390   38.5620  -18.9140 C.2   261  TRP261      0.2264
     41  O         -5.6730   37.3740  -19.2370 O.2   261  TRP261     -0.2867
     42  CB        -7.3610   39.5010  -17.3530 C.3   261  TRP261      0.0550
     43  CG        -8.3350   38.4720  -16.8940 C.ar  261  TRP261      0.0003
     44  CD1       -9.2020   37.7470  -17.6740 C.ar  261  TRP261      0.0946
     45  CD2       -8.5570   38.0450  -15.5470 C.ar  261  TRP261      0.0152
     46  NE1       -9.9460   36.9010  -16.8910 N.ar  261  TRP261     -0.2442
     47  CE2       -9.5720   37.0630  -15.5800 C.ar  261  TRP261      0.0810
     48  CE3       -7.9910   38.3890  -14.3150 C.ar  261  TRP261      0.0012
     49  CZ2      -10.0340   36.4240  -14.4270 C.ar  261  TRP261      0.0191
     50  CZ3       -8.4520   37.7610  -13.1720 C.ar  261  TRP261      0.0001
     51  CH2       -9.4660   36.7870  -13.2350 C.ar  261  TRP261      0.0015
     52  N        -11.9870   44.5240  -21.5590 N.3   282  ILE282     -0.1245
     53  CA       -12.0780   44.1430  -20.1540 C.3   282  ILE282      0.1561
     54  C        -12.2260   45.3980  -19.2820 C.2   282  ILE282      0.2260
     55  O        -13.0900   45.4510  -18.4080 O.2   282  ILE282     -0.2867
     56  CB       -10.8580   43.3000  -19.7160 C.3   282  ILE282      0.0252
     57  CG1      -10.8140   41.9990  -20.5180 C.3   282  ILE282      0.0019
     58  CG2      -10.9190   42.9820  -18.2270 C.3   282  ILE282      0.0019
     59  CD1       -9.6450   41.0700  -20.1430 C.3   282  ILE282      0.0001
     60  N        -15.8080   46.9360  -19.8110 N.3   285  ILE285     -0.1231
     61  CA       -16.9420   46.1960  -19.2500 C.3   285  ILE285      0.1692
     62  C        -16.9360   46.3060  -17.7220 C.2   285  ILE285      0.2592
     63  O        -17.9950   46.2910  -17.0920 O.2   285  ILE285     -0.2718
     64  CB       -16.9900   44.6930  -19.7040 C.3   285  ILE285      0.0266
     65  CG1      -18.3770   44.0920  -19.4490 C.3   285  ILE285      0.0019
     66  CG2      -15.9290   43.8240  -19.0120 C.3   285  ILE285      0.0020
     67  CD1      -19.5300   44.7980  -20.1960 C.3   285  ILE285      0.0001
     68  N        -15.7690   46.4700  -17.1190 N.am  286  SER286     -0.1952
     69  CA       -15.7380   46.7050  -15.6790 C.3   286  SER286      0.1924
     70  C        -16.3680   48.0660  -15.3350 C.2   286  SER286      0.2314
     71  O        -16.9480   48.2330  -14.2580 O.2   286  SER286     -0.2863
     72  CB       -14.3040   46.6130  -15.1450 C.3   286  SER286      0.2116
     73  OG       -13.6910   47.8840  -15.1030 O.3   286  SER286     -0.2180
     74  N        -20.8190   36.8750  -16.2530 N.3   390  THR390     -0.1203
     75  CA       -19.4090   36.5850  -15.9150 C.3   390  THR390      0.1994
     76  C        -18.4480   37.3980  -16.7800 C.2   390  THR390      0.2619
     77  O        -17.2640   37.5240  -16.4520 O.2   390  THR390     -0.2717
     78  CB       -19.0280   35.0820  -16.1230 C.3   390  THR390      0.1784
     79  OG1      -19.1720   34.7450  -17.5130 O.3   390  THR390     -0.2211
     80  CG2      -19.8920   34.1410  -15.2780 C.3   390  THR390      0.0376
     81  N        -18.9850   37.9130  -17.8900 N.am  391  THR391     -0.1938
     82  CA       -18.2730   38.5730  -19.0010 C.3   391  THR391      0.2028
     83  C        -17.5770   37.5760  -19.9330 C.2   391  THR391      0.2642
     84  O        -17.0220   37.9690  -20.9580 O.2   391  THR391     -0.2714
     85  CB       -17.2090   39.6030  -18.5310 C.3   391  THR391      0.1808
     86  OG1      -16.0690   38.9110  -17.9920 O.3   391  THR391     -0.2208
     87  CG2      -17.7890   40.5520  -17.4940 C.3   391  THR391      0.0379
     88  N        -17.6310   36.2880  -19.6090 N.am  392  TYR392     -0.1973
     89  CA       -16.7770   35.3280  -20.3090 C.3   392  TYR392      0.1639
     90  C        -17.1950   35.0150  -21.7470 C.2   392  TYR392      0.2290
     91  O        -16.3480   34.6230  -22.5450 O.2   392  TYR392     -0.2864
     92  CB       -16.6630   34.0280  -19.5020 C.3   392  TYR392      0.0560
     93  CG       -15.4030   34.0260  -18.6650 C.ar  392  TYR392     -0.0198
     94  CD1      -14.8080   35.2250  -18.2800 C.ar  392  TYR392     -0.0009
     95  CD2      -14.7900   32.8410  -18.2850 C.ar  392  TYR392     -0.0009
     96  CE1      -13.6180   35.2400  -17.5170 C.ar  392  TYR392      0.0417
     97  CE2      -13.6010   32.8420  -17.5280 C.ar  392  TYR392      0.0417
     98  CZ       -13.0270   34.0320  -17.1500 C.ar  392  TYR392      0.1957
     99  OH       -11.8630   34.0110  -16.4110 O.3   392  TYR392     -0.2866
    100  N        -15.5430   38.1920  -23.4000 N.3   395  LEU395     -0.1245
    101  CA       -14.0760   38.0790  -23.4140 C.3   395  LEU395      0.1561
    102  C        -13.5800   37.0280  -24.3970 C.2   395  LEU395      0.2260
    103  O        -12.6190   37.2710  -25.1330 O.2   395  LEU395     -0.2867
    104  CB       -13.5310   37.7490  -22.0250 C.3   395  LEU395      0.0270
    105  CG       -13.8290   38.7460  -20.8960 C.3   395  LEU395      0.0019
    106  CD1      -12.7690   38.6310  -19.8230 C.3   395  LEU395      0.0001
    107  CD2      -13.9520   40.1750  -21.3960 C.3   395  LEU395      0.0001
    108  N        -16.2540   30.0570  -14.1500 N.3   428  CYS428     -0.1235
    109  CA       -16.1320   31.4330  -13.6790 C.3   428  CYS428      0.1677
    110  C        -17.3360   31.7980  -12.7920 C.2   428  CYS428      0.2270
    111  O        -17.1830   32.4080  -11.7280 O.2   428  CYS428     -0.2867
    112  CB       -16.0190   32.3890  -14.8640 C.3   428  CYS428      0.0956
    113  SG       -15.9180   34.1230  -14.4030 S.3   428  CYS428     -0.0801
    114  N         -9.3810   32.3180  -13.7070 N.3   504  ILE504     -0.1245
    115  CA       -10.3640   32.5490  -12.6650 C.3   504  ILE504      0.1561
    116  C        -10.0880   31.6060  -11.4890 C.2   504  ILE504      0.2260
    117  O        -10.2380   31.9960  -10.3380 O.2   504  ILE504     -0.2867
    118  CB       -11.8480   32.4120  -13.1950 C.3   504  ILE504      0.0252
    119  CG1      -12.8110   33.1320  -12.2620 C.3   504  ILE504      0.0019
    120  CG2      -12.2720   30.9770  -13.3750 C.3   504  ILE504      0.0019
    121  CD1      -12.6330   34.6210  -12.2640 C.3   504  ILE504      0.0001
    122  N         -7.1280   33.1770   -9.7080 N.3   507  THR507     -0.1203
    123  CA        -7.5000   34.4490   -9.0730 C.3   507  THR507      0.1994
    124  C         -8.3140   34.2580   -7.7920 C.2   507  THR507      0.2617
    125  O         -8.2800   35.0870   -6.8770 O.2   507  THR507     -0.2717
    126  CB        -8.2780   35.3180  -10.0790 C.3   507  THR507      0.1784
    127  OG1       -7.3990   35.6610  -11.1610 O.3   507  THR507     -0.2211
    128  CG2       -8.7760   36.5780   -9.4470 C.3   507  THR507      0.0376
    129  N         -9.0290   33.1440   -7.7080 N.am  508  TYR508     -0.1975
    130  CA        -9.8410   32.8740   -6.5280 C.3   508  TYR508      0.1639
    131  C         -9.3570   31.6390   -5.7850 C.2   508  TYR508      0.2290
    132  O        -10.1460   30.9300   -5.1570 O.2   508  TYR508     -0.2864
    133  CB       -11.3050   32.7030   -6.9180 C.3   508  TYR508      0.0560
    134  CG       -11.9840   33.9700   -7.3990 C.ar  508  TYR508     -0.0198
    135  CD1      -11.7300   34.4880   -8.6630 C.ar  508  TYR508     -0.0009
    136  CD2      -12.8980   34.6350   -6.5930 C.ar  508  TYR508     -0.0009
    137  CE1      -12.3590   35.6460   -9.0980 C.ar  508  TYR508      0.0417
    138  CE2      -13.5350   35.7880   -7.0250 C.ar  508  TYR508      0.0417
    139  CZ       -13.2630   36.2890   -8.2790 C.ar  508  TYR508      0.1957
    140  OH       -13.8940   37.4360   -8.7120 O.3   508  TYR508     -0.2866
    141  N         -9.7030   41.0130   -5.8720 N.3   518  PRO518     -0.2102
    142  CA        -8.7430   39.9530   -6.2460 C.3   518  PRO518      0.1504
    143  C         -7.3270   40.4450   -6.6080 C.2   518  PRO518      0.2575
    144  O         -6.4550   39.6370   -6.9620 O.2   518  PRO518     -0.2718
    145  CB        -9.4060   39.3110   -7.4620 C.3   518  PRO518      0.0282
    146  CG       -10.8530   39.5280   -7.2540 C.3   518  PRO518      0.0208
    147  CD       -10.9710   40.8830   -6.6130 C.3   518  PRO518      0.0893
    148  N         -7.1270   41.7590   -6.5250 N.am  519  GLU519     -0.1980
    149  CA        -5.8280   42.4200   -6.6480 C.3   519  GLU519      0.1602
    150  C         -4.7740   41.8490   -5.7120 C.2   519  GLU519      0.2287
    151  O         -3.6150   41.7210   -6.0880 O.2   519  GLU519     -0.2864
    152  CB        -5.9630   43.9220   -6.3600 C.3   519  GLU519      0.0415
    153  CG        -6.5570   44.7550   -7.4770 C.3   519  GLU519      0.1163
    154  CD        -8.0580   44.8760   -7.3680 C.2   519  GLU519      0.3649
    155  OE1       -8.5570   45.9920   -7.1070 O.co2 519  GLU519     -0.2457
    156  OE2       -8.7450   43.8470   -7.5240 O.co2 519  GLU519     -0.2457
    157  N         -3.6110   38.9180   -7.1670 N.3   522  LEU522     -0.1245
    158  CA        -2.9600   39.1650   -8.4500 C.3   522  LEU522      0.1561
    159  C         -1.6290   39.9010   -8.2880 C.2   522  LEU522      0.2260
    160  O         -0.7240   39.7230   -9.1000 O.2   522  LEU522     -0.2867
    161  CB        -3.8750   39.9660   -9.3710 C.3   522  LEU522      0.0270
    162  CG        -5.1490   39.3040   -9.8840 C.3   522  LEU522      0.0019
    163  CD1       -5.7910   40.2140  -10.9220 C.3   522  LEU522      0.0001
    164  CD2       -4.8580   37.9250  -10.4590 C.3   522  LEU522      0.0001
@<TRIPOS>BOND
     1   103   102    2
     2   102   101    1
     3   101   100    1
     4   101   104    1
     5    91    90    2
     6   104   105    1
     7    90    89    1
     8    52    53    1
     9   107   105    1
    10    84    83    2
    11   105   106    1
    12    57    59    1
    13    57    56    1
    14    89    88    1
    15    89    92    1
    16    67    65    1
    17    53    56    1
    18    53    54    1
    19    83    88   am
    20    83    82    1
    21    60    61    1
    22    56    58    1
    23    64    65    1
    24    64    61    1
    25    64    66    1
    26    92    93    1
    27    54    55    2
    28    61    62    1
    29    41    40    2
    30    82    85    1
    31    82    81    1
    32    40    39    1
    33    93    95   ar
    34    93    94   ar
    35    85    86    1
    36    85    87    1
    37    35    34    2
    38    95    97   ar
    39    94    96   ar
    40    81    76   am
    41    62    68   am
    42    62    63    2
    43    34    33    1
    44    44    43   ar
    45    44    46   ar
    46    97    98   ar
    47    96    98   ar
    48    79    78    1
    49    39    42    1
    50    39    38    1
    51    42    43    1
    52    36    33    1
    53    36    37    1
    54    98    99    1
    55    68    69    1
    56    43    45   ar
    57    46    47   ar
    58    76    77    2
    59    76    75    1
    60    33    32    1
    61    74    75    1
    62    78    75    1
    63    78    80    1
    64    69    70    1
    65    69    72    1
    66    47    45   ar
    67    47    49   ar
    68    45    48   ar
    69    32    25   am
    70    70    71    2
    71    72    73    1
    72    26    25    2
    73   112   113    1
    74   112   109    1
    75    25    24    1
    76    49    51   ar
    77    48    50   ar
    78    15    14    2
    79   108   109    1
    80    14    13    1
    81   114   115    1
    82   109   110    1
    83    23    24    1
    84    24    27    1
    85   120   118    1
    86    51    50   ar
    87   118   115    1
    88   118   119    1
    89   110   111    2
    90     4     3    2
    91   115   116    1
    92    12    13    1
    93    13    16    1
    94    27    28    1
    95   121   119    1
    96    11     9    1
    97    16    17    1
    98     3     2    1
    99   116   117    2
   100    30    29   ar
   101   127   126    1
   102     9     8    2
   103     9    10    1
   104     1     2    1
   105   163   162    1
   106    28    29    1
   107    17    18    1
   108    29    31   ar
   109     8     7    1
   110     5     2    1
   111     5     6    1
   112   164   162    1
   113   126   128    1
   114   126   123    1
   115   162   161    1
   116   122   123    1
   117    18    19    1
   118     7     6    1
   119   161   158    1
   120   160   159    2
   121   137   135   ar
   122   137   139   ar
   123   123   124    1
   124   140   139    1
   125   135   134   ar
   126   158   159    1
   127   158   157    1
   128   139   138   ar
   129    19    20    2
   130    21    20    1
   131   124   129   am
   132   124   125    2
   133   129   130    1
   134    20    22    1
   135   156   154   ar
   136   153   154    1
   137   153   152    1
   138   145   146    1
   139   145   142    1
   140   134   133    1
   141   134   136   ar
   142   154   155   ar
   143   146   147    1
   144   138   136   ar
   145   144   143    2
   146   133   130    1
   147   149   148    1
   148   149   152    1
   149   149   150    1
   150   147   141    1
   151   143   148   am
   152   143   142    1
   153   130   131    1
   154   142   141    1
   155   151   150    2
   156   131   132    2
