@<TRIPOS>MOLECULE
tmp/5ikiB01.pdb
 152 139 0 0 0
SMALL
GASTEIGER

@<TRIPOS>ATOM
      1  N        -20.9430    0.6040  -16.9910 N.3    68  ILE68      -0.1245
      2  CA       -19.9980    0.8260  -18.0880 C.3    68  ILE68       0.1561
      3  C        -20.4200    0.0570  -19.3360 C.2    68  ILE68       0.2260
      4  O        -20.7000   -1.1380  -19.2490 O.2    68  ILE68      -0.2867
      5  CB       -18.5680    0.3840  -17.6530 C.3    68  ILE68       0.0252
      6  CG1      -17.8760    1.4740  -16.8150 C.3    68  ILE68       0.0019
      7  CG2      -17.6920    0.0520  -18.8550 C.3    68  ILE68       0.0019
      8  CD1      -18.2940    1.5330  -15.3620 C.3    68  ILE68       0.0001
      9  N        -18.3500   -0.0550  -22.6590 N.3    70  VAL70      -0.1245
     10  CA       -17.1930    0.1920  -23.5140 C.3    70  VAL70       0.1561
     11  C        -16.9120   -1.1110  -24.2760 C.2    70  VAL70       0.2260
     12  O        -16.9050   -2.2060  -23.6870 O.2    70  VAL70      -0.2867
     13  CB       -15.9730    0.6570  -22.6690 C.3    70  VAL70       0.0252
     14  CG1      -14.6880    0.7230  -23.4940 C.3    70  VAL70       0.0019
     15  CG2      -16.2640    2.0110  -22.0260 C.3    70  VAL70       0.0019
     16  N        -14.2510   -7.1720  -25.2000 N.3    79  VAL79      -0.1245
     17  CA       -13.0570   -6.9560  -24.3790 C.3    79  VAL79       0.1561
     18  C        -12.4660   -8.3030  -24.0060 C.2    79  VAL79       0.2260
     19  O        -13.1210   -9.1060  -23.3550 O.2    79  VAL79      -0.2867
     20  CB       -13.3150   -6.1590  -23.0820 C.3    79  VAL79       0.0252
     21  CG1      -11.9980   -5.8910  -22.3610 C.3    79  VAL79       0.0019
     22  CG2      -14.0260   -4.8400  -23.3720 C.3    79  VAL79       0.0019
     23  N         -7.5990   -8.5790  -20.3500 N.3    83  ILE83      -0.1245
     24  CA        -7.5990   -7.1490  -19.9160 C.3    83  ILE83       0.1561
     25  C         -8.9470   -6.6350  -19.3640 C.2    83  ILE83       0.2260
     26  O         -9.1850   -5.4240  -19.3260 O.2    83  ILE83      -0.2867
     27  CB        -7.2200   -6.1650  -21.0290 C.3    83  ILE83       0.0252
     28  CG1       -8.2780   -6.2060  -22.1370 C.3    83  ILE83       0.0019
     29  CG2       -5.8180   -6.4400  -21.5290 C.3    83  ILE83       0.0019
     30  CD1       -8.2290   -5.0080  -23.0560 C.3    83  ILE83       0.0001
     31  N         -9.7590   -5.6610  -16.7390 N.3    85  ILE85      -0.1231
     32  CA        -9.0830   -5.1820  -15.5460 C.3    85  ILE85       0.1692
     33  C        -10.1060   -4.6520  -14.5540 C.2    85  ILE85       0.2593
     34  O        -10.1130   -5.0610  -13.3960 O.2    85  ILE85      -0.2718
     35  CB        -8.0740   -4.0630  -15.8900 C.3    85  ILE85       0.0266
     36  CG1       -6.9850   -4.5780  -16.8390 C.3    85  ILE85       0.0019
     37  CG2       -7.3910   -3.5420  -14.6330 C.3    85  ILE85       0.0020
     38  CD1       -6.1130   -3.4800  -17.3950 C.3    85  ILE85       0.0001
     39  N        -10.9750   -3.7560  -15.0190 N.am   86  THR86      -0.1939
     40  CA       -11.9660   -3.1160  -14.1380 C.3    86  THR86       0.2028
     41  C        -13.0010   -4.0750  -13.6040 C.2    86  THR86       0.2642
     42  O        -13.5450   -3.8160  -12.5530 O.2    86  THR86      -0.2714
     43  CB       -12.7740   -1.9870  -14.7970 C.3    86  THR86       0.1808
     44  OG1      -13.3710   -2.4630  -16.0090 O.3    86  THR86      -0.2208
     45  CG2      -11.8970   -0.7950  -15.0640 C.3    86  THR86       0.0379
     46  N        -13.2570   -5.1640  -14.3230 N.am   87  GLU87      -0.1976
     47  CA       -14.3420   -6.0940  -13.9840 C.3    87  GLU87       0.1602
     48  C        -13.7630   -7.3620  -13.3780 C.2    87  GLU87       0.2287
     49  O        -14.1700   -8.4720  -13.7100 O.2    87  GLU87      -0.2864
     50  CB       -15.2070   -6.4280  -15.2110 C.3    87  GLU87       0.0415
     51  CG       -15.4120   -5.2630  -16.1800 C.3    87  GLU87       0.1163
     52  CD       -14.3310   -5.2400  -17.2650 C.2    87  GLU87       0.3649
     53  OE1      -14.6580   -5.4540  -18.4500 O.co2  87  GLU87      -0.2457
     54  OE2      -13.1380   -5.0370  -16.9460 O.co2  87  GLU87      -0.2457
     55  N         -0.8600   -3.8280  -18.3280 N.3   100  LEU100     -0.1245
     56  CA        -0.9190   -2.4680  -18.8760 C.3   100  LEU100      0.1561
     57  C          0.0510   -1.5640  -18.1830 C.2   100  LEU100      0.2260
     58  O          0.6680   -0.7110  -18.8140 O.2   100  LEU100     -0.2867
     59  CB        -2.2850   -1.8490  -18.6650 C.3   100  LEU100      0.0270
     60  CG        -3.4940   -2.4190  -19.3580 C.3   100  LEU100      0.0019
     61  CD1       -3.7770   -1.5710  -20.5640 C.3   100  LEU100      0.0001
     62  CD2       -3.3130   -3.8730  -19.7470 C.3   100  LEU100      0.0001
     63  N        -16.8820    4.2100  -27.2060 N.3   170  PHE170     -0.1241
     64  CA       -17.0380    4.6080  -25.7950 C.3   170  PHE170      0.1605
     65  C        -18.4400    5.2100  -25.5170 C.2   170  PHE170      0.2264
     66  O        -18.6890    5.7430  -24.4350 O.2   170  PHE170     -0.2867
     67  CB       -15.8710    5.5390  -25.3510 C.3   170  PHE170      0.0534
     68  CG       -14.6220    4.7860  -24.9100 C.ar  170  PHE170     -0.0203
     69  CD1      -13.8920    4.0300  -25.8240 C.ar  170  PHE170     -0.0042
     70  CD2      -14.1840    4.8150  -23.5830 C.ar  170  PHE170     -0.0042
     71  CE1      -12.7540    3.3230  -25.4380 C.ar  170  PHE170     -0.0003
     72  CE2      -13.0410    4.1060  -23.1910 C.ar  170  PHE170     -0.0003
     73  CZ       -12.3310    3.3560  -24.1220 C.ar  170  PHE170     -0.0000
     74  N         -9.1720   -0.5140  -27.0390 N.3   228  LEU228     -0.1231
     75  CA        -9.7410    0.0300  -25.8070 C.3   228  LEU228      0.1693
     76  C         -8.7990    0.9290  -25.0180 C.2   228  LEU228      0.2591
     77  O         -9.2320    1.9180  -24.4670 O.2   228  LEU228     -0.2718
     78  CB       -10.1940   -1.1110  -24.9340 C.3   228  LEU228      0.0284
     79  CG       -11.2710   -1.9640  -25.5900 C.3   228  LEU228      0.0019
     80  CD1      -11.1680   -3.3870  -25.0730 C.3   228  LEU228      0.0001
     81  CD2      -12.6690   -1.4200  -25.3560 C.3   228  LEU228      0.0001
     82  N         -7.5190    0.5710  -24.9600 N.am  229  ILE229     -0.1980
     83  CA        -6.5130    1.3490  -24.2320 C.3   229  ILE229      0.1595
     84  C         -6.3490    2.7080  -24.8250 C.2   229  ILE229      0.2287
     85  O         -6.3610    3.7040  -24.1350 O.2   229  ILE229     -0.2864
     86  CB        -5.1320    0.6490  -24.2330 C.3   229  ILE229      0.0276
     87  CG1       -5.2110   -0.6130  -23.3870 C.3   229  ILE229      0.0022
     88  CG2       -4.0280    1.6150  -23.7800 C.3   229  ILE229      0.0022
     89  CD1       -6.3710   -0.6350  -22.3840 C.3   229  ILE229      0.0001
     90  N         -9.1770    4.6430  -24.2070 N.3   232  ALA232     -0.1245
     91  CA        -9.2810    5.0920  -22.8210 C.3   232  ALA232      0.1562
     92  C         -8.3970    6.2940  -22.5310 C.2   232  ALA232      0.2260
     93  O         -8.6980    7.1370  -21.6800 O.2   232  ALA232     -0.2867
     94  CB        -8.9520    3.9440  -21.8770 C.3   232  ALA232      0.0290
     95  N        -12.0220   10.7620  -21.7460 N.3   236  THR236     -0.1218
     96  CA       -11.9160   11.3190  -20.3900 C.3   236  THR236      0.1862
     97  C        -10.9480   12.5130  -20.3470 C.2   236  THR236      0.2287
     98  O        -11.2570   13.5610  -19.7600 O.2   236  THR236     -0.2866
     99  CB       -11.4650   10.2570  -19.3630 C.3   236  THR236      0.1770
    100  OG1      -10.3900    9.5050  -19.9060 O.3   236  THR236     -0.2211
    101  CG2      -12.5930    9.3270  -18.9990 C.3   236  THR236      0.0375
    102  N        -19.4240   11.8990  -12.8160 N.3   281  ILE281     -0.1231
    103  CA       -18.7990   10.5860  -12.8600 C.3   281  ILE281      0.1692
    104  C        -19.2750    9.6920  -11.6990 C.2   281  ILE281      0.2592
    105  O        -19.4250   10.1320  -10.5620 O.2   281  ILE281     -0.2718
    106  CB       -17.2580   10.7490  -12.8850 C.3   281  ILE281      0.0266
    107  CG1      -16.5730    9.4260  -13.2170 C.3   281  ILE281      0.0019
    108  CG2      -16.7590   11.3160  -11.5690 C.3   281  ILE281      0.0020
    109  CD1      -15.1010    9.5650  -13.5830 C.3   281  ILE281      0.0001
    110  N        -19.5230    8.4350  -12.0080 N.am  282  LYS282     -0.1966
    111  CA       -19.9780    7.4580  -11.0190 C.3   282  LYS282      0.1728
    112  C        -19.3810    6.1050  -11.3370 C.2   282  LYS282      0.2616
    113  O        -18.8720    5.8770  -12.4370 O.2   282  LYS282     -0.2715
    114  CB       -21.4830    7.3150  -11.0860 C.3   282  LYS282      0.0311
    115  CG       -21.9290    6.8160  -12.4580 C.3   282  LYS282      0.0038
    116  CD       -23.3670    6.3080  -12.4470 C.3   282  LYS282      0.0206
    117  CE       -23.7270    5.5460  -13.7030 C.3   282  LYS282      0.1093
    118  NZ       -25.1620    5.1570  -13.8060 N.3   282  LYS282     -0.1314
    119  N        -19.4490    5.2060  -10.3710 N.am  283  LEU283     -0.1977
    120  CA       -19.0540    3.8500  -10.6070 C.3   283  LEU283      0.1596
    121  C        -20.0240    2.9450   -9.9540 C.2   283  LEU283      0.2287
    122  O        -20.7010    3.3150   -9.0160 O.2   283  LEU283     -0.2864
    123  CB       -17.6580    3.5780  -10.0070 C.3   283  LEU283      0.0297
    124  CG       -16.5320    4.3910  -10.6310 C.3   283  LEU283      0.0022
    125  CD1      -15.2940    4.3300   -9.7390 C.3   283  LEU283      0.0001
    126  CD2      -16.2330    3.8880  -12.0280 C.3   283  LEU283      0.0001
    127  N        -18.6840    9.9410   -7.4400 N.3   308  MET308     -0.1245
    128  CA       -17.4120   10.5650   -7.0840 C.3   308  MET308      0.1570
    129  C        -17.4130   12.0620   -7.2600 C.2   308  MET308      0.2261
    130  O        -16.7580   12.7870   -6.5140 O.2   308  MET308     -0.2867
    131  CB       -16.2490    9.9470   -7.8370 C.3   308  MET308      0.0387
    132  CG       -16.0220    8.4910   -7.4720 C.3   308  MET308      0.0595
    133  SD       -16.5730    7.4750   -8.8460 S.3   308  MET308     -0.1393
    134  CE       -15.2290    7.7450  -10.0340 C.3   308  MET308      0.0692
    135  N         -7.2820    4.8020  -11.3830 N.3   344  CYS344     -0.1235
    136  CA        -6.9150    4.9920  -12.7930 C.3   344  CYS344      0.1677
    137  C         -5.4320    4.8290  -13.0910 C.2   344  CYS344      0.2270
    138  O         -4.5950    5.5370  -12.5590 O.2   344  CYS344     -0.2867
    139  CB        -7.3160    6.3640  -13.2950 C.3   344  CYS344      0.0956
    140  SG        -7.0910    6.5190  -15.0780 S.3   344  CYS344     -0.0801
    141  N        -20.0400    8.6990  -21.3920 N.3   384  ALA384     -0.1231
    142  CA       -19.9920    7.7730  -20.2570 C.3   384  ALA384      0.1694
    143  C        -19.8680    8.5290  -18.9180 C.2   384  ALA384      0.2592
    144  O        -20.2810    8.0110  -17.8680 O.2   384  ALA384     -0.2718
    145  CB       -18.8330    6.8010  -20.4270 C.3   384  ALA384      0.0304
    146  N        -19.2980    9.7430  -18.9770 N.am  385  THR385     -0.1953
    147  CA       -19.1520   10.6380  -17.8090 C.3   385  THR385      0.1897
    148  C        -20.0990   11.8620  -17.8910 C.2   385  THR385      0.2313
    149  O        -19.6970   13.0070  -17.6590 O.2   385  THR385     -0.2863
    150  CB       -17.6930   11.1140  -17.6740 C.3   385  THR385      0.1794
    151  OG1      -17.3500   11.9300  -18.8020 O.3   385  THR385     -0.2208
    152  CG2      -16.7340    9.9190  -17.6030 C.3   385  THR385      0.0378
@<TRIPOS>BOND
     1    63    64    1
     2    74    75    1
     3    69    71   ar
     4    69    68   ar
     5    75    76    1
     6    75    78    1
     7    64    65    1
     8    64    67    1
     9    79    81    1
    10    79    80    1
    11    79    78    1
    12    65    66    2
    13    71    73   ar
    14    67    68    1
    15    16    17    1
    16    76    82   am
    17    76    77    2
    18    82    83    1
    19    68    70   ar
    20    84    83    1
    21    84    85    2
    22    17    18    1
    23    17    20    1
    24    11    12    2
    25    11    10    1
    26    86    83    1
    27    86    88    1
    28    86    87    1
    29    90    91    1
    30    73    72   ar
    31    18    19    2
    32    70    72   ar
    33    10    13    1
    34    10     9    1
    35    14    13    1
    36    87    89    1
    37    22    20    1
    38    20    21    1
    39    30    28    1
    40    91    92    1
    41    91    94    1
    42    13    15    1
    43    92    93    2
    44    28    27    1
    45    95    96    1
    46    29    27    1
    47   141   142    1
    48    27    24    1
    49    61    60    1
    50   145   142    1
    51    96    97    1
    52    96    99    1
    53    23    24    1
    54    97    98    2
    55   142   143    1
    56    24    25    1
    57   100    99    1
    58    62    60    1
    59    25    26    2
    60    99   101    1
    61    60    59    1
    62     3     4    2
    63     3     2    1
    64   146   143   am
    65   146   147    1
    66   143   144    2
    67    56    59    1
    68    56    55    1
    69    56    57    1
    70     7     5    1
    71    58    57    2
    72   151   150    1
    73    53    52   ar
    74     2     5    1
    75     2     1    1
    76   148   147    1
    77   148   149    2
    78   147   150    1
    79   150   152    1
    80     5     6    1
    81    38    36    1
    82    52    54   ar
    83    52    51    1
    84    36    35    1
    85     6     8    1
    86    31    32    1
    87    51    50    1
    88    44    43    1
    89    35    32    1
    90    35    37    1
    91    32    33    1
    92    50    47    1
    93   140   139    1
    94    45    43    1
    95    39    33   am
    96    39    40    1
    97    43    40    1
    98    33    34    2
    99    46    47    1
   100    46    41   am
   101    40    41    1
   102    47    48    1
   103   118   117    1
   104    49    48    2
   105   117   116    1
   106    41    42    2
   107   109   107    1
   108   139   136    1
   109   107   106    1
   110   137   136    1
   111   137   138    2
   112   106   103    1
   113   106   108    1
   114   103   102    1
   115   103   104    1
   116   136   135    1
   117   115   116    1
   118   115   114    1
   119   113   112    2
   120   126   124    1
   121   110   104   am
   122   110   111    1
   123   104   105    2
   124   112   111    1
   125   112   119   am
   126   114   111    1
   127   124   123    1
   128   124   125    1
   129   120   119    1
   130   120   123    1
   131   120   121    1
   132   134   133    1
   133   121   122    2
   134   133   132    1
   135   131   132    1
   136   131   128    1
   137   127   128    1
   138   129   128    1
   139   129   130    2
