@<TRIPOS>MOLECULE
tmp/5ikoA01.pdb
 137 130 0 0 0
SMALL
GASTEIGER

@<TRIPOS>ATOM
      1  N         30.8210  266.9980  134.2000 N.3    47  TRP47      -0.1227
      2  CA        31.9290  266.0740  133.9310 C.3    47  TRP47       0.1737
      3  C         32.9160  266.6670  132.9060 C.2    47  TRP47       0.2595
      4  O         34.1150  266.6760  133.1280 O.2    47  TRP47      -0.2718
      5  CB        31.3580  264.7240  133.4490 C.3    47  TRP47       0.0564
      6  CG        32.2540  263.5080  133.6210 C.ar   47  TRP47       0.0003
      7  CD1       33.3870  263.4060  134.3940 C.ar   47  TRP47       0.0946
      8  CD2       32.0290  262.2100  133.0710 C.ar   47  TRP47       0.0152
      9  NE1       33.8990  262.1300  134.3080 N.ar   47  TRP47      -0.2442
     10  CE2       33.0700  261.3770  133.5140 C.ar   47  TRP47       0.0810
     11  CE3       31.0680  261.6780  132.2050 C.ar   47  TRP47       0.0012
     12  CZ2       33.1800  260.0450  133.1110 C.ar   47  TRP47       0.0191
     13  CZ3       31.1750  260.3320  131.8250 C.ar   47  TRP47       0.0001
     14  CH2       32.2180  259.5390  132.2870 C.ar   47  TRP47       0.0015
     15  N         32.3910  267.1890  131.8050 N.am   48  ILE48      -0.1980
     16  CA        33.1890  267.8540  130.7790 C.3    48  ILE48       0.1595
     17  C         33.8940  269.1000  131.3690 C.2    48  ILE48       0.2287
     18  O         35.1230  269.2280  131.2340 O.2    48  ILE48      -0.2864
     19  CB        32.3100  268.1470  129.5340 C.3    48  ILE48       0.0276
     20  CG1       31.9970  266.8170  128.8480 C.3    48  ILE48       0.0022
     21  CG2       32.9510  269.1750  128.5740 C.3    48  ILE48       0.0022
     22  CD1       30.7790  266.8750  127.9470 C.3    48  ILE48       0.0001
     23  N         36.7830  268.2260  133.8220 N.3    51  GLN51      -0.1231
     24  CA        37.9900  267.8030  133.1210 C.3    51  GLN51       0.1698
     25  C         38.6530  268.9910  132.3610 C.2    51  GLN51       0.2592
     26  O         39.8710  269.0670  132.2840 O.2    51  GLN51      -0.2718
     27  CB        37.7240  266.6010  132.1910 C.3    51  GLN51       0.0381
     28  CG        37.1960  265.3210  132.8510 C.3    51  GLN51       0.0905
     29  CD        38.0200  264.7510  134.0090 C.2    51  GLN51       0.2608
     30  OE1       39.2200  264.5210  133.8360 O.2    51  GLN51      -0.2717
     31  NE2       37.3610  264.4590  135.1940 N.am   51  GLN51      -0.0878
     32  N         37.8570  269.9360  131.8670 N.am   52  GLN52      -0.1979
     33  CA        38.3700  271.1840  131.2310 C.3    52  GLN52       0.1601
     34  C         39.0760  272.0430  132.2570 C.2    52  GLN52       0.2287
     35  O         40.1140  272.6290  131.9640 O.2    52  GLN52      -0.2864
     36  CB        37.2220  272.0120  130.6010 C.3    52  GLN52       0.0394
     37  CG        36.6620  271.3990  129.3340 C.3    52  GLN52       0.0908
     38  CD        35.3960  272.0340  128.8370 C.2    52  GLN52       0.2608
     39  OE1       34.6450  272.6790  129.5980 O.2    52  GLN52      -0.2717
     40  NE2       35.1040  271.7960  127.5490 N.am   52  GLN52      -0.0878
     41  N         42.5150  270.5360  133.3570 N.3    55  TYR55      -0.1241
     42  CA        43.4740  270.6900  132.2660 C.3    55  TYR55       0.1605
     43  C         44.0240  272.1270  132.2510 C.2    55  TYR55       0.2264
     44  O         45.2190  272.3320  132.0680 O.2    55  TYR55      -0.2867
     45  CB        42.8150  270.3380  130.9250 C.3    55  TYR55       0.0534
     46  CG        43.7150  270.3860  129.6970 C.ar   55  TYR55      -0.0201
     47  CD1       44.7970  269.4960  129.5620 C.ar   55  TYR55      -0.0009
     48  CD2       43.4640  271.3050  128.6480 C.ar   55  TYR55      -0.0009
     49  CE1       45.6150  269.5230  128.4420 C.ar   55  TYR55       0.0417
     50  CE2       44.2730  271.3390  127.5110 C.ar   55  TYR55       0.0417
     51  CZ        45.3530  270.4450  127.4190 C.ar   55  TYR55       0.1957
     52  OH        46.1770  270.4530  126.3150 O.3    55  TYR55      -0.2866
     53  N         35.9480  253.9580  126.1670 N.3   173  ARG173     -0.1245
     54  CA        36.9610  254.8250  125.5230 C.3   173  ARG173      0.1563
     55  C         37.9000  253.9340  124.7400 C.2   173  ARG173      0.2260
     56  O         39.0710  253.8770  125.0690 O.2   173  ARG173     -0.2867
     57  CB        37.7730  255.6130  126.5810 C.3   173  ARG173      0.0307
     58  CG        36.9730  256.5420  127.5140 C.3   173  ARG173      0.0489
     59  CD        36.2420  257.5990  126.7140 C.3   173  ARG173      0.2205
     60  NE        35.7630  258.7130  127.5190 N.pl3 173  ARG173     -0.0865
     61  CZ        34.9370  259.6620  127.0760 C.cat 173  ARG173      0.5346
     62  NH1       34.4890  259.6810  125.8160 N.pl3 173  ARG173      0.1354
     63  NH2       34.5490  260.5980  127.9020 N.pl3 173  ARG173      0.1354
     64  N         41.4020  255.2870  123.9170 N.3   176  TYR176     -0.1241
     65  CA        42.4320  255.4710  124.9710 C.3   176  TYR176      0.1605
     66  C         42.9760  254.1430  125.5050 C.2   176  TYR176      0.2264
     67  O         43.5380  254.1000  126.5880 O.2   176  TYR176     -0.2867
     68  CB        41.9360  256.4000  126.1010 C.3   176  TYR176      0.0534
     69  CG        41.3670  257.7580  125.5930 C.ar  176  TYR176     -0.0201
     70  CD1       41.9580  258.4550  124.5270 C.ar  176  TYR176     -0.0009
     71  CD2       40.2470  258.3300  126.1930 C.ar  176  TYR176     -0.0009
     72  CE1       41.4280  259.6480  124.0610 C.ar  176  TYR176      0.0417
     73  CE2       39.7200  259.5240  125.7550 C.ar  176  TYR176      0.0417
     74  CZ        40.3060  260.1850  124.6870 C.ar  176  TYR176      0.1957
     75  OH        39.7630  261.3830  124.2690 O.3   176  TYR176     -0.2866
     76  N         34.8730  254.7380  131.4370 N.3   207  ASP207     -0.1239
     77  CA        34.8490  255.8100  132.4500 C.3   207  ASP207      0.1674
     78  C         33.4900  255.9480  133.0510 C.2   207  ASP207      0.2266
     79  O         32.4720  255.9610  132.3440 O.2   207  ASP207     -0.2867
     80  CB        35.2730  257.1920  131.8350 C.3   207  ASP207      0.1410
     81  CG        36.6980  257.1840  131.2960 C.2   207  ASP207      0.3668
     82  OD1       37.4670  256.2560  131.6570 O.co2 207  ASP207     -0.2456
     83  OD2       37.0410  258.0810  130.4820 O.co2 207  ASP207     -0.2456
     84  N         36.1280  261.0060  137.7970 N.3   220  THR220     -0.1218
     85  CA        36.1620  259.8310  136.9630 C.3   220  THR220      0.1862
     86  C         36.6320  258.5910  137.7190 C.2   220  THR220      0.2287
     87  O         37.6320  258.6390  138.4190 O.2   220  THR220     -0.2866
     88  CB        37.0640  260.0640  135.7290 C.3   220  THR220      0.1770
     89  OG1       36.5150  261.1250  134.9500 O.3   220  THR220     -0.2211
     90  CG2       37.1320  258.8460  134.8040 C.3   220  THR220      0.0375
     91  N         37.9620  255.0760  136.3350 N.3   222  ARG222     -0.1245
     92  CA        38.4140  254.4830  135.0870 C.3   222  ARG222      0.1563
     93  C         38.7330  253.0010  135.3050 C.2   222  ARG222      0.2260
     94  O         39.6660  252.6560  135.9940 O.2   222  ARG222     -0.2867
     95  CB        39.6110  255.2680  134.4870 C.3   222  ARG222      0.0307
     96  CG        40.0540  254.6730  133.1760 C.3   222  ARG222      0.0489
     97  CD        40.9670  255.5550  132.3960 C.3   222  ARG222      0.2205
     98  NE        40.1860  256.4500  131.5720 N.pl3 222  ARG222     -0.0865
     99  CZ        40.7030  257.3030  130.7020 C.cat 222  ARG222      0.5346
    100  NH1       42.0220  257.3990  130.5420 N.pl3 222  ARG222      0.1354
    101  NH2       39.8950  258.0600  130.0040 N.pl3 222  ARG222      0.1354
    102  N         48.6440  255.4110  131.6740 N.3   280  ASP280     -0.1239
    103  CA        47.6200  256.4790  131.6060 C.3   280  ASP280      0.1674
    104  C         47.9580  257.7820  132.4120 C.2   280  ASP280      0.2266
    105  O         47.7270  258.8720  131.9270 O.2   280  ASP280     -0.2867
    106  CB        46.2930  255.9260  132.0370 C.3   280  ASP280      0.1410
    107  CG        45.1440  256.5600  131.3200 C.2   280  ASP280      0.3668
    108  OD1       45.1420  256.5250  130.1090 O.co2 280  ASP280     -0.2456
    109  OD2       44.2110  257.0500  131.9510 O.co2 280  ASP280     -0.2456
    110  N         50.9420  259.4710  130.5220 N.3   283  ARG283     -0.1231
    111  CA        50.3950  260.0700  129.3200 C.3   283  ARG283      0.1694
    112  C         49.6550  261.3750  129.6520 C.2   283  ARG283      0.2591
    113  O         49.8470  262.3530  128.9530 O.2   283  ARG283     -0.2718
    114  CB        49.5120  259.0750  128.5480 C.3   283  ARG283      0.0321
    115  CG        48.8280  259.6240  127.3010 C.3   283  ARG283      0.0489
    116  CD        48.0480  258.5900  126.5000 C.3   283  ARG283      0.2205
    117  NE        47.0390  257.8070  127.2460 N.pl3 283  ARG283     -0.0865
    118  CZ        46.2700  256.8550  126.6870 C.cat 283  ARG283      0.5346
    119  NH1       46.3600  256.5800  125.3790 N.pl3 283  ARG283      0.1354
    120  NH2       45.3940  256.1700  127.4200 N.pl3 283  ARG283      0.1354
    121  N         48.8650  261.3770  130.7280 N.am  284  ARG284     -0.1980
    122  CA        48.1620  262.5580  131.2170 C.3   284  ARG284      0.1597
    123  C         49.1470  263.6250  131.6660 C.2   284  ARG284      0.2287
    124  O         48.9560  264.7820  131.3270 O.2   284  ARG284     -0.2864
    125  CB        47.1580  262.2350  132.3650 C.3   284  ARG284      0.0334
    126  CG        46.1690  263.3880  132.6920 C.3   284  ARG284      0.0492
    127  CD        45.1210  263.0480  133.7650 C.3   284  ARG284      0.2205
    128  NE        44.1620  262.0790  133.2400 N.pl3 284  ARG284     -0.0865
    129  CZ        44.2300  260.7590  133.3920 C.cat 284  ARG284      0.5346
    130  NH1       45.1350  260.1780  134.1680 N.pl3 284  ARG284      0.1354
    131  NH2       43.3550  260.0230  132.7780 N.pl3 284  ARG284      0.1354
    132  N         50.9700  265.1300  128.5840 N.3   287  SER287     -0.1217
    133  CA        50.0080  265.7660  127.6820 C.3   287  SER287      0.1889
    134  C         49.3290  267.0080  128.3030 C.2   287  SER287      0.2288
    135  O         48.3630  267.5360  127.7330 O.2   287  SER287     -0.2866
    136  CB        48.9560  264.7490  127.2180 C.3   287  SER287      0.2089
    137  OG        49.6100  263.6960  126.5200 O.3   287  SER287     -0.2183
@<TRIPOS>BOND
     1    64    65    1
     2    72    70   ar
     3    72    74   ar
     4    75    74    1
     5    70    69   ar
     6    74    73   ar
     7    55    56    2
     8    55    54    1
     9    65    66    1
    10    65    68    1
    11   119   118    1
    12    66    67    2
    13    54    53    1
    14    54    57    1
    15    69    68    1
    16    69    71   ar
    17    73    71   ar
    18    62    61    1
    19    52    51    1
    20   116   117    1
    21   116   115    1
    22   137   136    1
    23    57    58    1
    24   118   117    2
    25   118   120    1
    26    59    58    1
    27    59    60    1
    28    61    60    2
    29    61    63    1
    30   136   133    1
    31   115   114    1
    32    51    50   ar
    33    51    49   ar
    34    50    48   ar
    35    40    38   am
    36   133   134    1
    37   133   132    1
    38   135   134    2
    39    22    20    1
    40    49    47   ar
    41   114   111    1
    42    21    19    1
    43    48    46   ar
    44    38    37    1
    45    38    39    2
    46    20    19    1
    47   113   112    2
    48   111   112    1
    49   111   110    1
    50    37    36    1
    51    19    16    1
    52    47    46   ar
    53   112   121   am
    54    46    45    1
    55   101    99    1
    56   108   107   ar
    57    83    81   ar
    58   100    99    1
    59    36    33    1
    60    99    98    2
    61   121   122    1
    62    16    17    1
    63    16    15    1
    64    45    42    1
    65   122   123    1
    66   122   125    1
    67    33    32    1
    68    33    34    1
    69    18    17    2
    70    81    82   ar
    71    81    80    1
    72   107   109   ar
    73   107   106    1
    74   124   123    2
    75    76    77    1
    76    98    97    1
    77   103   102    1
    78   103   106    1
    79   103   104    1
    80    15     3   am
    81    13    11   ar
    82    13    14   ar
    83    80    77    1
    84    32    25   am
    85   105   104    2
    86    35    34    2
    87    44    43    2
    88    27    28    1
    89    27    24    1
    90    11     8   ar
    91    43    42    1
    92    42    41    1
    93    26    25    2
    94    14    12   ar
    95    79    78    2
    96    25    24    1
    97   125   126    1
    98    97    96    1
    99    77    78    1
   100   126   127    1
   101   131   129    1
   102    28    29    1
   103     3     4    2
   104     3     2    1
   105     8    10   ar
   106     8     6   ar
   107    12    10   ar
   108    24    23    1
   109    96    95    1
   110   128   129    2
   111   128   127    1
   112   129   130    1
   113     5     6    1
   114     5     2    1
   115    10     9   ar
   116     6     7   ar
   117    30    29    2
   118     2     1    1
   119    29    31   am
   120     9     7   ar
   121    95    92    1
   122    90    88    1
   123    89    88    1
   124    92    93    1
   125    92    91    1
   126    93    94    2
   127    88    85    1
   128    85    86    1
   129    85    84    1
   130    86    87    2
