@<TRIPOS>MOLECULE
tmp/5ikqA01.pdb
 183 176 0 0 0
SMALL
GASTEIGER

@<TRIPOS>ATOM
      1  N         14.8160   59.3090   24.1820 N.3    84  VAL84      -0.1245
      2  CA        15.5530   58.2730   23.4640 C.3    84  VAL84       0.1561
      3  C         15.9650   57.1300   24.3880 C.2    84  VAL84       0.2260
      4  O         15.8590   55.9580   24.0270 O.2    84  VAL84      -0.2867
      5  CB        16.8140   58.8630   22.7860 C.3    84  VAL84       0.0252
      6  CG1       17.7160   57.7630   22.2290 C.3    84  VAL84       0.0019
      7  CG2       16.4100   59.8390   21.6870 C.3    84  VAL84       0.0019
      8  N         12.9330   53.0140   25.1360 N.3    88  ARG88      -0.1245
      9  CA        13.3960   51.7150   24.6550 C.3    88  ARG88       0.1563
     10  C         13.6570   50.7410   25.7980 C.2    88  ARG88       0.2260
     11  O         13.5740   49.5260   25.6150 O.2    88  ARG88      -0.2867
     12  CB        14.6700   51.8890   23.8250 C.3    88  ARG88       0.0307
     13  CG        14.5110   52.8310   22.6440 C.3    88  ARG88       0.0489
     14  CD        15.7820   52.9010   21.8130 C.3    88  ARG88       0.2205
     15  NE        15.6210   53.7380   20.6250 N.pl3  88  ARG88      -0.0865
     16  CZ        15.0970   53.3170   19.4770 C.cat  88  ARG88       0.5346
     17  NH1       14.6690   52.0670   19.3530 N.pl3  88  ARG88       0.1354
     18  NH2       14.9980   54.1490   18.4500 N.pl3  88  ARG88       0.1354
     19  N         35.3560   47.2480   19.8720 N.3   173  PHE173     -0.1241
     20  CA        34.4900   47.5860   20.9920 C.3   173  PHE173      0.1605
     21  C         33.5810   46.4230   21.4070 C.2   173  PHE173      0.2264
     22  O         33.5480   46.0490   22.5790 O.2   173  PHE173     -0.2867
     23  CB        33.6460   48.8160   20.6380 C.3   173  PHE173      0.0534
     24  CG        32.5320   49.0940   21.6070 C.ar  173  PHE173     -0.0203
     25  CD1       32.8070   49.4800   22.9100 C.ar  173  PHE173     -0.0042
     26  CD2       31.2060   48.9860   21.2070 C.ar  173  PHE173     -0.0042
     27  CE1       31.7820   49.7420   23.8030 C.ar  173  PHE173     -0.0003
     28  CE2       30.1730   49.2450   22.0940 C.ar  173  PHE173     -0.0003
     29  CZ        30.4590   49.6240   23.3940 C.ar  173  PHE173     -0.0000
     30  N         31.2490   56.0800   22.2600 N.3   312  VAL312     -0.1245
     31  CA        30.3050   55.1940   21.6000 C.3   312  VAL312      0.1561
     32  C         28.9680   55.9010   21.3770 C.2   312  VAL312      0.2260
     33  O         28.3800   55.7950   20.3060 O.2   312  VAL312     -0.2867
     34  CB        30.0950   53.8900   22.4060 C.3   312  VAL312      0.0252
     35  CG1       28.8920   53.0980   21.8880 C.3   312  VAL312      0.0019
     36  CG2       31.3500   53.0220   22.3310 C.3   312  VAL312      0.0019
     37  N         30.0580   57.2120   17.7580 N.3   316  TYR316     -0.1227
     38  CA        29.7670   55.9440   17.0890 C.3   316  TYR316      0.1736
     39  C         28.2780   55.7920   16.7810 C.2   316  TYR316      0.2595
     40  O         27.8920   55.6920   15.6170 O.2   316  TYR316     -0.2718
     41  CB        30.2640   54.7810   17.9530 C.3   316  TYR316      0.0548
     42  CG        29.9900   53.3910   17.4270 C.ar  316  TYR316     -0.0200
     43  CD1       30.8780   52.7680   16.5620 C.ar  316  TYR316     -0.0009
     44  CD2       28.8650   52.6850   17.8300 C.ar  316  TYR316     -0.0009
     45  CE1       30.6410   51.4870   16.0950 C.ar  316  TYR316      0.0417
     46  CE2       28.6190   51.4060   17.3700 C.ar  316  TYR316      0.0417
     47  CZ        29.5110   50.8090   16.5030 C.ar  316  TYR316      0.1957
     48  OH        29.2770   49.5320   16.0380 O.3   316  TYR316     -0.2866
     49  N         27.4420   55.7840   17.8160 N.am  317  VAL317     -0.1980
     50  CA        26.0010   55.6690   17.6160 C.3   317  VAL317      0.1595
     51  C         25.4830   56.8870   16.8590 C.2   317  VAL317      0.2287
     52  O         24.5520   56.7790   16.0560 O.2   317  VAL317     -0.2864
     53  CB        25.2440   55.5270   18.9530 C.3   317  VAL317      0.0276
     54  CG1       23.7330   55.5140   18.7250 C.3   317  VAL317      0.0022
     55  CG2       25.6710   54.2550   19.6680 C.3   317  VAL317      0.0022
     56  N         26.0710   56.2070   13.2710 N.3   320  LEU320     -0.1231
     57  CA        25.2920   55.0600   12.8410 C.3   320  LEU320      0.1693
     58  C         23.8170   55.4160   12.6750 C.2   320  LEU320      0.2592
     59  O         23.1640   54.9680   11.7370 O.2   320  LEU320     -0.2718
     60  CB        25.4520   53.9170   13.8480 C.3   320  LEU320      0.0284
     61  CG        25.0030   52.5290   13.4000 C.3   320  LEU320      0.0019
     62  CD1       25.6900   52.1230   12.1060 C.3   320  LEU320      0.0001
     63  CD2       25.2940   51.5150   14.4980 C.3   320  LEU320      0.0001
     64  N         23.3030   56.2340   13.5850 N.am  321  SER321     -0.1952
     65  CA        21.8930   56.5930   13.5830 C.3   321  SER321      0.1924
     66  C         21.5480   57.5100   12.4170 C.2   321  SER321      0.2314
     67  O         20.4230   57.4970   11.9210 O.2   321  SER321     -0.2863
     68  CB        21.5160   57.2790   14.8940 C.3   321  SER321      0.2116
     69  OG        22.0570   58.5900   14.9420 O.3   321  SER321     -0.2180
     70  N         21.2560   60.5740   12.7440 N.3   323  TYR323     -0.1241
     71  CA        20.4270   61.6280   13.3220 C.3   323  TYR323      0.1605
     72  C         21.0540   63.0030   13.1650 C.2   323  TYR323      0.2264
     73  O         22.2750   63.1570   13.2480 O.2   323  TYR323     -0.2867
     74  CB        20.1780   61.3680   14.8140 C.3   323  TYR323      0.0534
     75  CG        19.3000   60.1770   15.1200 C.ar  323  TYR323     -0.0201
     76  CD1       18.5950   59.5260   14.1190 C.ar  323  TYR323     -0.0009
     77  CD2       19.1740   59.7070   16.4200 C.ar  323  TYR323     -0.0009
     78  CE1       17.7940   58.4400   14.4030 C.ar  323  TYR323      0.0417
     79  CE2       18.3730   58.6200   16.7110 C.ar  323  TYR323      0.0417
     80  CZ        17.6870   57.9930   15.6980 C.ar  323  TYR323      0.1957
     81  OH        16.8880   56.9130   15.9780 O.3   323  TYR323     -0.2866
     82  N         23.1640   63.3620   19.9610 N.3   327  LEU327     -0.1245
     83  CA        23.1050   62.4570   21.1050 C.3   327  LEU327      0.1561
     84  C         24.0460   62.9260   22.2120 C.2   327  LEU327      0.2260
     85  O         25.0740   63.5480   21.9400 O.2   327  LEU327     -0.2867
     86  CB        23.4580   61.0300   20.6750 C.3   327  LEU327      0.0270
     87  CG        22.5840   60.4440   19.5660 C.3   327  LEU327      0.0019
     88  CD1       23.1870   59.1560   19.0400 C.3   327  LEU327      0.0001
     89  CD2       21.1710   60.2070   20.0770 C.3   327  LEU327      0.0001
     90  N         21.6830   39.8100   20.5010 N.3   349  PHE349     -0.1241
     91  CA        22.4550   41.0250   20.2840 C.3   349  PHE349      0.1605
     92  C         23.7380   40.6640   19.5540 C.2   349  PHE349      0.2264
     93  O         24.1650   41.3660   18.6370 O.2   349  PHE349     -0.2867
     94  CB        22.7730   41.7310   21.6000 C.3   349  PHE349      0.0534
     95  CG        23.3430   43.1210   21.4320 C.ar  349  PHE349     -0.0203
     96  CD1       22.9590   43.9270   20.3730 C.ar  349  PHE349     -0.0042
     97  CD2       24.2600   43.6180   22.3410 C.ar  349  PHE349     -0.0042
     98  CE1       23.4770   45.2000   20.2260 C.ar  349  PHE349     -0.0003
     99  CE2       24.7810   44.8890   22.2030 C.ar  349  PHE349     -0.0003
    100  CZ        24.3910   45.6820   21.1430 C.ar  349  PHE349     -0.0000
    101  N         22.8490   39.6020   15.7650 N.3   352  LEU352     -0.1231
    102  CA        22.4830   40.7410   14.9360 C.3   352  LEU352      0.1693
    103  C         23.7010   41.6160   14.6160 C.2   352  LEU352      0.2592
    104  O         23.6970   42.3580   13.6320 O.2   352  LEU352     -0.2718
    105  CB        21.3580   41.5320   15.6290 C.3   352  LEU352      0.0284
    106  CG        21.3190   42.9690   16.1920 C.3   352  LEU352      0.0019
    107  CD1       20.4920   42.9190   17.4810 C.3   352  LEU352      0.0001
    108  CD2       22.6380   43.6860   16.4660 C.3   352  LEU352      0.0001
    109  N         24.7460   41.5120   15.4350 N.am  353  TYR353     -0.1976
    110  CA        25.9390   42.3340   15.2620 C.3   353  TYR353      0.1639
    111  C         26.9920   41.6800   14.3560 C.2   353  TYR353      0.2290
    112  O         28.1310   42.1440   14.2840 O.2   353  TYR353     -0.2864
    113  CB        26.5610   42.6480   16.6230 C.3   353  TYR353      0.0560
    114  CG        26.8190   44.1190   16.8420 C.ar  353  TYR353     -0.0198
    115  CD1       27.7850   44.7900   16.1050 C.ar  353  TYR353     -0.0009
    116  CD2       26.1020   44.8360   17.7920 C.ar  353  TYR353     -0.0009
    117  CE1       28.0260   46.1340   16.3060 C.ar  353  TYR353      0.0417
    118  CE2       26.3380   46.1810   18.0020 C.ar  353  TYR353      0.0417
    119  CZ        27.3000   46.8250   17.2580 C.ar  353  TYR353      0.1957
    120  OH        27.5380   48.1650   17.4620 O.3   353  TYR353     -0.2866
    121  N         28.1580   41.9570   11.3950 N.3   355  TRP355     -0.1241
    122  CA        28.1210   42.9040   10.2850 C.3   355  TRP355      0.1605
    123  C         29.2330   42.6180    9.2760 C.2   355  TRP355      0.2264
    124  O         30.0190   43.4980    8.9260 O.2   355  TRP355     -0.2867
    125  CB        28.2290   44.3360   10.8150 C.3   355  TRP355      0.0550
    126  CG        27.0660   44.7440   11.6820 C.ar  355  TRP355      0.0003
    127  CD1       25.8990   44.0590   11.8630 C.ar  355  TRP355      0.0946
    128  CD2       26.9610   45.9290   12.4840 C.ar  355  TRP355      0.0152
    129  NE1       25.0760   44.7430   12.7230 N.ar  355  TRP355     -0.2442
    130  CE2       25.7050   45.8930   13.1190 C.ar  355  TRP355      0.0810
    131  CE3       27.8090   47.0150   12.7250 C.ar  355  TRP355      0.0012
    132  CZ2       25.2740   46.8970   13.9820 C.ar  355  TRP355      0.0191
    133  CZ3       27.3770   48.0150   13.5810 C.ar  355  TRP355      0.0001
    134  CH2       26.1210   47.9490   14.1990 C.ar  355  TRP355      0.0015
    135  N         21.3150   50.2700    7.4350 N.3   486  PHE486     -0.1241
    136  CA        20.4730   49.2240    8.0230 C.3   486  PHE486      0.1605
    137  C         19.0270   49.3590    7.6030 C.2   486  PHE486      0.2264
    138  O         18.6380   50.3480    6.9900 O.2   486  PHE486     -0.2867
    139  CB        20.5080   49.2720    9.5590 C.3   486  PHE486      0.0534
    140  CG        21.8510   49.0260   10.1590 C.ar  486  PHE486     -0.0203
    141  CD1       22.7480   48.1490    9.5760 C.ar  486  PHE486     -0.0042
    142  CD2       22.2140   49.6710   11.3290 C.ar  486  PHE486     -0.0042
    143  CE1       23.9900   47.9270   10.1490 C.ar  486  PHE486     -0.0003
    144  CE2       23.4500   49.4530   11.9040 C.ar  486  PHE486     -0.0003
    145  CZ        24.3400   48.5840   11.3140 C.ar  486  PHE486     -0.0000
    146  N         16.9490   45.9740   12.4050 N.3   490  MET490     -0.1230
    147  CA        18.2930   46.0190   12.9700 C.3   490  MET490      0.1702
    148  C         18.3940   47.1080   14.0320 C.2   490  MET490      0.2592
    149  O         18.9670   46.8980   15.1040 O.2   490  MET490     -0.2718
    150  CB        19.3260   46.2640   11.8690 C.3   490  MET490      0.0401
    151  CG        20.7650   46.3280   12.3610 C.3   490  MET490      0.0596
    152  SD        21.4140   44.7050   12.7980 S.3   490  MET490     -0.1393
    153  CE        21.9900   44.1480   11.1880 C.3   490  MET490      0.0692
    154  N         17.8230   48.2690   13.7270 N.am  491  VAL491     -0.1980
    155  CA        17.8770   49.4140   14.6280 C.3   491  VAL491      0.1595
    156  C         16.9760   49.2400   15.8510 C.2   491  VAL491      0.2287
    157  O         17.3760   49.5460   16.9720 O.2   491  VAL491     -0.2864
    158  CB        17.4740   50.7100   13.8950 C.3   491  VAL491      0.0276
    159  CG1       17.3770   51.8860   14.8690 C.3   491  VAL491      0.0022
    160  CG2       18.4730   51.0130   12.8000 C.3   491  VAL491      0.0022
    161  N         18.5010   46.3330   18.0040 N.3   494  GLY494     -0.1210
    162  CA        19.8420   46.5790   18.4950 C.3   494  GLY494      0.1956
    163  C         19.9370   47.7260   19.4830 C.2   494  GLY494      0.2611
    164  O         20.6440   47.6300   20.4900 O.2   494  GLY494     -0.2717
    165  N         19.2270   48.8120   19.2000 N.am  495  ALA495     -0.1979
    166  CA        19.3330   50.0300   20.0020 C.3   495  ALA495      0.1597
    167  C         19.0470   49.7960   21.4860 C.2   495  ALA495      0.2287
    168  O         19.8060   50.2680   22.3340 O.2   495  ALA495     -0.2864
    169  CB        18.4050   51.1020   19.4510 C.3   495  ALA495      0.0319
    170  N         21.9160   47.9460   23.0190 N.3   498  SER498     -0.1202
    171  CA        23.0970   48.7950   23.0930 C.3   498  SER498      0.2020
    172  C         23.0120   49.8110   24.2260 C.2   498  SER498      0.2618
    173  O         23.9380   49.9280   25.0250 O.2   498  SER498     -0.2717
    174  CB        23.3100   49.5300   21.7730 C.3   498  SER498      0.2103
    175  OG        24.3270   50.5040   21.9100 O.3   498  SER498     -0.2182
    176  N         21.9090   50.5520   24.2840 N.am  499  LEU499     -0.1979
    177  CA        21.7540   51.6050   25.2830 C.3   499  LEU499      0.1596
    178  C         21.7390   51.0360   26.6970 C.2   499  LEU499      0.2287
    179  O         22.1960   51.6800   27.6430 O.2   499  LEU499     -0.2864
    180  CB        20.4730   52.3990   25.0250 C.3   499  LEU499      0.0297
    181  CG        20.4640   53.2350   23.7420 C.3   499  LEU499      0.0022
    182  CD1       19.1240   53.9330   23.5600 C.3   499  LEU499      0.0001
    183  CD2       21.5900   54.2550   23.7530 C.3   499  LEU499      0.0001
@<TRIPOS>BOND
     1   138   137    2
     2   135   136    1
     3   137   136    1
     4   136   139    1
     5   124   123    2
     6   123   122    1
     7   139   140    1
     8   141   143   ar
     9   141   140   ar
    10   143   145   ar
    11   140   142   ar
    12   122   125    1
    13   122   121    1
    14   125   126    1
    15   153   152    1
    16   145   144   ar
    17   142   144   ar
    18   126   127   ar
    19   126   128   ar
    20    59    58    2
    21   127   129   ar
    22   150   151    1
    23   150   147    1
    24    67    66    2
    25    62    61    1
    26   151   152    1
    27   146   147    1
    28    66    65    1
    29   128   131   ar
    30   128   130   ar
    31    58    57    1
    32    58    64   am
    33   129   130   ar
    34   131   133   ar
    35    70    71    1
    36   160   158    1
    37    57    56    1
    38    57    60    1
    39   147   148    1
    40   130   132   ar
    41    72    73    2
    42    72    71    1
    43    71    74    1
    44    61    60    1
    45    61    63    1
    46   133   134   ar
    47    65    64    1
    48    65    68    1
    49   104   103    2
    50   154   148   am
    51   154   155    1
    52   158   155    1
    53   158   159    1
    54   132   134   ar
    55   148   149    2
    56    76    78   ar
    57    76    75   ar
    58   112   111    2
    59   111   110    1
    60    78    80   ar
    61   103   102    1
    62   103   109   am
    63   155   156    1
    64    74    75    1
    65    68    69    1
    66   102   105    1
    67   102   101    1
    68    75    77   ar
    69   110   109    1
    70   110   113    1
    71    40    39    2
    72   105   106    1
    73    80    81    1
    74    80    79   ar
    75   156   157    2
    76    48    47    1
    77    52    51    2
    78    45    47   ar
    79    45    43   ar
    80   115   117   ar
    81   115   114   ar
    82   106   108    1
    83   106   107    1
    84   117   119   ar
    85    77    79   ar
    86    47    46   ar
    87    43    42   ar
    88   113   114    1
    89    39    38    1
    90    39    49   am
    91   114   116   ar
    92    51    50    1
    93    38    37    1
    94    38    41    1
    95   119   120    1
    96   119   118   ar
    97    46    44   ar
    98    42    44   ar
    99    42    41    1
   100    50    49    1
   101    50    53    1
   102   116   118   ar
   103   161   162    1
   104    18    16    1
   105   162   163    1
   106    93    92    2
   107    54    53    1
   108    53    55    1
   109    88    87    1
   110   165   163   am
   111   165   166    1
   112    17    16    1
   113   169   166    1
   114    16    15    2
   115   163   164    2
   116    92    91    1
   117    87    89    1
   118    87    86    1
   119    19    20    1
   120    82    83    1
   121   166   167    1
   122    98    96   ar
   123    98   100   ar
   124    91    90    1
   125    91    94    1
   126    33    32    2
   127    96    95   ar
   128    15    14    1
   129    23    20    1
   130    23    24    1
   131    86    83    1
   132    20    21    1
   133    83    84    1
   134   100    99   ar
   135    26    24   ar
   136    26    28   ar
   137    32    31    1
   138    21    22    2
   139    95    94    1
   140    95    97   ar
   141   167   168    2
   142    31    30    1
   143    31    34    1
   144    24    25   ar
   145     7     5    1
   146   174   175    1
   147   174   171    1
   148    14    13    1
   149    35    34    1
   150    85    84    2
   151    28    29   ar
   152    99    97   ar
   153     6     5    1
   154    36    34    1
   155    13    12    1
   156     5     2    1
   157    25    27   ar
   158   170   171    1
   159   171   172    1
   160    29    27   ar
   161     2     1    1
   162     2     3    1
   163   182   181    1
   164   181   183    1
   165   181   180    1
   166    12     9    1
   167     4     3    2
   168   172   176   am
   169   172   173    2
   170   176   177    1
   171     9     8    1
   172     9    10    1
   173   180   177    1
   174   177   178    1
   175    11    10    2
   176   178   179    2
