@<TRIPOS>MOLECULE
tmp/5ikvA04.pdb
 109 100 0 0 0
SMALL
GASTEIGER

@<TRIPOS>ATOM
      1  N        167.9810  172.5220  213.8190 N.3   276  GLU276     -0.1245
      2  CA       169.0220  173.5240  213.7150 C.3   276  GLU276      0.1567
      3  C        168.9180  174.5440  214.8360 C.2   276  GLU276      0.2260
      4  O        169.9290  174.9510  215.4050 O.2   276  GLU276     -0.2867
      5  CB       168.9670  174.2350  212.3610 C.3   276  GLU276      0.0388
      6  CG       169.9440  175.4010  212.2280 C.3   276  GLU276      0.1160
      7  CD       171.3880  174.9880  212.4390 C.2   276  GLU276      0.3649
      8  OE1      171.6710  173.7730  212.4990 O.co2 276  GLU276     -0.2457
      9  OE2      172.2510  175.8820  212.5340 O.co2 276  GLU276     -0.2457
     10  N        170.1510  173.0640  217.9770 N.3   279  ARG279     -0.1245
     11  CA       171.5850  172.8510  217.8430 C.3   279  ARG279      0.1563
     12  C        172.3450  174.1420  218.1420 C.2   279  ARG279      0.2260
     13  O        173.3560  174.1280  218.8380 O.2   279  ARG279     -0.2867
     14  CB       171.9280  172.3530  216.4390 C.3   279  ARG279      0.0307
     15  CG       173.3630  171.8760  216.2830 C.3   279  ARG279      0.0489
     16  CD       173.7140  171.6310  214.8270 C.3   279  ARG279      0.2205
     17  NE       173.8660  172.8800  214.0830 N.pl3 279  ARG279     -0.0865
     18  CZ       174.9630  173.6310  214.0920 C.cat 279  ARG279      0.5346
     19  NH1      175.0090  174.7500  213.3820 N.pl3 279  ARG279      0.1354
     20  NH2      176.0170  173.2690  214.8120 N.pl3 279  ARG279      0.1354
     21  N        175.2000  175.2730  220.9610 N.3   283  VAL283     -0.1245
     22  CA       176.4320  175.9950  220.6600 C.3   283  VAL283      0.1561
     23  C        176.5600  177.2550  221.5100 C.2   283  VAL283      0.2260
     24  O        177.6390  177.5620  222.0100 O.2   283  VAL283     -0.2867
     25  CB       176.5100  176.3900  219.1690 C.3   283  VAL283      0.0252
     26  CG1      177.7270  177.2770  218.8990 C.3   283  VAL283      0.0019
     27  CG2      176.5590  175.1480  218.2920 C.3   283  VAL283      0.0019
     28  N        171.3820  182.2660  208.5370 N.3   307  GLU307     -0.1245
     29  CA       171.5940  181.0270  207.7960 C.3   307  GLU307      0.1567
     30  C        170.6560  180.9360  206.6070 C.2   307  GLU307      0.2260
     31  O        171.0420  180.4890  205.5310 O.2   307  GLU307     -0.2867
     32  CB       171.3830  179.8090  208.6930 C.3   307  GLU307      0.0388
     33  CG       172.4010  179.6510  209.7980 C.3   307  GLU307      0.1160
     34  CD       172.1740  178.3960  210.6120 C.2   307  GLU307      0.3649
     35  OE1      171.8310  177.3520  210.0220 O.co2 307  GLU307     -0.2457
     36  OE2      172.3260  178.4560  211.8460 O.co2 307  GLU307     -0.2457
     37  N        171.8640  180.7230  202.8540 N.3   311  ILE311     -0.1245
     38  CA       171.5680  179.5450  202.0520 C.3   311  ILE311      0.1561
     39  C        170.7100  179.9040  200.8440 C.2   311  ILE311      0.2260
     40  O        170.9280  179.3820  199.7550 O.2   311  ILE311     -0.2867
     41  CB       170.8650  178.4570  202.8960 C.3   311  ILE311      0.0252
     42  CG1      171.8600  177.8630  203.8970 C.3   311  ILE311      0.0019
     43  CG2      170.2990  177.3460  202.0080 C.3   311  ILE311      0.0019
     44  CD1      171.2460  176.9270  204.9270 C.3   311  ILE311      0.0001
     45  N        179.9260  183.0070  212.7460 N.3   525  GLN525     -0.1231
     46  CA       180.5290  182.1340  211.7470 C.3   525  GLN525      0.1698
     47  C        179.5360  181.0770  211.2640 C.2   525  GLN525      0.2592
     48  O        179.6570  180.5630  210.1520 O.2   525  GLN525     -0.2718
     49  CB       181.7790  181.4590  212.3100 C.3   525  GLN525      0.0381
     50  CG       182.6910  180.8680  211.2440 C.3   525  GLN525      0.0905
     51  CD       183.6560  179.8350  211.7930 C.2   525  GLN525      0.2608
     52  OE1      183.5390  179.4020  212.9400 O.2   525  GLN525     -0.2717
     53  NE2      184.6180  179.4330  210.9720 N.am  525  GLN525     -0.0878
     54  N        178.5570  180.7560  212.1030 N.am  526  ILE526     -0.1980
     55  CA       177.5030  179.8260  211.7190 C.3   526  ILE526      0.1595
     56  C        176.7360  180.3870  210.5260 C.2   526  ILE526      0.2287
     57  O        176.3750  179.6520  209.6100 O.2   526  ILE526     -0.2864
     58  CB       176.5340  179.5440  212.8890 C.3   526  ILE526      0.0276
     59  CG1      177.3030  178.9050  214.0520 C.3   526  ILE526      0.0022
     60  CG2      175.3810  178.6560  212.4330 C.3   526  ILE526      0.0022
     61  CD1      176.4550  178.4260  215.2050 C.3   526  ILE526      0.0001
     62  N        179.1750  180.4850  207.2010 N.3   529  THR529     -0.1203
     63  CA       179.5890  179.1920  206.6500 C.3   529  THR529      0.1994
     64  C        178.3990  178.2720  206.3720 C.2   529  THR529      0.2618
     65  O        178.5830  177.0860  206.0990 O.2   529  THR529     -0.2717
     66  CB       180.5590  178.4450  207.5950 C.3   529  THR529      0.1784
     67  OG1      179.8900  178.1140  208.8190 O.3   529  THR529     -0.2211
     68  CG2      181.7850  179.2850  207.8930 C.3   529  THR529      0.0376
     69  N        177.1830  178.8090  206.4330 N.am  530  ALA530     -0.1965
     70  CA       175.9850  177.9990  206.2320 C.3   530  ALA530      0.1728
     71  C        175.7640  177.6510  204.7670 C.2   530  ALA530      0.2616
     72  O        176.0280  178.4530  203.8730 O.2   530  ALA530     -0.2715
     73  CB       174.7620  178.7100  206.7860 C.3   530  ALA530      0.0334
     74  N        175.2760  176.4350  204.5400 N.am  531  SER531     -0.1950
     75  CA       174.9290  175.9570  203.2110 C.3   531  SER531      0.1924
     76  C        173.8000  174.9420  203.3360 C.2   531  SER531      0.2314
     77  O        173.5510  174.4270  204.4240 O.2   531  SER531     -0.2863
     78  CB       176.1410  175.3310  202.5200 C.3   531  SER531      0.2116
     79  OG       176.5890  174.1780  203.2140 O.3   531  SER531     -0.2180
     80  N        175.3610  171.7910  204.5920 N.3   534  SER534     -0.1202
     81  CA       175.7130  171.8340  206.0020 C.3   534  SER534      0.2020
     82  C        174.4730  171.8080  206.8960 C.2   534  SER534      0.2618
     83  O        174.5340  171.3010  208.0140 O.2   534  SER534     -0.2717
     84  CB       176.5510  173.0700  206.3080 C.3   534  SER534      0.2103
     85  OG       175.7770  174.2470  206.2120 O.3   534  SER534     -0.2182
     86  N        173.3590  172.3580  206.4200 N.am  535  LEU535     -0.1979
     87  CA       172.1000  172.2830  207.1600 C.3   535  LEU535      0.1596
     88  C        171.7060  170.8250  207.3360 C.2   535  LEU535      0.2287
     89  O        171.3670  170.3860  208.4310 O.2   535  LEU535     -0.2864
     90  CB       170.9820  173.0490  206.4590 C.3   535  LEU535      0.0297
     91  CG       169.7050  173.1950  207.2980 C.3   535  LEU535      0.0022
     92  CD1      169.8980  174.1750  208.4480 C.3   535  LEU535      0.0001
     93  CD2      168.5190  173.6120  206.4380 C.3   535  LEU535      0.0001
     94  N        174.4930  168.6990  209.5890 N.3   538  ASN538     -0.1225
     95  CA       174.5000  168.8810  211.0380 C.3   538  ASN538      0.1785
     96  C        173.2440  168.3640  211.7280 C.2   538  ASN538      0.2597
     97  O        173.2520  168.1430  212.9370 O.2   538  ASN538     -0.2718
     98  CB       174.6840  170.3620  211.3920 C.3   538  ASN538      0.1169
     99  CG       176.0470  170.9110  210.9860 C.2   538  ASN538      0.2627
    100  OD1      176.1890  172.1050  210.7500 O.2   538  ASN538     -0.2716
    101  ND2      177.0520  170.0520  210.9040 N.am  538  ASN538     -0.0877
    102  N        172.1740  168.1610  210.9670 N.am  539  ASN539     -0.1974
    103  CA       170.8620  167.9010  211.5540 C.3   539  ASN539      0.1688
    104  C        170.1770  166.6390  211.0450 C.2   539  ASN539      0.2292
    105  O        169.1250  166.2630  211.5560 O.2   539  ASN539     -0.2864
    106  CB       169.9540  169.1030  211.3120 C.3   539  ASN539      0.1181
    107  CG       170.3810  170.3170  212.1040 C.2   539  ASN539      0.2629
    108  OD1      170.3230  170.3180  213.3310 O.2   539  ASN539     -0.2716
    109  ND2      170.8120  171.3580  211.4060 N.am  539  ASN539     -0.0877
@<TRIPOS>BOND
     1    40    39    2
     2    39    38    1
     3    43    41    1
     4    38    37    1
     5    38    41    1
     6    78    75    1
     7    78    79    1
     8    41    42    1
     9    75    76    1
    10    75    74    1
    11    76    77    2
    12    72    71    2
    13    42    44    1
    14    74    71   am
    15    80    81    1
    16    71    70    1
    17    31    30    2
    18    81    84    1
    19    81    82    1
    20    65    64    2
    21    85    84    1
    22    70    69    1
    23    70    73    1
    24    64    69   am
    25    64    63    1
    26    86    82   am
    27    86    87    1
    28    93    91    1
    29    90    87    1
    30    90    91    1
    31    30    29    1
    32    63    62    1
    33    63    66    1
    34    82    83    2
    35    87    88    1
    36    91    92    1
    37    88    89    2
    38    66    68    1
    39    66    67    1
    40    29    28    1
    41    29    32    1
    42    32    33    1
    43    94    95    1
    44    57    56    2
    45    33    34    1
    46    35    34   ar
    47    48    47    2
    48    56    55    1
    49    34    36   ar
    50   100    99    2
    51   101    99   am
    52   102   103    1
    53   102    96   am
    54    53    51   am
    55    99    98    1
    56    95    98    1
    57    95    96    1
    58   104   103    1
    59   104   105    2
    60    50    51    1
    61    50    49    1
    62    47    46    1
    63    47    54   am
    64   106   103    1
    65   106   107    1
    66   109   107   am
    67    55    54    1
    68    55    58    1
    69    96    97    2
    70    46    49    1
    71    46    45    1
    72    51    52    2
    73   107   108    2
    74     6     5    1
    75     6     7    1
    76     5     2    1
    77    60    58    1
    78     7     8   ar
    79     7     9   ar
    80    58    59    1
    81    19    18    1
    82     2     1    1
    83     2     3    1
    84    59    61    1
    85    17    18    2
    86    17    16    1
    87    18    20    1
    88    16    15    1
    89     3     4    2
    90    15    14    1
    91    14    11    1
    92    11    10    1
    93    11    12    1
    94    12    13    2
    95    27    25    1
    96    26    25    1
    97    25    22    1
    98    22    21    1
    99    22    23    1
   100    23    24    2
