@<TRIPOS>MOLECULE
tmp/5ikvA00.pdb
 184 177 0 0 0
SMALL
GASTEIGER

@<TRIPOS>ATOM
      1  N        178.7540  191.4160  192.5590 N.3    81  MET81      -0.1245
      2  CA       177.6210  191.1030  193.4200 C.3    81  MET81       0.1570
      3  C        176.9530  192.3830  193.8980 C.2    81  MET81       0.2261
      4  O        175.7290  192.4840  193.9210 O.2    81  MET81      -0.2867
      5  CB       178.0620  190.2660  194.6210 C.3    81  MET81       0.0387
      6  CG       176.9060  189.7130  195.4290 C.3    81  MET81       0.0595
      7  SD       175.9370  188.5050  194.5030 S.3    81  MET81      -0.1393
      8  CE       174.2780  189.0590  194.8680 C.3    81  MET81       0.0692
      9  N        174.7730  193.7290  191.0980 N.3    84  VAL84      -0.1245
     10  CA       173.5720  192.9090  191.0000 C.3    84  VAL84       0.1561
     11  C        172.5210  193.3730  191.9990 C.2    84  VAL84       0.2260
     12  O        171.3550  193.5270  191.6550 O.2    84  VAL84      -0.2867
     13  CB       173.8840  191.4160  191.2500 C.3    84  VAL84       0.0252
     14  CG1      172.6000  190.5900  191.3680 C.3    84  VAL84       0.0019
     15  CG2      174.7670  190.8690  190.1420 C.3    84  VAL84       0.0019
     16  N        169.2630  195.6920  190.6450 N.3    88  ARG88      -0.1245
     17  CA       167.9780  195.0020  190.6730 C.3    88  ARG88       0.1563
     18  C        167.0330  195.6450  191.6900 C.2    88  ARG88       0.2260
     19  O        165.8330  195.7490  191.4470 O.2    88  ARG88      -0.2867
     20  CB       168.1610  193.5190  190.9980 C.3    88  ARG88       0.0307
     21  CG       169.0440  192.7560  190.0180 C.3    88  ARG88       0.0489
     22  CD       168.2600  192.1440  188.8670 C.3    88  ARG88       0.2205
     23  NE       169.0300  191.0960  188.1970 N.pl3  88  ARG88      -0.0865
     24  CZ       168.5440  190.2830  187.2650 C.cat  88  ARG88       0.5346
     25  NH1      167.2810  190.3850  186.8760 N.pl3  88  ARG88       0.1354
     26  NH2      169.3260  189.3610  186.7190 N.pl3  88  ARG88       0.1354
     27  N        160.2740  177.8830  202.2420 N.3   173  PHE173     -0.1241
     28  CA       160.9010  179.1660  202.5150 C.3   173  PHE173      0.1605
     29  C        159.9990  180.3560  202.1850 C.2   173  PHE173      0.2264
     30  O        159.9280  181.3130  202.9540 O.2   173  PHE173     -0.2867
     31  CB       162.2180  179.2780  201.7400 C.3   173  PHE173      0.0534
     32  CG       162.6940  180.6840  201.5580 C.ar  173  PHE173     -0.0203
     33  CD1      163.2840  181.3700  202.6000 C.ar  173  PHE173     -0.0042
     34  CD2      162.5460  181.3220  200.3450 C.ar  173  PHE173     -0.0042
     35  CE1      163.7100  182.6710  202.4330 C.ar  173  PHE173     -0.0003
     36  CE2      162.9760  182.6180  200.1740 C.ar  173  PHE173     -0.0003
     37  CZ       163.5590  183.2900  201.2170 C.ar  173  PHE173     -0.0000
     38  N        170.3890  178.3720  196.7990 N.3   316  TYR316     -0.1227
     39  CA       169.0750  178.2660  196.1740 C.3   316  TYR316      0.1736
     40  C        168.9400  179.1610  194.9420 C.2   316  TYR316      0.2595
     41  O        168.6380  178.6770  193.8560 O.2   316  TYR316     -0.2718
     42  CB       167.9990  178.5990  197.2070 C.3   316  TYR316      0.0548
     43  CG       166.6000  178.7650  196.6700 C.ar  316  TYR316     -0.0200
     44  CD1      165.7760  177.6690  196.4750 C.ar  316  TYR316     -0.0009
     45  CD2      166.0880  180.0240  196.3960 C.ar  316  TYR316     -0.0009
     46  CE1      164.4900  177.8210  196.0040 C.ar  316  TYR316      0.0417
     47  CE2      164.8030  180.1830  195.9250 C.ar  316  TYR316      0.0417
     48  CZ       164.0090  179.0780  195.7320 C.ar  316  TYR316      0.1957
     49  OH       162.7270  179.2300  195.2640 O.3   316  TYR316     -0.2866
     50  N        169.1550  180.4600  195.1110 N.am  317  VAL317     -0.1980
     51  CA       169.1220  181.3820  193.9820 C.3   317  VAL317      0.1595
     52  C        170.2780  181.0690  193.0360 C.2   317  VAL317      0.2287
     53  O        170.1370  181.1520  191.8150 O.2   317  VAL317     -0.2864
     54  CB       169.2010  182.8510  194.4460 C.3   317  VAL317      0.0276
     55  CG1      169.2010  183.8010  193.2520 C.3   317  VAL317      0.0022
     56  CG2      168.0340  183.1780  195.3580 C.3   317  VAL317      0.0022
     57  N        169.2350  178.3060  190.9330 N.3   320  LEU320     -0.1231
     58  CA       168.0990  178.7660  190.1620 C.3   320  LEU320      0.1693
     59  C        168.5180  179.6570  188.9900 C.2   320  LEU320      0.2592
     60  O        167.9090  179.6240  187.9170 O.2   320  LEU320     -0.2718
     61  CB       167.1600  179.4880  191.1240 C.3   320  LEU320      0.0284
     62  CG       165.9460  180.2850  190.6900 C.3   320  LEU320      0.0019
     63  CD1      164.9130  180.1670  191.7830 C.3   320  LEU320      0.0001
     64  CD2      166.3200  181.7380  190.4880 C.3   320  LEU320      0.0001
     65  N        169.5760  180.4330  189.1950 N.am  321  SER321     -0.1952
     66  CA       170.0750  181.3370  188.1680 C.3   321  SER321      0.1924
     67  C        170.8290  180.5830  187.0800 C.2   321  SER321      0.2314
     68  O        170.7840  180.9540  185.9070 O.2   321  SER321     -0.2863
     69  CB       170.9870  182.3960  188.7910 C.3   321  SER321      0.2116
     70  OG       172.1830  181.8160  189.2860 O.3   321  SER321     -0.2180
     71  N        173.9060  180.5990  186.9730 N.3   323  TYR323     -0.1241
     72  CA       175.0960  181.4080  186.7520 C.3   323  TYR323      0.1605
     73  C        176.3570  180.6620  187.1690 C.2   323  TYR323      0.2264
     74  O        176.3530  179.9200  188.1520 O.2   323  TYR323     -0.2867
     75  CB       174.9980  182.7280  187.5270 C.3   323  TYR323      0.0534
     76  CG       173.8700  183.6430  187.0900 C.ar  323  TYR323     -0.0201
     77  CD1      173.1290  183.3790  185.9460 C.ar  323  TYR323     -0.0009
     78  CD2      173.5530  184.7830  187.8210 C.ar  323  TYR323     -0.0009
     79  CE1      172.1080  184.2150  185.5490 C.ar  323  TYR323      0.0417
     80  CE2      172.5320  185.6210  187.4250 C.ar  323  TYR323      0.0417
     81  CZ       171.8160  185.3310  186.2900 C.ar  323  TYR323      0.1957
     82  OH       170.8000  186.1580  185.8900 O.3   323  TYR323     -0.2866
     83  N        177.3280  183.7570  193.4380 N.3   327  LEU327     -0.1245
     84  CA       176.6280  184.7920  194.1920 C.3   327  LEU327      0.1561
     85  C        177.0760  184.7750  195.6500 C.2   327  LEU327      0.2260
     86  O        177.5230  183.7470  196.1530 O.2   327  LEU327     -0.2867
     87  CB       175.1120  184.5990  194.0910 C.3   327  LEU327      0.0270
     88  CG       174.5260  184.6870  192.6770 C.3   327  LEU327      0.0019
     89  CD1      173.0710  184.2510  192.6700 C.3   327  LEU327      0.0001
     90  CD2      174.6560  186.0940  192.1060 C.3   327  LEU327      0.0001
     91  N        154.6610  189.2300  193.2050 N.3   349  PHE349     -0.1241
     92  CA       155.7160  188.3110  193.6040 C.3   349  PHE349      0.1605
     93  C        155.0970  186.9910  194.0450 C.2   349  PHE349      0.2264
     94  O        155.6350  185.9200  193.7820 O.2   349  PHE349     -0.2867
     95  CB       156.5540  188.9200  194.7330 C.3   349  PHE349      0.0534
     96  CG       157.8240  188.1720  195.0420 C.ar  349  PHE349     -0.0203
     97  CD1      158.5430  187.5330  194.0460 C.ar  349  PHE349     -0.0042
     98  CD2      158.3060  188.1220  196.3420 C.ar  349  PHE349     -0.0042
     99  CE1      159.7110  186.8580  194.3410 C.ar  349  PHE349     -0.0003
    100  CE2      159.4710  187.4490  196.6400 C.ar  349  PHE349     -0.0003
    101  CZ       160.1750  186.8160  195.6410 C.ar  349  PHE349     -0.0000
    102  N        153.7100  185.1720  190.7530 N.3   352  LEU352     -0.1231
    103  CA       154.7450  184.5780  189.9130 C.3   352  LEU352      0.1693
    104  C        155.3990  183.3690  190.5800 C.2   352  LEU352      0.2592
    105  O        156.0440  182.5700  189.9040 O.2   352  LEU352     -0.2718
    106  CB       155.8140  185.6200  189.5450 C.3   352  LEU352      0.0284
    107  CG       156.8080  186.1000  190.6080 C.3   352  LEU352      0.0019
    108  CD1      158.0390  185.2070  190.6940 C.3   352  LEU352      0.0001
    109  CD2      157.2240  187.5300  190.3150 C.3   352  LEU352      0.0001
    110  N        155.2260  183.2220  191.8910 N.am  353  TYR353     -0.1976
    111  CA       155.8820  182.1390  192.6180 C.3   353  TYR353      0.1639
    112  C        155.0310  180.8740  192.7120 C.2   353  TYR353      0.2290
    113  O        155.3670  179.9530  193.4520 O.2   353  TYR353     -0.2864
    114  CB       156.2780  182.5940  194.0260 C.3   353  TYR353      0.0560
    115  CG       157.7370  182.3300  194.3110 C.ar  353  TYR353     -0.0198
    116  CD1      158.2160  181.0330  194.3920 C.ar  353  TYR353     -0.0009
    117  CD2      158.6390  183.3720  194.4660 C.ar  353  TYR353     -0.0009
    118  CE1      159.5430  180.7800  194.6340 C.ar  353  TYR353      0.0417
    119  CE2      159.9720  183.1260  194.7120 C.ar  353  TYR353      0.0417
    120  CZ       160.4190  181.8280  194.7930 C.ar  353  TYR353      0.1957
    121  OH       161.7450  181.5700  195.0370 O.3   353  TYR353     -0.2866
    122  N        154.8980  178.0140  191.4250 N.3   355  TRP355     -0.1241
    123  CA       155.6700  177.0670  190.6210 C.3   355  TRP355      0.1605
    124  C        155.1810  175.6370  190.7880 C.2   355  TRP355      0.2264
    125  O        155.9580  174.7490  191.1220 O.2   355  TRP355     -0.2867
    126  CB       157.1500  177.1180  190.9970 C.3   355  TRP355      0.0550
    127  CG       157.8020  178.4350  190.7970 C.ar  355  TRP355      0.0003
    128  CD1      157.2910  179.5220  190.1530 C.ar  355  TRP355      0.0946
    129  CD2      159.1030  178.8110  191.2500 C.ar  355  TRP355      0.0152
    130  NE1      158.1950  180.5530  190.1800 N.ar  355  TRP355     -0.2442
    131  CE2      159.3170  180.1410  190.8480 C.ar  355  TRP355      0.0810
    132  CE3      160.1100  178.1490  191.9580 C.ar  355  TRP355      0.0012
    133  CZ2      160.4940  180.8220  191.1310 C.ar  355  TRP355      0.0191
    134  CZ3      161.2750  178.8260  192.2370 C.ar  355  TRP355      0.0001
    135  CH2      161.4590  180.1480  191.8230 C.ar  355  TRP355      0.0015
    136  N        163.2190  178.7390  183.6160 N.3   486  PHE486     -0.1241
    137  CA       162.3560  179.9110  183.4940 C.3   486  PHE486      0.1605
    138  C        162.5390  180.6360  182.1730 C.2   486  PHE486      0.2264
    139  O        163.5540  180.4770  181.4960 O.2   486  PHE486     -0.2867
    140  CB       162.6330  180.8980  184.6290 C.3   486  PHE486      0.0534
    141  CG       162.3650  180.3510  185.9970 C.ar  486  PHE486     -0.0203
    142  CD1      161.2300  179.6030  186.2540 C.ar  486  PHE486     -0.0042
    143  CD2      163.2520  180.5890  187.0300 C.ar  486  PHE486     -0.0042
    144  CE1      160.9860  179.1060  187.5160 C.ar  486  PHE486     -0.0003
    145  CE2      163.0140  180.0930  188.2930 C.ar  486  PHE486     -0.0003
    146  CZ       161.8790  179.3490  188.5360 C.ar  486  PHE486     -0.0000
    147  N        159.9990  185.8040  184.1520 N.3   490  MET490     -0.1230
    148  CA       160.0260  185.2550  185.5030 C.3   490  MET490      0.1702
    149  C        161.2490  185.7540  186.2630 C.2   490  MET490      0.2592
    150  O        161.1460  186.2030  187.4030 O.2   490  MET490     -0.2718
    151  CB       160.0320  183.7270  185.4620 C.3   490  MET490      0.0401
    152  CG       160.0090  183.0640  186.8300 C.3   490  MET490      0.0596
    153  SD       158.3900  183.1450  187.6110 S.3   490  MET490     -0.1393
    154  CE       157.5520  181.8120  186.7600 C.3   490  MET490      0.0692
    155  N        162.4070  185.6710  185.6180 N.am  491  VAL491     -0.1980
    156  CA       163.6640  186.0590  186.2400 C.3   491  VAL491      0.1595
    157  C        163.7340  187.5620  186.4770 C.2   491  VAL491      0.2287
    158  O        164.1200  188.0080  187.5550 O.2   491  VAL491     -0.2864
    159  CB       164.8630  185.6190  185.3750 C.3   491  VAL491      0.0276
    160  CG1      166.1570  186.3230  185.8030 C.3   491  VAL491      0.0022
    161  CG2      165.0290  184.1100  185.4470 C.3   491  VAL491      0.0022
    162  N        161.0080  188.5630  189.0810 N.3   494  GLY494     -0.1210
    163  CA       161.1640  187.9110  190.3690 C.3   494  GLY494      0.1956
    164  C        162.3870  188.3300  191.1660 C.2   494  GLY494      0.2611
    165  O        162.2990  188.5350  192.3750 O.2   494  GLY494     -0.2717
    166  N        163.5280  188.4620  190.4940 N.am  495  ALA495     -0.1979
    167  CA       164.8030  188.6870  191.1740 C.3   495  ALA495      0.1597
    168  C        164.8330  189.9590  192.0290 C.2   495  ALA495      0.2287
    169  O        165.3910  189.9480  193.1250 O.2   495  ALA495     -0.2864
    170  CB       165.9430  188.7120  190.1560 C.3   495  ALA495      0.0319
    171  N        162.9060  189.3230  195.2520 N.3   498  SER498     -0.1202
    172  CA       163.6530  188.3890  196.0850 C.3   498  SER498      0.2020
    173  C        164.7960  189.0650  196.8290 C.2   498  SER498      0.2618
    174  O        164.9000  188.9640  198.0480 O.2   498  SER498     -0.2717
    175  CB       164.2060  187.2470  195.2340 C.3   498  SER498      0.2103
    176  OG       165.0390  186.4010  196.0070 O.3   498  SER498     -0.2182
    177  N        165.6540  189.7510  196.0870 N.am  499  LEU499     -0.1979
    178  CA       166.8440  190.3590  196.6650 C.3   499  LEU499      0.1596
    179  C        166.4910  191.4510  197.6640 C.2   499  LEU499      0.2287
    180  O        167.2080  191.6710  198.6400 O.2   499  LEU499     -0.2864
    181  CB       167.7320  190.9210  195.5570 C.3   499  LEU499      0.0297
    182  CG       168.3230  189.8520  194.6370 C.3   499  LEU499      0.0022
    183  CD1      168.8940  190.4780  193.3810 C.3   499  LEU499      0.0001
    184  CD2      169.3860  189.0590  195.3680 C.3   499  LEU499      0.0001
@<TRIPOS>BOND
     1   139   138    2
     2   138   137    1
     3   137   136    1
     4   137   140    1
     5   147   148    1
     6   140   141    1
     7   159   161    1
     8   159   160    1
     9   159   156    1
    10   151   148    1
    11   151   152    1
    12   148   149    1
    13    79    77   ar
    14    79    81   ar
    15   155   156    1
    16   155   149   am
    17    82    81    1
    18    68    67    2
    19    77    76   ar
    20   141   142   ar
    21   141   143   ar
    22   156   157    1
    23   142   144   ar
    24   149   150    2
    25    81    80   ar
    26   157   158    2
    27    26    24    1
    28    72    71    1
    29    72    73    1
    30    72    75    1
    31   154   153    1
    32   152   153    1
    33    25    24    1
    34   143   145   ar
    35    67    66    1
    36    76    75    1
    37    76    78   ar
    38    73    74    2
    39    24    23    2
    40    80    78   ar
    41   144   146   ar
    42    60    59    2
    43    66    69    1
    44    66    65    1
    45    23    22    1
    46   145   146   ar
    47    69    70    1
    48    22    21    1
    49    59    65   am
    50    59    58    1
    51   162   163    1
    52   106   103    1
    53   106   107    1
    54   105   104    2
    55   103   104    1
    56   103   102    1
    57    21    20    1
    58    15    13    1
    59   128   130   ar
    60   128   127   ar
    61   170   167    1
    62    58    57    1
    63    58    61    1
    64   130   131   ar
    65   109   107    1
    66   163   164    1
    67    64    62    1
    68   166   164   am
    69   166   167    1
    70   104   110   am
    71   107   108    1
    72   123   124    1
    73   123   126    1
    74   123   122    1
    75    16    17    1
    76    17    20    1
    77    17    18    1
    78    62    61    1
    79    62    63    1
    80   124   125    2
    81   127   126    1
    82   127   129   ar
    83   131   133   ar
    84   131   129   ar
    85    10     9    1
    86    10    13    1
    87    10    11    1
    88   133   135   ar
    89   164   165    2
    90   167   168    1
    91    13    14    1
    92   129   132   ar
    93    19    18    2
    94    12    11    2
    95    53    52    2
    96   135   134   ar
    97   110   111    1
    98   132   134   ar
    99   168   169    2
   100    90    88    1
   101     1     2    1
   102   111   112    1
   103   111   114    1
   104    89    88    1
   105    88    87    1
   106   112   113    2
   107    52    51    1
   108    91    92    1
   109    55    54    1
   110   183   182    1
   111     2     3    1
   112     2     5    1
   113    83    84    1
   114    92    93    1
   115    92    95    1
   116    94    93    2
   117    41    40    2
   118     3     4    2
   119    51    54    1
   120    51    50    1
   121   114   115    1
   122    97    99   ar
   123    97    96   ar
   124    87    84    1
   125    84    85    1
   126   115   116   ar
   127   115   117   ar
   128    99   101   ar
   129   116   118   ar
   130    54    56    1
   131   117   119   ar
   132     7     8    1
   133     7     6    1
   134     5     6    1
   135   118   120   ar
   136   182   184    1
   137   182   181    1
   138   119   120   ar
   139    95    96    1
   140   120   121    1
   141    40    50   am
   142    40    39    1
   143    96    98   ar
   144   175   176    1
   145   175   172    1
   146   171   172    1
   147    49    48    1
   148   181   178    1
   149   101   100   ar
   150    85    86    2
   151    48    47   ar
   152    48    46   ar
   153    47    45   ar
   154    46    44   ar
   155   172   173    1
   156   177   178    1
   157   177   173   am
   158    39    38    1
   159    39    42    1
   160    98   100   ar
   161    45    43   ar
   162    44    43   ar
   163   178   179    1
   164    43    42    1
   165   173   174    2
   166   179   180    2
   167    36    34   ar
   168    36    37   ar
   169    34    32   ar
   170    37    35   ar
   171    32    31    1
   172    32    33   ar
   173    31    28    1
   174    29    28    1
   175    29    30    2
   176    27    28    1
   177    35    33   ar
