@<TRIPOS>MOLECULE
tmp/5il8A00.pdb
 185 175 0 0 0
SMALL
GASTEIGER

@<TRIPOS>ATOM
      1  N         13.0310   77.6470   10.4340 N.3   252  ARG252     -0.1245
      2  CA        13.6420   76.3520   10.1740 C.3   252  ARG252      0.1563
      3  C         13.2400   75.3250   11.2340 C.2   252  ARG252      0.2260
      4  O         13.4580   75.5410   12.4240 O.2   252  ARG252     -0.2867
      5  CB        15.1630   76.4930   10.1340 C.3   252  ARG252      0.0307
      6  CG        15.6850   77.2380    8.9260 C.3   252  ARG252      0.0489
      7  CD        17.1720   77.5340    9.0470 C.3   252  ARG252      0.2205
      8  NE        17.4650   78.4040   10.1850 N.pl3 252  ARG252     -0.0865
      9  CZ        18.6800   78.8540   10.4950 C.cat 252  ARG252      0.5346
     10  NH1       19.7250   78.5140    9.7500 N.pl3 252  ARG252      0.1354
     11  NH2       18.8510   79.6440   11.5510 N.pl3 252  ARG252      0.1354
     12  N         23.8760   68.5370   17.1790 N.3   261  TRP261     -0.1241
     13  CA        24.7540   69.5810   17.7080 C.3   261  TRP261      0.1605
     14  C         25.0780   69.3270   19.1850 C.2   261  TRP261      0.2264
     15  O         26.2230   69.3770   19.6060 O.2   261  TRP261     -0.2867
     16  CB        24.0870   70.9500   17.5350 C.3   261  TRP261      0.0550
     17  CG        24.9810   72.0620   17.0440 C.ar  261  TRP261      0.0003
     18  CD1       25.8210   72.8310   17.7960 C.ar  261  TRP261      0.0946
     19  CD2       25.0870   72.5520   15.7010 C.ar  261  TRP261      0.0152
     20  NE1       26.4540   73.7560   17.0050 N.ar  261  TRP261     -0.2442
     21  CE2       26.0150   73.6150   15.7160 C.ar  261  TRP261      0.0810
     22  CE3       24.4890   72.1970   14.4860 C.ar  261  TRP261      0.0012
     23  CZ2       26.3780   74.3090   14.5640 C.ar  261  TRP261      0.0191
     24  CZ3       24.8410   72.8940   13.3430 C.ar  261  TRP261      0.0001
     25  CH2       25.7780   73.9390   13.3910 C.ar  261  TRP261      0.0015
     26  N         19.3520   75.5460   21.6940 N.3   282  ILE282     -0.1245
     27  CA        19.7850   75.7000   20.3070 C.3   282  ILE282      0.1561
     28  C         18.5660   75.8340   19.3990 C.2   282  ILE282      0.2260
     29  O         18.5320   76.6520   18.4750 O.2   282  ILE282     -0.2867
     30  CB        20.6400   74.5170   19.8480 C.3   282  ILE282      0.0252
     31  CG1       21.8490   74.3310   20.7730 C.3   282  ILE282      0.0019
     32  CG2       21.1120   74.7320   18.4240 C.3   282  ILE282      0.0019
     33  CD1       22.8020   73.2070   20.3340 C.3   282  ILE282      0.0001
     34  N         16.7290   79.4360   20.1080 N.3   285  ILE285     -0.1231
     35  CA        17.4130   80.6140   19.5910 C.3   285  ILE285      0.1692
     36  C         17.4310   80.5530   18.0650 C.2   285  ILE285      0.2592
     37  O         17.4890   81.5860   17.3940 O.2   285  ILE285     -0.2718
     38  CB        18.8580   80.7780   20.1540 C.3   285  ILE285      0.0266
     39  CG1       19.3620   82.2040   19.9000 C.3   285  ILE285      0.0019
     40  CG2       19.8400   79.7360   19.5820 C.3   285  ILE285      0.0020
     41  CD1       18.6930   83.2800   20.7700 C.3   285  ILE285      0.0001
     42  N         17.3500   79.3450   17.5140 N.am  286  SER286     -0.1952
     43  CA        17.1910   79.2020   16.0740 C.3   286  SER286      0.1924
     44  C         15.8850   79.8660   15.6140 C.2   286  SER286      0.2314
     45  O         15.8360   80.5200   14.5690 O.2   286  SER286     -0.2863
     46  CB        17.2060   77.7280   15.6760 C.3   286  SER286      0.2116
     47  OG        17.2090   77.5950   14.2680 O.3   286  SER286     -0.2180
     48  N         16.4600   83.5980   15.7450 N.3   289  ASP289     -0.1239
     49  CA        17.2910   83.9960   14.6120 C.3   289  ASP289      0.1674
     50  C         16.4640   84.1790   13.3410 C.2   289  ASP289      0.2266
     51  O         16.6040   85.1790   12.6370 O.2   289  ASP289     -0.2867
     52  CB        18.3930   82.9750   14.3540 C.3   289  ASP289      0.1410
     53  CG        19.3990   83.4600   13.3360 C.2   289  ASP289      0.3668
     54  OD1       19.9210   84.5780   13.5150 O.co2 289  ASP289     -0.2456
     55  OD2       19.6560   82.7410   12.3460 O.co2 289  ASP289     -0.2456
     56  N         15.6790   87.3690   11.0280 N.3   293  ASP293     -0.1239
     57  CA        16.2810   87.2760    9.7090 C.3   293  ASP293      0.1674
     58  C         15.2800   87.2310    8.5680 C.2   293  ASP293      0.2266
     59  O         15.4770   87.8740    7.5340 O.2   293  ASP293     -0.2867
     60  CB        17.1760   86.0420    9.6390 C.3   293  ASP293      0.1410
     61  CG        18.5370   86.3520    9.0740 C.2   293  ASP293      0.3668
     62  OD1       19.4250   86.7630    9.8570 O.co2 293  ASP293     -0.2456
     63  OD2       18.7130   86.1960    7.8460 O.co2 293  ASP293     -0.2456
     64  N         21.5060   90.6920   17.4270 N.3   364  TYR364     -0.1241
     65  CA        20.5690   90.4500   16.3220 C.3   364  TYR364      0.1605
     66  C         19.9270   91.7620   15.8470 C.2   364  TYR364      0.2264
     67  O         19.8720   92.0450   14.6550 O.2   364  TYR364     -0.2867
     68  CB        19.4670   89.4720   16.7350 C.3   364  TYR364      0.0534
     69  CG        19.8540   88.0000   16.7100 C.ar  364  TYR364     -0.0201
     70  CD1       21.0650   87.5790   16.1730 C.ar  364  TYR364     -0.0009
     71  CD2       18.9950   87.0390   17.2240 C.ar  364  TYR364     -0.0009
     72  CE1       21.4100   86.2420   16.1490 C.ar  364  TYR364      0.0417
     73  CE2       19.3280   85.7020   17.2080 C.ar  364  TYR364      0.0417
     74  CZ        20.5310   85.3070   16.6650 C.ar  364  TYR364      0.1957
     75  OH        20.8470   83.9700   16.6450 O.3   364  TYR364     -0.2866
     76  N         26.5240   86.9620   17.7710 N.3   389  THR389     -0.1203
     77  CA        25.4340   86.4300   16.9380 C.3   389  THR389      0.1994
     78  C         25.7300   85.0290   16.4040 C.2   389  THR389      0.2619
     79  O         24.8610   84.4180   15.7800 O.2   389  THR389     -0.2717
     80  CB        25.0940   87.3590   15.7260 C.3   389  THR389      0.1784
     81  OG1       26.2120   87.4540   14.8390 O.3   389  THR389     -0.2211
     82  CG2       24.7030   88.7600   16.1850 C.3   389  THR389      0.0376
     83  N         26.9420   84.5110   16.6280 N.am  390  THR390     -0.1938
     84  CA        27.2090   83.0890   16.3530 C.3   390  THR390      0.2028
     85  C         26.3680   82.2250   17.2880 C.2   390  THR390      0.2643
     86  O         26.0570   81.0760   16.9760 O.2   390  THR390     -0.2714
     87  CB        28.7010   82.6970   16.5460 C.3   390  THR390      0.1808
     88  OG1       29.0540   82.8020   17.9360 O.3   390  THR390     -0.2208
     89  CG2       29.6290   83.5760   15.7040 C.3   390  THR390      0.0379
     90  N         26.0000   82.8260   18.4200 N.am  391  THR391     -0.1936
     91  CA        25.3480   82.2070   19.5750 C.3   391  THR391      0.2028
     92  C         26.3110   81.3790   20.4150 C.2   391  THR391      0.2642
     93  O         25.8970   80.7740   21.4020 O.2   391  THR391     -0.2714
     94  CB        24.1470   81.2830   19.2030 C.3   391  THR391      0.1808
     95  OG1       24.6280   80.1220   18.5240 O.3   391  THR391     -0.2208
     96  CG2       23.1460   81.9970   18.3310 C.3   391  THR391      0.0379
     97  N         27.5940   81.3690   20.0630 N.am  392  TYR392     -0.1973
     98  CA        28.5110   80.4310   20.7050 C.3   392  TYR392      0.1639
     99  C         28.8710   80.7770   22.1650 C.2   392  TYR392      0.2290
    100  O         29.0460   79.8600   22.9780 O.2   392  TYR392     -0.2864
    101  CB        29.7810   80.2770   19.8490 C.3   392  TYR392      0.0560
    102  CG        29.7210   79.0440   18.9770 C.ar  392  TYR392     -0.0198
    103  CD1       28.5070   78.5660   18.4920 C.ar  392  TYR392     -0.0009
    104  CD2       30.8710   78.3290   18.6780 C.ar  392  TYR392     -0.0009
    105  CE1       28.4460   77.4160   17.7120 C.ar  392  TYR392      0.0417
    106  CE2       30.8250   77.1800   17.9050 C.ar  392  TYR392      0.0417
    107  CZ        29.6230   76.7200   17.4280 C.ar  392  TYR392      0.1957
    108  OH        29.6150   75.5660   16.6620 O.3   392  TYR392     -0.2866
    109  N         25.7450   79.3090   23.7030 N.3   395  LEU395     -0.1245
    110  CA        25.6820   77.8380   23.7080 C.3   395  LEU395      0.1561
    111  C         26.6970   77.2190   24.6640 C.2   395  LEU395      0.2260
    112  O         26.4350   76.1890   25.2800 O.2   395  LEU395     -0.2867
    113  CB        25.9100   77.2670   22.3070 C.3   395  LEU395      0.0270
    114  CG        24.8950   77.6520   21.2370 C.3   395  LEU395      0.0019
    115  CD1       24.9950   76.7210   20.0550 C.3   395  LEU395      0.0001
    116  CD2       23.4860   77.6640   21.8370 C.3   395  LEU395      0.0001
    117  N         33.6370   79.7490   14.4920 N.3   428  CYS428     -0.1235
    118  CA        32.2600   79.6750   14.0180 C.3   428  CYS428      0.1677
    119  C         31.9350   80.8750   13.1300 C.2   428  CYS428      0.2270
    120  O         31.3130   80.7240   12.0890 O.2   428  CYS428     -0.2867
    121  CB        31.2650   79.6130   15.1810 C.3   428  CYS428      0.0956
    122  SG        29.5380   79.5010   14.6230 S.3   428  CYS428     -0.0801
    123  N         31.3640   80.3320    9.0350 N.3   432  ASP432     -0.1239
    124  CA        30.0100   80.6490    8.6150 C.3   432  ASP432      0.1674
    125  C         30.0180   81.7560    7.5380 C.2   432  ASP432      0.2266
    126  O         29.3400   81.6540    6.5130 O.2   432  ASP432     -0.2867
    127  CB        29.1900   81.0590    9.8390 C.3   432  ASP432      0.1410
    128  CG        27.7780   81.4890    9.4940 C.2   432  ASP432      0.3668
    129  OD1       27.2800   81.1410    8.4070 O.co2 432  ASP432     -0.2456
    130  OD2       27.1560   82.1620   10.3340 O.co2 432  ASP432     -0.2456
    131  N         28.5980   81.2930    3.7440 N.3   436  THR436     -0.1218
    132  CA        27.3340   81.9370    3.4170 C.3   436  THR436      0.1862
    133  C         27.5070   83.2570    2.6790 C.2   436  THR436      0.2287
    134  O         26.5250   83.9660    2.4680 O.2   436  THR436     -0.2866
    135  CB        26.4770   82.1870    4.6910 C.3   436  THR436      0.1770
    136  OG1       27.1040   83.1710    5.5240 O.3   436  THR436     -0.2211
    137  CG2       26.2750   80.8780    5.4810 C.3   436  THR436      0.0375
    138  N         24.1940   85.2680    0.9220 N.3   440  GLU440     -0.1245
    139  CA        23.7270   86.4750    1.5850 C.3   440  GLU440      0.1567
    140  C         24.0150   87.7350    0.7740 C.2   440  GLU440      0.2260
    141  O         23.3370   88.7470    0.9430 O.2   440  GLU440     -0.2867
    142  CB        24.3490   86.5870    2.9690 C.3   440  GLU440      0.0388
    143  CG        23.8690   85.5200    3.9240 C.3   440  GLU440      0.1160
    144  CD        24.2880   85.8040    5.3470 C.2   440  GLU440      0.3649
    145  OE1       24.4400   86.9980    5.6920 O.co2 440  GLU440     -0.2457
    146  OE2       24.4720   84.8340    6.1160 O.co2 440  GLU440     -0.2457
    147  N         30.0410   72.7060    8.3880 N.3   508  TYR508     -0.1241
    148  CA        30.2710   73.5280    7.2040 C.3   508  TYR508      0.1605
    149  C         31.3830   72.9610    6.3440 C.2   508  TYR508      0.2264
    150  O         32.0960   73.7160    5.6800 O.2   508  TYR508     -0.2867
    151  CB        30.6190   74.9650    7.5790 C.3   508  TYR508      0.0534
    152  CG        29.5690   75.7330    8.3520 C.ar  508  TYR508     -0.0201
    153  CD1       29.3930   75.5280    9.7130 C.ar  508  TYR508     -0.0009
    154  CD2       28.7970   76.7140    7.7320 C.ar  508  TYR508     -0.0009
    155  CE1       28.4520   76.2510   10.4320 C.ar  508  TYR508      0.0417
    156  CE2       27.8510   77.4460    8.4460 C.ar  508  TYR508      0.0417
    157  CZ        27.6850   77.2110    9.7950 C.ar  508  TYR508      0.1957
    158  OH        26.7520   77.9250   10.5150 O.3   508  TYR508     -0.2866
    159  N         26.3770   75.3430    4.2260 N.3   513  ASP513     -0.1239
    160  CA        25.6670   75.3620    5.5150 C.3   513  ASP513      0.1674
    161  C         24.8080   74.1030    5.7080 C.2   513  ASP513      0.2266
    162  O         23.6990   73.9960    5.1760 O.2   513  ASP513     -0.2867
    163  CB        24.7980   76.6280    5.6270 C.3   513  ASP513      0.1410
    164  CG        24.1560   76.7990    7.0080 C.2   513  ASP513      0.3668
    165  OD1       24.4790   76.0400    7.9490 O.co2 513  ASP513     -0.2456
    166  OD2       23.3280   77.7210    7.1550 O.co2 513  ASP513     -0.2456
    167  N         23.4020   73.0290    8.4320 N.3   515  TYR515     -0.1227
    168  CA        22.2900   73.1870    9.3610 C.3   515  TYR515      0.1736
    169  C         21.0390   73.6230    8.5970 C.2   515  TYR515      0.2596
    170  O         19.9470   73.0940    8.8110 O.2   515  TYR515     -0.2718
    171  CB        22.6320   74.1940   10.4610 C.3   515  TYR515      0.0548
    172  CG        21.4790   74.4690   11.3910 C.ar  515  TYR515     -0.0200
    173  CD1       21.1390   73.5650   12.3920 C.ar  515  TYR515     -0.0009
    174  CD2       20.7140   75.6230   11.2560 C.ar  515  TYR515     -0.0009
    175  CE1       20.0740   73.8110   13.2440 C.ar  515  TYR515      0.0417
    176  CE2       19.6430   75.8750   12.0980 C.ar  515  TYR515      0.0417
    177  CZ        19.3290   74.9660   13.0900 C.ar  515  TYR515      0.1957
    178  OH        18.2710   75.2170   13.9270 O.3   515  TYR515     -0.2866
    179  N         21.2110   74.5940    7.7060 N.am  516  THR516     -0.1953
    180  CA        20.1220   75.0700    6.8620 C.3   516  THR516      0.1897
    181  C         19.7980   74.0090    5.8020 C.2   516  THR516      0.2313
    182  O         18.6340   73.8000    5.4630 O.2   516  THR516     -0.2863
    183  CB        20.4790   76.4210    6.1950 C.3   516  THR516      0.1794
    184  OG1       20.7720   77.3970    7.2070 O.3   516  THR516     -0.2208
    185  CG2       19.3270   76.9430    5.3310 C.3   516  THR516      0.0378
@<TRIPOS>BOND
     1   140   141    2
     2   140   139    1
     3   138   139    1
     4   139   142    1
     5   134   133    2
     6   133   132    1
     7   142   143    1
     8   132   131    1
     9   132   135    1
    10   143   144    1
    11   159   160    1
    12   135   137    1
    13   135   136    1
    14   162   161    2
    15   185   183    1
    16   144   145   ar
    17   144   146   ar
    18   182   181    2
    19   160   163    1
    20   160   161    1
    21   163   164    1
    22   150   149    2
    23   181   180    1
    24   183   180    1
    25   183   184    1
    26   149   148    1
    27   126   125    2
    28   180   179    1
    29   164   166   ar
    30   164   165   ar
    31   148   151    1
    32   148   147    1
    33    59    58    2
    34   125   124    1
    35   151   152    1
    36   179   169   am
    37   154   152   ar
    38   154   156   ar
    39    63    61   ar
    40   152   153   ar
    41   129   128   ar
    42   167   168    1
    43   156   157   ar
    44    58    57    1
    45   169   170    2
    46   169   168    1
    47   124   123    1
    48   124   127    1
    49     6     7    1
    50     6     5    1
    51     7     8    1
    52    61    60    1
    53    61    62   ar
    54   168   171    1
    55   128   127    1
    56   128   130   ar
    57    60    57    1
    58    57    56    1
    59   153   155   ar
    60    10     9    1
    61   157   155   ar
    62   157   158    1
    63     5     2    1
    64     2     1    1
    65     2     3    1
    66     8     9    2
    67   171   172    1
    68     9    11    1
    69     3     4    2
    70   174   172   ar
    71   174   176   ar
    72   172   173   ar
    73   120   119    2
    74   176   177   ar
    75    55    53   ar
    76   173   175   ar
    77    51    50    2
    78   177   175   ar
    79   177   178    1
    80   119   118    1
    81    53    54   ar
    82    53    52    1
    83    50    49    1
    84    24    25   ar
    85    24    22   ar
    86    25    23   ar
    87   118   117    1
    88   118   121    1
    89    47    46    1
    90    52    49    1
    91    22    19   ar
    92    23    21   ar
    93    45    44    2
    94    49    48    1
    95   122   121    1
    96    67    66    2
    97    81    80    1
    98    44    43    1
    99    46    43    1
   100    19    21   ar
   101    19    17   ar
   102    89    87    1
   103    21    20   ar
   104    80    82    1
   105    80    77    1
   106    79    78    2
   107    66    65    1
   108    43    42    1
   109    72    70   ar
   110    72    74   ar
   111    70    69   ar
   112    65    68    1
   113    65    64    1
   114    84    87    1
   115    84    83    1
   116    84    85    1
   117    78    83   am
   118    78    77    1
   119    87    88    1
   120    75    74    1
   121   108   107    1
   122    74    73   ar
   123    69    68    1
   124    69    71   ar
   125    77    76    1
   126    86    85    2
   127    20    18   ar
   128    17    16    1
   129    17    18   ar
   130    12    13    1
   131    73    71   ar
   132    85    90   am
   133    37    36    2
   134   107   105   ar
   135   107   106   ar
   136    42    36   am
   137    16    13    1
   138    13    14    1
   139   105   103   ar
   140   106   104   ar
   141    36    35    1
   142    96    94    1
   143    90    91    1
   144    32    30    1
   145    29    28    2
   146   103   102   ar
   147    95    94    1
   148   104   102   ar
   149   102   101    1
   150    14    15    2
   151    94    91    1
   152    28    27    1
   153    91    92    1
   154    40    38    1
   155    35    34    1
   156    35    38    1
   157    30    27    1
   158    30    31    1
   159   101    98    1
   160    39    38    1
   161    39    41    1
   162   115   114    1
   163    97    92   am
   164    97    98    1
   165    27    26    1
   166    33    31    1
   167    92    93    2
   168    98    99    1
   169   114   116    1
   170   114   113    1
   171    99   100    2
   172   113   110    1
   173   109   110    1
   174   110   111    1
   175   111   112    2
