@<TRIPOS>MOLECULE
tmp/5ildA00.pdb
 169 159 0 0 0
SMALL
GASTEIGER

@<TRIPOS>ATOM
      1  N         12.8570   77.6900   10.4480 N.3   252  ARG252     -0.1245
      2  CA        13.4880   76.4150   10.1450 C.3   252  ARG252      0.1563
      3  C         13.0780   75.3380   11.1500 C.2   252  ARG252      0.2260
      4  O         13.2480   75.5140   12.3550 O.2   252  ARG252     -0.2867
      5  CB        15.0110   76.5730   10.1370 C.3   252  ARG252      0.0307
      6  CG        15.5740   77.2190    8.8850 C.3   252  ARG252      0.0489
      7  CD        17.0630   77.4820    9.0460 C.3   252  ARG252      0.2205
      8  NE        17.3140   78.4040   10.1490 N.pl3 252  ARG252     -0.0865
      9  CZ        18.5100   78.8780   10.4810 C.cat 252  ARG252      0.5346
     10  NH1       19.5870   78.5120    9.7950 N.pl3 252  ARG252      0.1354
     11  NH2       18.6280   79.7170   11.5040 N.pl3 252  ARG252      0.1354
     12  N         23.7240   68.5780   17.1420 N.3   261  TRP261     -0.1241
     13  CA        24.6350   69.5620   17.7390 C.3   261  TRP261      0.1605
     14  C         24.9220   69.2430   19.2080 C.2   261  TRP261      0.2264
     15  O         26.0770   69.2030   19.6270 O.2   261  TRP261     -0.2867
     16  CB        24.0890   70.9890   17.6010 C.3   261  TRP261      0.0550
     17  CG        24.4890   71.6130   16.3090 C.ar  261  TRP261      0.0003
     18  CD1       24.8830   70.9620   15.1730 C.ar  261  TRP261      0.0946
     19  CD2       24.5750   73.0200   16.0180 C.ar  261  TRP261      0.0152
     20  NE1       25.1880   71.8720   14.1880 N.ar  261  TRP261     -0.2442
     21  CE2       25.0070   73.1410   14.6800 C.ar  261  TRP261      0.0810
     22  CE3       24.3110   74.1810   16.7510 C.ar  261  TRP261      0.0012
     23  CZ2       25.1830   74.3850   14.0620 C.ar  261  TRP261      0.0191
     24  CZ3       24.4900   75.4200   16.1350 C.ar  261  TRP261      0.0001
     25  CH2       24.9210   75.5090   14.8050 C.ar  261  TRP261      0.0015
     26  N         19.0550   75.4650   21.7290 N.3   282  ILE282     -0.1245
     27  CA        19.4720   75.6380   20.3390 C.3   282  ILE282      0.1561
     28  C         18.2540   75.8050   19.4220 C.2   282  ILE282      0.2260
     29  O         18.2320   76.6900   18.5580 O.2   282  ILE282     -0.2867
     30  CB        20.3340   74.4720   19.8570 C.3   282  ILE282      0.0252
     31  CG1       21.6090   74.3790   20.7040 C.3   282  ILE282      0.0019
     32  CG2       20.7010   74.6690   18.4040 C.3   282  ILE282      0.0019
     33  CD1       22.4950   73.1930   20.3560 C.3   282  ILE282      0.0001
     34  N         16.5760   79.3430   20.1640 N.3   285  ILE285     -0.1231
     35  CA        17.2890   80.5310   19.6900 C.3   285  ILE285      0.1692
     36  C         17.2690   80.5710   18.1600 C.2   285  ILE285      0.2592
     37  O         17.3220   81.6430   17.5510 O.2   285  ILE285     -0.2718
     38  CB        18.7670   80.6180   20.2200 C.3   285  ILE285      0.0266
     39  CG1       19.3030   82.0460   20.0440 C.3   285  ILE285      0.0019
     40  CG2       19.6900   79.6160   19.5270 C.3   285  ILE285      0.0020
     41  CD1       18.3910   83.1410   20.6430 C.3   285  ILE285      0.0001
     42  N         17.1640   79.4030   17.5500 N.am  286  SER286     -0.1952
     43  CA        17.0630   79.2930   16.1020 C.3   286  SER286      0.1924
     44  C         15.7410   79.8620   15.5940 C.2   286  SER286      0.2314
     45  O         15.6670   80.3660   14.4780 O.2   286  SER286     -0.2863
     46  CB        17.2120   77.8300   15.6740 C.3   286  SER286      0.2116
     47  OG        17.0480   77.6940   14.2720 O.3   286  SER286     -0.2180
     48  N         16.2620   83.6620   15.7260 N.3   289  ASP289     -0.1239
     49  CA        17.1100   84.0600   14.6010 C.3   289  ASP289      0.1674
     50  C         16.2870   84.2490   13.3340 C.2   289  ASP289      0.2266
     51  O         16.4070   85.2710   12.6580 O.2   289  ASP289     -0.2867
     52  CB        18.2200   83.0220   14.3610 C.3   289  ASP289      0.1410
     53  CG        19.1420   83.3800   13.1820 C.2   289  ASP289      0.3668
     54  OD1       19.4750   84.5720   12.9590 O.co2 289  ASP289     -0.2456
     55  OD2       19.5500   82.4460   12.4670 O.co2 289  ASP289     -0.2456
     56  N         15.6440   87.3950   10.9400 N.3   293  ASP293     -0.1239
     57  CA        16.2790   87.3290    9.6260 C.3   293  ASP293      0.1674
     58  C         15.2960   87.2960    8.4550 C.2   293  ASP293      0.2266
     59  O         15.5890   87.8210    7.3780 O.2   293  ASP293     -0.2867
     60  CB        17.2030   86.1090    9.5500 C.3   293  ASP293      0.1410
     61  CG        18.3610   86.3130    8.5850 C.2   293  ASP293      0.3668
     62  OD1       19.4060   86.8620    9.0090 O.co2 293  ASP293     -0.2456
     63  OD2       18.2270   85.9270    7.4030 O.co2 293  ASP293     -0.2456
     64  N         21.3760   90.6650   17.4830 N.3   364  TYR364     -0.1241
     65  CA        20.4680   90.4050   16.3690 C.3   364  TYR364      0.1605
     66  C         19.8250   91.7110   15.8840 C.2   364  TYR364      0.2264
     67  O         19.7840   91.9860   14.6860 O.2   364  TYR364     -0.2867
     68  CB        19.3570   89.4340   16.7670 C.3   364  TYR364      0.0534
     69  CG        19.7150   87.9660   16.7300 C.ar  364  TYR364     -0.0201
     70  CD1       20.8620   87.5140   16.0860 C.ar  364  TYR364     -0.0009
     71  CD2       18.8890   87.0280   17.3350 C.ar  364  TYR364     -0.0009
     72  CE1       21.1790   86.1630   16.0560 C.ar  364  TYR364      0.0417
     73  CE2       19.1940   85.6780   17.3100 C.ar  364  TYR364      0.0417
     74  CZ        20.3350   85.2470   16.6690 C.ar  364  TYR364      0.1957
     75  OH        20.6230   83.8950   16.6520 O.3   364  TYR364     -0.2866
     76  N         26.4340   86.9550   17.7920 N.3   389  THR389     -0.1203
     77  CA        25.3230   86.4180   17.0040 C.3   389  THR389      0.1994
     78  C         25.6060   85.0180   16.4400 C.2   389  THR389      0.2619
     79  O         24.7440   84.4440   15.7700 O.2   389  THR389     -0.2717
     80  CB        24.9250   87.3390   15.8180 C.3   389  THR389      0.1784
     81  OG1       25.9820   87.3790   14.8610 O.3   389  THR389     -0.2211
     82  CG2       24.5880   88.7570   16.2820 C.3   389  THR389      0.0376
     83  N         26.7930   84.4610   16.7050 N.am  390  THR390     -0.1938
     84  CA        27.0490   83.0380   16.4120 C.3   390  THR390      0.2028
     85  C         26.2190   82.1680   17.3410 C.2   390  THR390      0.2642
     86  O         25.9790   80.9870   17.0590 O.2   390  THR390     -0.2714
     87  CB        28.5260   82.6470   16.6100 C.3   390  THR390      0.1808
     88  OG1       28.9080   82.9050   17.9720 O.3   390  THR390     -0.2208
     89  CG2       29.4360   83.4320   15.6690 C.3   390  THR390      0.0379
     90  N         25.8080   82.7890   18.4500 N.am  391  THR391     -0.1950
     91  CA        25.1470   82.1920   19.6200 C.3   391  THR391      0.1897
     92  C         26.1200   81.3820   20.4750 C.2   391  THR391      0.2313
     93  O         25.7230   80.8150   21.4950 O.2   391  THR391     -0.2863
     94  CB        23.9430   81.2770   19.2550 C.3   391  THR391      0.1794
     95  OG1       24.4120   80.0830   18.6250 O.3   391  THR391     -0.2208
     96  CG2       22.9420   82.0010   18.3430 C.3   391  THR391      0.0378
     97  N         25.5710   79.2700   23.7780 N.3   395  LEU395     -0.1245
     98  CA        25.5060   77.8000   23.7990 C.3   395  LEU395      0.1561
     99  C         26.5160   77.2190   24.7770 C.2   395  LEU395      0.2260
    100  O         26.2200   76.2470   25.4610 O.2   395  LEU395     -0.2867
    101  CB        25.7370   77.1950   22.4100 C.3   395  LEU395      0.0270
    102  CG        24.7340   77.5940   21.3220 C.3   395  LEU395      0.0019
    103  CD1       24.8460   76.6710   20.1170 C.3   395  LEU395      0.0001
    104  CD2       23.3010   77.6210   21.8620 C.3   395  LEU395      0.0001
    105  N         32.2410   82.0580   13.5320 N.3   429  ARG429     -0.1245
    106  CA        31.9470   83.2920   12.7900 C.3   429  ARG429      0.1563
    107  C         32.5630   83.2900   11.3900 C.2   429  ARG429      0.2260
    108  O         31.8570   83.5160   10.4070 O.2   429  ARG429     -0.2867
    109  CB        32.4320   84.5200   13.5780 C.3   429  ARG429      0.0307
    110  CG        32.2880   85.8830   12.8500 C.3   429  ARG429      0.0489
    111  CD        30.9780   86.0200   12.0510 C.3   429  ARG429      0.2205
    112  NE        29.7830   85.9690   12.8770 N.pl3 429  ARG429     -0.0865
    113  CZ        28.6090   85.4690   12.4890 C.cat 429  ARG429      0.5346
    114  NH1       28.4470   84.9510   11.2730 N.pl3 429  ARG429      0.1354
    115  NH2       27.5840   85.4850   13.3280 N.pl3 429  ARG429      0.1354
    116  N         31.2610   80.3570    9.0170 N.3   432  ASP432     -0.1239
    117  CA        29.8900   80.6320    8.5880 C.3   432  ASP432      0.1674
    118  C         29.8590   81.7550    7.5490 C.2   432  ASP432      0.2266
    119  O         29.1010   81.7000    6.5800 O.2   432  ASP432     -0.2867
    120  CB        29.0060   80.9950    9.7890 C.3   432  ASP432      0.1410
    121  CG        27.5980   81.4030    9.3750 C.2   432  ASP432      0.3668
    122  OD1       26.7360   80.5110    9.2090 O.co2 432  ASP432     -0.2456
    123  OD2       27.3440   82.6130    9.2140 O.co2 432  ASP432     -0.2456
    124  N         28.3710   81.2860    3.8850 N.3   436  THR436     -0.1218
    125  CA        27.0910   81.9260    3.5960 C.3   436  THR436      0.1862
    126  C         27.2630   83.2750    2.9160 C.2   436  THR436      0.2287
    127  O         26.2990   84.0300    2.7900 O.2   436  THR436     -0.2866
    128  CB        26.2400   82.1150    4.8770 C.3   436  THR436      0.1770
    129  OG1       26.8320   83.1180    5.7180 O.3   436  THR436     -0.2211
    130  CG2       26.1100   80.7910    5.6510 C.3   436  THR436      0.0375
    131  N         30.0210   72.7300    8.3670 N.3   508  TYR508     -0.1241
    132  CA        30.2820   73.5670    7.2060 C.3   508  TYR508      0.1605
    133  C         31.3810   72.9840    6.3390 C.2   508  TYR508      0.2264
    134  O         32.0710   73.7240    5.6400 O.2   508  TYR508     -0.2867
    135  CB        30.6660   74.9880    7.6350 C.3   508  TYR508      0.0534
    136  CG        29.5700   75.7590    8.3350 C.ar  508  TYR508     -0.0201
    137  CD1       29.3590   75.6170    9.7000 C.ar  508  TYR508     -0.0009
    138  CD2       28.7570   76.6420    7.6340 C.ar  508  TYR508     -0.0009
    139  CE1       28.3620   76.3240   10.3480 C.ar  508  TYR508      0.0417
    140  CE2       27.7580   77.3610    8.2750 C.ar  508  TYR508      0.0417
    141  CZ        27.5650   77.1970    9.6320 C.ar  508  TYR508      0.1957
    142  OH        26.5720   77.8980   10.2760 O.3   508  TYR508     -0.2866
    143  N         26.4550   75.4450    4.0590 N.3   513  ASP513     -0.1239
    144  CA        25.6260   75.6290    5.2550 C.3   513  ASP513      0.1674
    145  C         24.8370   74.3470    5.5620 C.2   513  ASP513      0.2266
    146  O         23.7190   74.1650    5.0840 O.2   513  ASP513     -0.2867
    147  CB        24.6760   76.8270    5.0590 C.3   513  ASP513      0.1410
    148  CG        23.9440   77.2370    6.3400 C.2   513  ASP513      0.3668
    149  OD1       23.9960   76.5060    7.3570 O.co2 513  ASP513     -0.2456
    150  OD2       23.2940   78.3040    6.3170 O.co2 513  ASP513     -0.2456
    151  N         23.4580   73.1710    8.3380 N.3   515  TYR515     -0.1227
    152  CA        22.3120   73.2550    9.2370 C.3   515  TYR515      0.1736
    153  C         21.0540   73.6950    8.4720 C.2   515  TYR515      0.2596
    154  O         19.9620   73.1600    8.6900 O.2   515  TYR515     -0.2718
    155  CB        22.6100   74.2170   10.3920 C.3   515  TYR515      0.0548
    156  CG        21.4400   74.4650   11.3210 C.ar  515  TYR515     -0.0200
    157  CD1       21.1190   73.5590   12.3300 C.ar  515  TYR515     -0.0009
    158  CD2       20.6590   75.6090   11.1930 C.ar  515  TYR515     -0.0009
    159  CE1       20.0490   73.7890   13.1810 C.ar  515  TYR515      0.0417
    160  CE2       19.5880   75.8440   12.0360 C.ar  515  TYR515      0.0417
    161  CZ        19.2890   74.9340   13.0280 C.ar  515  TYR515      0.1957
    162  OH        18.2250   75.1760   13.8660 O.3   515  TYR515     -0.2866
    163  N         21.2170   74.6680    7.5760 N.am  516  THR516     -0.1953
    164  CA        20.1220   75.1080    6.7140 C.3   516  THR516      0.1897
    165  C         19.7990   74.0460    5.6560 C.2   516  THR516      0.2313
    166  O         18.6280   73.8070    5.3410 O.2   516  THR516     -0.2863
    167  CB        20.4520   76.4450    6.0190 C.3   516  THR516      0.1794
    168  OG1       20.6920   77.4540    7.0080 O.3   516  THR516     -0.2208
    169  CG2       19.2980   76.8880    5.1240 C.3   516  THR516      0.0378
@<TRIPOS>BOND
     1   127   126    2
     2   126   125    1
     3   125   124    1
     4   125   128    1
     5   143   144    1
     6   128   130    1
     7   128   129    1
     8   147   144    1
     9   147   148    1
    10   146   145    2
    11   169   167    1
    12   144   145    1
    13   166   165    2
    14   134   133    2
    15   165   164    1
    16   167   164    1
    17   167   168    1
    18   150   148   ar
    19   133   132    1
    20   148   149   ar
    21   119   118    2
    22   164   163    1
    23   132   135    1
    24   132   131    1
    25    59    58    2
    26    63    61   ar
    27   118   117    1
    28   163   153   am
    29   138   140   ar
    30   138   136   ar
    31   135   136    1
    32   140   141   ar
    33   136   137   ar
    34   151   152    1
    35    58    57    1
    36   153   154    2
    37   153   152    1
    38    61    62   ar
    39    61    60    1
    40   117   116    1
    41   117   120    1
    42     6     7    1
    43     6     5    1
    44     7     8    1
    45   122   121   ar
    46   123   121   ar
    47   152   155    1
    48   121   120    1
    49    60    57    1
    50    57    56    1
    51   141   142    1
    52   141   139   ar
    53   137   139   ar
    54    10     9    1
    55     5     2    1
    56     2     1    1
    57     2     3    1
    58     8     9    2
    59   155   156    1
    60   108   107    2
    61     9    11    1
    62     3     4    2
    63   158   156   ar
    64   158   160   ar
    65   114   113    1
    66   156   157   ar
    67   107   106    1
    68   160   161   ar
    69   111   110    1
    70   111   112    1
    71   157   159   ar
    72    55    53   ar
    73   113   112    2
    74   113   115    1
    75    51    50    2
    76   106   105    1
    77   106   109    1
    78   110   109    1
    79    54    53   ar
    80   161   159   ar
    81   161   162    1
    82    53    52    1
    83    50    49    1
    84    23    21   ar
    85    23    25   ar
    86    20    21   ar
    87    20    18   ar
    88    47    46    1
    89    52    49    1
    90    45    44    2
    91    49    48    1
    92    21    19   ar
    93    67    66    2
    94    25    24   ar
    95    81    80    1
    96    18    17   ar
    97    44    43    1
    98    89    87    1
    99    46    43    1
   100    79    78    2
   101    80    82    1
   102    80    77    1
   103    66    65    1
   104    19    17   ar
   105    19    22   ar
   106    72    70   ar
   107    72    74   ar
   108    70    69   ar
   109    43    42    1
   110    24    22   ar
   111    17    16    1
   112    65    68    1
   113    65    64    1
   114    84    87    1
   115    84    83    1
   116    84    85    1
   117    78    83   am
   118    78    77    1
   119    87    88    1
   120    75    74    1
   121    74    73   ar
   122    69    68    1
   123    69    71   ar
   124    77    76    1
   125    86    85    2
   126    12    13    1
   127    73    71   ar
   128    85    90   am
   129    42    36   am
   130    37    36    2
   131    16    13    1
   132    13    14    1
   133    36    35    1
   134    96    94    1
   135    32    30    1
   136    90    91    1
   137    29    28    2
   138    95    94    1
   139    14    15    2
   140    94    91    1
   141    28    27    1
   142    40    38    1
   143    91    92    1
   144    35    34    1
   145    35    38    1
   146    30    27    1
   147    30    31    1
   148    39    38    1
   149    39    41    1
   150   103   102    1
   151    27    26    1
   152    33    31    1
   153    92    93    2
   154   102   104    1
   155   102   101    1
   156   101    98    1
   157    97    98    1
   158    98    99    1
   159    99   100    2
