@<TRIPOS>MOLECULE
tmp/5ilgA01.pdb
 113 109 0 0 0
SMALL
GASTEIGER

@<TRIPOS>ATOM
      1  N         -9.8090   -3.6200   10.5780 N.3    98  PHE98      -0.1241
      2  CA        -8.7450   -3.1690   11.4710 C.3    98  PHE98       0.1605
      3  C         -9.1150   -1.8040   12.0580 C.2    98  PHE98       0.2264
      4  O         -9.3420   -0.8410   11.2960 O.2    98  PHE98      -0.2867
      5  CB        -7.3630   -3.0630   10.8320 C.3    98  PHE98       0.0534
      6  CG        -6.3470   -2.4440   11.7580 C.ar   98  PHE98      -0.0203
      7  CD1       -5.8320   -3.1760   12.8200 C.ar   98  PHE98      -0.0042
      8  CD2       -5.9950   -1.1150   11.6390 C.ar   98  PHE98      -0.0042
      9  CE1       -4.9670   -2.6020   13.7330 C.ar   98  PHE98      -0.0003
     10  CE2       -5.1100   -0.5330   12.5340 C.ar   98  PHE98      -0.0003
     11  CZ        -4.5840   -1.2850   13.5760 C.ar   98  PHE98      -0.0000
     12  N         -5.1520  -14.6010   10.2970 N.3   141  SER141     -0.1202
     13  CA        -3.9900  -13.8830    9.7570 C.3   141  SER141      0.2020
     14  C         -2.7160  -14.5270   10.2860 C.2   141  SER141      0.2619
     15  O         -2.7400  -15.1760   11.3420 O.2   141  SER141     -0.2717
     16  CB        -4.0470  -12.4320   10.2390 C.3   141  SER141      0.2103
     17  OG        -2.8700  -11.7020    9.9830 O.3   141  SER141     -0.2182
     18  N         -1.6000  -14.3190    9.5870 N.am  142  VAL142     -0.1965
     19  CA        -0.2810  -14.7030   10.1380 C.3   142  VAL142      0.1727
     20  C         -0.0280  -14.1200   11.5410 C.2   142  VAL142      0.2616
     21  O          0.5820  -14.7710   12.3660 O.2   142  VAL142     -0.2715
     22  CB         0.9440  -14.3440    9.2510 C.3   142  VAL142      0.0290
     23  CG1        0.9430  -15.1690    7.9890 C.3   142  VAL142      0.0023
     24  CG2        1.0310  -12.8500    8.9480 C.3   142  VAL142      0.0023
     25  N         -0.5030  -12.9080   11.7940 N.am  143  VAL143     -0.1977
     26  CA        -0.3000  -12.2730   13.0890 C.3   143  VAL143      0.1596
     27  C         -1.0090  -12.9980   14.2280 C.2   143  VAL143      0.2287
     28  O         -0.7010  -12.7910   15.4160 O.2   143  VAL143     -0.2864
     29  CB        -0.6880  -10.7780   13.0950 C.3   143  VAL143      0.0276
     30  CG1       -0.0610  -10.0620   11.9050 C.3   143  VAL143      0.0022
     31  CG2       -2.1910  -10.5880   13.1150 C.3   143  VAL143      0.0022
     32  N          2.1470   -9.5890   16.3730 N.3   148  MET148     -0.1245
     33  CA         2.7570   -8.4430   15.7450 C.3   148  MET148      0.1570
     34  C          2.4180   -7.2880   16.6710 C.2   148  MET148      0.2261
     35  O          1.2680   -6.8940   16.7950 O.2   148  MET148     -0.2867
     36  CB         2.1980   -8.2510   14.3470 C.3   148  MET148      0.0387
     37  CG         3.2040   -7.6980   13.3500 C.3   148  MET148      0.0595
     38  SD         3.7910   -6.0160   13.7100 S.3   148  MET148     -0.1393
     39  CE         2.2400   -5.2800   13.8880 C.3   148  MET148      0.0692
     40  N         -0.1560   -4.1820   16.6200 N.3   151  ILE151     -0.1245
     41  CA        -1.5910   -4.4290   16.4720 C.3   151  ILE151      0.1561
     42  C         -2.0460   -5.5600   17.4040 C.2   151  ILE151      0.2260
     43  O         -2.4390   -6.6540   16.9510 O.2   151  ILE151     -0.2867
     44  CB        -1.9670   -4.6670   14.9960 C.3   151  ILE151      0.0252
     45  CG1       -1.1720   -5.8250   14.3820 C.3   151  ILE151      0.0019
     46  CG2       -1.7010   -3.4100   14.1940 C.3   151  ILE151      0.0019
     47  CD1       -1.4510   -6.1330   12.9140 C.3   151  ILE151      0.0001
     48  N         -6.4350   -6.3810   17.2320 N.3   154  TYR154     -0.1241
     49  CA        -6.6180   -7.1060   15.9800 C.3   154  TYR154      0.1605
     50  C         -6.0450   -8.5410   16.0610 C.2   154  TYR154      0.2264
     51  O         -6.7140   -9.5230   15.7200 O.2   154  TYR154     -0.2867
     52  CB        -5.9800   -6.3400   14.8260 C.3   154  TYR154      0.0534
     53  CG        -6.0040   -7.0450   13.4950 C.ar  154  TYR154     -0.0201
     54  CD1       -7.1170   -6.9850   12.6700 C.ar  154  TYR154     -0.0009
     55  CD2       -4.9210   -7.7720   13.0540 C.ar  154  TYR154     -0.0009
     56  CE1       -7.1350   -7.6170   11.4220 C.ar  154  TYR154      0.0417
     57  CE2       -4.9350   -8.4340   11.8350 C.ar  154  TYR154      0.0417
     58  CZ        -6.0350   -8.3390   11.0130 C.ar  154  TYR154      0.1957
     59  OH        -6.0560   -9.0070    9.8020 O.3   154  TYR154     -0.2866
     60  N         -3.3030  -15.3420    6.0220 N.3   186  PRO186     -0.2102
     61  CA        -2.5190  -14.5860    5.0670 C.3   186  PRO186      0.1504
     62  C         -1.6280  -13.5350    5.6730 C.2   186  PRO186      0.2576
     63  O         -1.9400  -12.9450    6.7260 O.2   186  PRO186     -0.2718
     64  CB        -3.5760  -13.9270    4.1640 C.3   186  PRO186      0.0282
     65  CG        -4.8870  -14.5740    4.5340 C.3   186  PRO186      0.0208
     66  CD        -4.7290  -14.9770    5.9530 C.3   186  PRO186      0.0893
     67  N         -0.5260  -13.2830    4.9730 N.am  187  GLY187     -0.1943
     68  CA         0.3070  -12.1200    5.2670 C.3   187  GLY187      0.2014
     69  C         -0.2730  -10.8450    4.6730 C.2   187  GLY187      0.2638
     70  O         -1.3180  -10.8400    4.0480 O.2   187  GLY187     -0.2714
     71  N          0.4590   -9.7660    4.8630 N.am  188  ALA188     -0.1977
     72  CA         0.1070   -8.4510    4.3340 C.3   188  ALA188      0.1597
     73  C         -0.3800   -8.5440    2.8930 C.2   188  ALA188      0.2287
     74  O          0.2030   -9.2140    2.0530 O.2   188  ALA188     -0.2864
     75  CB         1.3080   -7.5140    4.4130 C.3   188  ALA188      0.0319
     76  N         -8.3720   -2.3580    3.9890 N.3   193  MET193     -0.1230
     77  CA        -8.1500   -2.5190    5.4510 C.3   193  MET193      0.1702
     78  C         -7.0470   -1.6030    5.9940 C.2   193  MET193      0.2592
     79  O         -7.1070   -1.1630    7.1440 O.2   193  MET193     -0.2718
     80  CB        -7.8260   -3.9740    5.8190 C.3   193  MET193      0.0401
     81  CG        -7.8850   -4.2250    7.3310 C.3   193  MET193      0.0596
     82  SD        -7.5680   -5.8900    7.9210 S.3   193  MET193     -0.1393
     83  CE        -5.8340   -5.9980    7.6050 C.3   193  MET193      0.0692
     84  N         -6.0730   -1.2960    5.1390 N.am  194  PHE194     -0.1976
     85  CA        -4.9300   -0.4570    5.4900 C.3   194  PHE194      0.1639
     86  C         -5.1000    1.0200    5.2030 C.2   194  PHE194      0.2290
     87  O         -4.1800    1.7830    5.4270 O.2   194  PHE194     -0.2864
     88  CB        -3.6530   -0.9960    4.8440 C.3   194  PHE194      0.0560
     89  CG        -3.2510   -2.3400    5.3810 C.ar  194  PHE194     -0.0200
     90  CD1       -2.7570   -2.4690    6.6780 C.ar  194  PHE194     -0.0042
     91  CD2       -3.4420   -3.4770    4.6350 C.ar  194  PHE194     -0.0042
     92  CE1       -2.4330   -3.7020    7.2010 C.ar  194  PHE194     -0.0003
     93  CE2       -3.0980   -4.7150    5.1370 C.ar  194  PHE194     -0.0003
     94  CZ        -2.5950   -4.8410    6.4300 C.ar  194  PHE194     -0.0000
     95  N         -4.2690    3.5660    8.1120 N.3   197  PHE197     -0.1241
     96  CA        -3.8150    2.5600    9.0800 C.3   197  PHE197      0.1605
     97  C         -3.2510    3.1690   10.3690 C.2   197  PHE197      0.2264
     98  O         -3.7250    2.9000   11.4690 O.2   197  PHE197     -0.2867
     99  CB        -2.7800    1.6730    8.4460 C.3   197  PHE197      0.0534
    100  CG        -2.2620    0.5850    9.3560 C.ar  197  PHE197     -0.0203
    101  CD1       -3.0520   -0.5160    9.6840 C.ar  197  PHE197     -0.0042
    102  CD2       -0.9520    0.6430    9.8760 C.ar  197  PHE197     -0.0042
    103  CE1       -2.5490   -1.5440   10.5040 C.ar  197  PHE197     -0.0003
    104  CE2       -0.4570   -0.3700   10.7000 C.ar  197  PHE197     -0.0003
    105  CZ        -1.2620   -1.4620   11.0050 C.ar  197  PHE197     -0.0000
    106  N          4.7360   -3.2930    8.4080 N.3   213  ILE213     -0.1245
    107  CA         3.5730   -3.8690    7.7230 C.3   213  ILE213      0.1561
    108  C          3.3890   -3.2660    6.3350 C.2   213  ILE213      0.2260
    109  O          3.2910   -3.9960    5.3310 O.2   213  ILE213     -0.2867
    110  CB         2.3020   -3.6510    8.5440 C.3   213  ILE213      0.0252
    111  CG1        2.4660   -4.3480    9.8940 C.3   213  ILE213      0.0019
    112  CG2        1.0760   -4.1740    7.8010 C.3   213  ILE213      0.0019
    113  CD1        1.3120   -4.0950   10.8280 C.3   213  ILE213      0.0001
@<TRIPOS>BOND
     1    74    73    2
     2    73    72    1
     3    76    77    1
     4    70    69    2
     5    64    65    1
     6    64    61    1
     7    72    75    1
     8    72    71    1
     9    65    66    1
    10    91    93   ar
    11    91    89   ar
    12    69    71   am
    13    69    68    1
    14    88    89    1
    15    88    85    1
    16    67    68    1
    17    67    62   am
    18    61    62    1
    19    61    60    1
    20    93    94   ar
    21    84    85    1
    22    84    78   am
    23    86    87    2
    24    86    85    1
    25   109   108    2
    26    89    90   ar
    27    77    80    1
    28    77    78    1
    29    62    63    2
    30    80    81    1
    31    66    60    1
    32    78    79    2
    33   108   107    1
    34    94    92   ar
    35    90    92   ar
    36    81    82    1
    37    83    82    1
    38   107   106    1
    39   107   110    1
    40   112   110    1
    41    23    22    1
    42    95    96    1
    43    99    96    1
    44    99   100    1
    45   110   111    1
    46    24    22    1
    47    96    97    1
    48    22    19    1
    49   100   101   ar
    50   100   102   ar
    51    18    19    1
    52    18    14   am
    53   101   103   ar
    54    13    16    1
    55    13    14    1
    56    13    12    1
    57    59    58    1
    58   102   104   ar
    59   111   113    1
    60    17    16    1
    61    19    20    1
    62    14    15    2
    63    97    98    2
    64   103   105   ar
    65     1     2    1
    66   104   105   ar
    67     5     2    1
    68     5     6    1
    69    58    56   ar
    70    58    57   ar
    71     4     3    2
    72    56    54   ar
    73     2     3    1
    74    20    25   am
    75    20    21    2
    76     8     6   ar
    77     8    10   ar
    78     6     7   ar
    79    25    26    1
    80    57    55   ar
    81    30    29    1
    82    10    11   ar
    83    54    53   ar
    84     7     9   ar
    85    47    45    1
    86    55    53   ar
    87    26    29    1
    88    26    27    1
    89    29    31    1
    90    37    38    1
    91    37    36    1
    92    53    52    1
    93    11     9   ar
    94    38    39    1
    95    46    44    1
    96    27    28    2
    97    36    33    1
    98    45    44    1
    99    52    49    1
   100    44    41    1
   101    51    50    2
   102    33    32    1
   103    33    34    1
   104    49    50    1
   105    49    48    1
   106    41    40    1
   107    41    42    1
   108    34    35    2
   109    43    42    2
