@<TRIPOS>MOLECULE
tmp/5ilhA00.pdb
 189 179 0 0 0
SMALL
GASTEIGER

@<TRIPOS>ATOM
      1  N         12.2240   77.0180   10.7430 N.3   252  ARG252     -0.1245
      2  CA        12.7940   75.7120   10.4310 C.3   252  ARG252      0.1563
      3  C         12.2910   74.6230   11.3710 C.2   252  ARG252      0.2260
      4  O         12.1710   74.8260   12.5770 O.2   252  ARG252     -0.2867
      5  CB        14.3220   75.7740   10.4900 C.3   252  ARG252      0.0307
      6  CG        14.9520   76.5740    9.3650 C.3   252  ARG252      0.0489
      7  CD        16.4380   76.7970    9.5950 C.3   252  ARG252      0.2205
      8  NE        16.6810   77.7170   10.7010 N.pl3 252  ARG252     -0.0865
      9  CZ        17.7890   78.4390   10.8410 C.cat 252  ARG252      0.5346
     10  NH1       18.7550   78.3510    9.9360 N.pl3 252  ARG252      0.1354
     11  NH2       17.9280   79.2550   11.8800 N.pl3 252  ARG252      0.1354
     12  N         19.1500   69.5650   15.6530 N.3   258  CYS258     -0.1235
     13  CA        19.5460   70.1250   16.9430 C.3   258  CYS258      0.1677
     14  C         20.0040   69.0360   17.9140 C.2   258  CYS258      0.2270
     15  O         20.9330   69.2570   18.6860 O.2   258  CYS258     -0.2867
     16  CB        18.4150   70.9280   17.5640 C.3   258  CYS258      0.0956
     17  SG        18.0210   72.4520   16.6550 S.3   258  CYS258     -0.0801
     18  N         23.5080   68.0210   17.1680 N.3   261  TRP261     -0.1241
     19  CA        24.4860   68.9840   17.6620 C.3   261  TRP261      0.1605
     20  C         24.7080   68.8410   19.1720 C.2   261  TRP261      0.2264
     21  O         25.8330   68.9830   19.6470 O.2   261  TRP261     -0.2867
     22  CB        24.0580   70.4070   17.2910 C.3   261  TRP261      0.0550
     23  CG        24.2310   70.6730   15.8160 C.ar  261  TRP261      0.0003
     24  CD1       25.2330   70.2000   15.0150 C.ar  261  TRP261      0.0946
     25  CD2       23.3630   71.4310   14.9630 C.ar  261  TRP261      0.0152
     26  NE1       25.0570   70.6360   13.7240 N.ar  261  TRP261     -0.2442
     27  CE2       23.9150   71.3910   13.6640 C.ar  261  TRP261      0.0810
     28  CE3       22.1760   72.1410   15.1690 C.ar  261  TRP261      0.0012
     29  CZ2       23.3230   72.0370   12.5810 C.ar  261  TRP261      0.0191
     30  CZ3       21.5900   72.7840   14.0910 C.ar  261  TRP261      0.0001
     31  CH2       22.1630   72.7250   12.8130 C.ar  261  TRP261      0.0015
     32  N         18.7860   75.0370   21.7440 N.3   282  ILE282     -0.1245
     33  CA        19.1770   75.2050   20.3430 C.3   282  ILE282      0.1561
     34  C         17.9560   75.3220   19.4360 C.2   282  ILE282      0.2260
     35  O         17.9290   76.1510   18.5240 O.2   282  ILE282     -0.2867
     36  CB        20.0580   74.0560   19.8440 C.3   282  ILE282      0.0252
     37  CG1       21.3410   73.9600   20.6810 C.3   282  ILE282      0.0019
     38  CG2       20.4220   74.2860   18.3880 C.3   282  ILE282      0.0019
     39  CD1       22.2840   72.8340   20.2480 C.3   282  ILE282      0.0001
     40  N         16.2750   78.8360   20.0840 N.3   285  ILE285     -0.1231
     41  CA        16.9930   80.0040   19.5750 C.3   285  ILE285      0.1692
     42  C         17.0010   79.9960   18.0450 C.2   285  ILE285      0.2592
     43  O         17.0960   81.0470   17.4080 O.2   285  ILE285     -0.2718
     44  CB        18.4470   80.1140   20.1280 C.3   285  ILE285      0.0266
     45  CG1       18.9650   81.5480   19.9510 C.3   285  ILE285      0.0019
     46  CG2       19.3970   79.1210   19.4620 C.3   285  ILE285      0.0020
     47  CD1       18.1780   82.5950   20.7240 C.3   285  ILE285      0.0001
     48  N         16.8670   78.8120   17.4610 N.am  286  SER286     -0.1952
     49  CA        16.6880   78.6920   16.0200 C.3   286  SER286      0.1924
     50  C         15.3760   79.3410   15.5620 C.2   286  SER286      0.2314
     51  O         15.2970   79.9110   14.4750 O.2   286  SER286     -0.2863
     52  CB        16.7180   77.2220   15.6090 C.3   286  SER286      0.2116
     53  OG        16.5820   77.0850   14.2080 O.3   286  SER286     -0.2180
     54  N         16.0030   83.0910   15.6690 N.3   289  ASP289     -0.1239
     55  CA        16.8360   83.4700   14.5320 C.3   289  ASP289      0.1674
     56  C         15.9930   83.6930   13.2810 C.2   289  ASP289      0.2266
     57  O         16.0950   84.7360   12.6300 O.2   289  ASP289     -0.2867
     58  CB        17.9010   82.4030   14.2600 C.3   289  ASP289      0.1410
     59  CG        18.8520   82.8000   13.1480 C.2   289  ASP289      0.3668
     60  OD1       19.3890   83.9220   13.2010 O.co2 289  ASP289     -0.2456
     61  OD2       19.0680   81.9920   12.2190 O.co2 289  ASP289     -0.2456
     62  N         15.2940   86.7730   10.8860 N.3   293  ASP293     -0.1239
     63  CA        15.8800   86.5990    9.5630 C.3   293  ASP293      0.1674
     64  C         14.8810   86.5960    8.4190 C.2   293  ASP293      0.2266
     65  O         15.2010   87.0380    7.3170 O.2   293  ASP293     -0.2867
     66  CB        16.6730   85.2940    9.5160 C.3   293  ASP293      0.1410
     67  CG        18.1650   85.5160    9.5400 C.2   293  ASP293      0.3668
     68  OD1       18.6050   86.6060    9.9680 O.co2 293  ASP293     -0.2456
     69  OD2       18.9000   84.5910    9.1360 O.co2 293  ASP293     -0.2456
     70  N         21.1480   90.1790   17.3130 N.3   364  TYR364     -0.1241
     71  CA        20.2390   89.8880   16.2040 C.3   364  TYR364      0.1605
     72  C         19.5830   91.1910   15.7270 C.2   364  TYR364      0.2264
     73  O         19.4930   91.4660   14.5310 O.2   364  TYR364     -0.2867
     74  CB        19.1310   88.9140   16.6150 C.3   364  TYR364      0.0534
     75  CG        19.4770   87.4370   16.6310 C.ar  364  TYR364     -0.0201
     76  CD1       20.6740   86.9650   16.1090 C.ar  364  TYR364     -0.0009
     77  CD2       18.5830   86.5160   17.1630 C.ar  364  TYR364     -0.0009
     78  CE1       20.9740   85.6040   16.1260 C.ar  364  TYR364      0.0417
     79  CE2       18.8710   85.1680   17.1860 C.ar  364  TYR364      0.0417
     80  CZ        20.0650   84.7170   16.6660 C.ar  364  TYR364      0.1957
     81  OH        20.3470   83.3750   16.6890 O.3   364  TYR364     -0.2866
     82  N         21.8760   93.4150   13.9030 N.3   367  GLU367     -0.1245
     83  CA        22.1200   92.8040   12.6020 C.3   367  GLU367      0.1567
     84  C         21.0000   93.1740   11.6280 C.2   367  GLU367      0.2260
     85  O         21.2470   93.4740   10.4600 O.2   367  GLU367     -0.2867
     86  CB        22.2550   91.2720   12.7700 C.3   367  GLU367      0.0388
     87  CG        22.1520   90.4320   11.5010 C.3   367  GLU367      0.1160
     88  CD        22.1320   88.9120   11.7900 C.2   367  GLU367      0.3649
     89  OE1       22.8410   88.4600   12.7160 O.co2 367  GLU367     -0.2457
     90  OE2       21.3970   88.1690   11.0980 O.co2 367  GLU367     -0.2457
     91  N         26.1110   86.3900   17.5700 N.3   389  THR389     -0.1203
     92  CA        24.9990   85.8480   16.7840 C.3   389  THR389      0.1994
     93  C         25.2620   84.4350   16.2510 C.2   389  THR389      0.2619
     94  O         24.3700   83.8400   15.6340 O.2   389  THR389     -0.2717
     95  CB        24.6370   86.7510   15.5840 C.3   389  THR389      0.1784
     96  OG1       25.7380   86.8020   14.6730 O.3   389  THR389     -0.2211
     97  CG2       24.2780   88.1770   16.0430 C.3   389  THR389      0.0376
     98  N         26.4660   83.8960   16.4810 N.am  390  THR390     -0.1938
     99  CA        26.7170   82.4620   16.2390 C.3   390  THR390      0.2028
    100  C         25.9110   81.6120   17.2080 C.2   390  THR390      0.2643
    101  O         25.6830   80.4270   16.9710 O.2   390  THR390     -0.2714
    102  CB        28.2100   82.0540   16.4290 C.3   390  THR390      0.1808
    103  OG1       28.5890   82.2600   17.7970 O.3   390  THR390     -0.2208
    104  CG2       29.1370   82.8410   15.5120 C.3   390  THR390      0.0379
    105  N         25.5360   82.2480   18.3150 N.am  391  THR391     -0.1936
    106  CA        24.9390   81.6550   19.5140 C.3   391  THR391      0.2028
    107  C         25.9190   80.8240   20.3390 C.2   391  THR391      0.2642
    108  O         25.5150   80.2150   21.3250 O.2   391  THR391     -0.2714
    109  CB        23.6980   80.7640   19.1990 C.3   391  THR391      0.1808
    110  OG1       24.1210   79.5030   18.6490 O.3   391  THR391     -0.2208
    111  CG2       22.7670   81.4650   18.2330 C.3   391  THR391      0.0379
    112  N         27.2030   80.8130   19.9810 N.am  392  TYR392     -0.1973
    113  CA        28.1280   79.8810   20.6410 C.3   392  TYR392      0.1639
    114  C         28.5050   80.2720   22.0800 C.2   392  TYR392      0.2290
    115  O         28.7970   79.3910   22.8790 O.2   392  TYR392     -0.2864
    116  CB        29.3940   79.6930   19.7980 C.3   392  TYR392      0.0560
    117  CG        29.3570   78.4450   18.9360 C.ar  392  TYR392     -0.0198
    118  CD1       28.1500   77.9130   18.5050 C.ar  392  TYR392     -0.0009
    119  CD2       30.5330   77.7770   18.5790 C.ar  392  TYR392     -0.0009
    120  CE1       28.1020   76.7440   17.7260 C.ar  392  TYR392      0.0417
    121  CE2       30.5000   76.6140   17.7960 C.ar  392  TYR392      0.0417
    122  CZ        29.2800   76.1020   17.3780 C.ar  392  TYR392      0.1957
    123  OH        29.2430   74.9480   16.6140 O.3   392  TYR392     -0.2866
    124  N         25.3470   78.8280   23.6780 N.3   395  LEU395     -0.1245
    125  CA        25.2890   77.3600   23.7080 C.3   395  LEU395      0.1561
    126  C         26.3060   76.7680   24.6780 C.2   395  LEU395      0.2260
    127  O         26.0020   75.8050   25.3880 O.2   395  LEU395     -0.2867
    128  CB        25.5120   76.7630   22.3160 C.3   395  LEU395      0.0270
    129  CG        24.5090   77.1400   21.2300 C.3   395  LEU395      0.0019
    130  CD1       24.6640   76.2430   20.0130 C.3   395  LEU395      0.0001
    131  CD2       23.0760   77.1060   21.7650 C.3   395  LEU395      0.0001
    132  N         33.2120   79.1920   14.4020 N.3   428  CYS428     -0.1221
    133  CA        31.8360   79.1290   13.9060 C.3   428  CYS428      0.1808
    134  C         31.5220   80.3230   12.9960 C.2   428  CYS428      0.2601
    135  O         30.9280   80.1680   11.9340 O.2   428  CYS428     -0.2717
    136  CB        30.8360   79.0780   15.0620 C.3   428  CYS428      0.0970
    137  SG        29.0960   78.9470   14.5100 S.3   428  CYS428     -0.0800
    138  N         31.9600   81.5090   13.3980 N.am  429  ARG429     -0.1979
    139  CA        31.6290   82.7290   12.6440 C.3   429  ARG429      0.1597
    140  C         32.2520   82.7560   11.2490 C.2   429  ARG429      0.2287
    141  O         31.5470   82.9420   10.2630 O.2   429  ARG429     -0.2864
    142  CB        32.0610   83.9810   13.4210 C.3   429  ARG429      0.0334
    143  CG        31.8450   85.2980   12.6800 C.3   429  ARG429      0.0492
    144  CD        30.3780   85.7500   12.7270 C.3   429  ARG429      0.2205
    145  NE        29.5680   85.1040   11.7070 N.pl3 429  ARG429     -0.0865
    146  CZ        28.2870   84.7820   11.8510 C.cat 429  ARG429      0.5346
    147  NH1       27.6460   85.0440   12.9810 N.pl3 429  ARG429      0.1354
    148  NH2       27.6480   84.1860   10.8560 N.pl3 429  ARG429      0.1354
    149  N         31.1190   79.7900    8.8550 N.3   432  ASP432     -0.1239
    150  CA        29.7560   80.0580    8.4180 C.3   432  ASP432      0.1674
    151  C         29.7230   81.1770    7.3770 C.2   432  ASP432      0.2266
    152  O         29.0070   81.0860    6.3820 O.2   432  ASP432     -0.2867
    153  CB        28.8730   80.4200    9.6070 C.3   432  ASP432      0.1410
    154  CG        27.4860   80.8370    9.1830 C.2   432  ASP432      0.3668
    155  OD1       26.5770   79.9830    9.1510 O.co2 432  ASP432     -0.2456
    156  OD2       27.3050   82.0210    8.8610 O.co2 432  ASP432     -0.2456
    157  N         23.7590   84.6850    0.7520 N.3   440  GLU440     -0.1245
    158  CA        23.4150   85.8900    1.4950 C.3   440  GLU440      0.1567
    159  C         23.6530   87.1350    0.6400 C.2   440  GLU440      0.2260
    160  O         22.8940   88.1010    0.7090 O.2   440  GLU440     -0.2867
    161  CB        24.2180   85.9660    2.7940 C.3   440  GLU440      0.0388
    162  CG        23.7320   85.0190    3.8810 C.3   440  GLU440      0.1160
    163  CD        24.6220   85.0310    5.1120 C.2   440  GLU440      0.3649
    164  OE1       24.1410   84.6510    6.2010 O.co2 440  GLU440     -0.2457
    165  OE2       25.8060   85.4100    4.9910 O.co2 440  GLU440     -0.2457
    166  N         29.7070   72.2960    8.3440 N.3   508  TYR508     -0.1241
    167  CA        30.0090   73.0110    7.1090 C.3   508  TYR508      0.1605
    168  C         31.1470   72.3840    6.3110 C.2   508  TYR508      0.2264
    169  O         31.8800   73.1090    5.6340 O.2   508  TYR508     -0.2867
    170  CB        30.3710   74.4720    7.3930 C.3   508  TYR508      0.0534
    171  CG        29.3410   75.2660    8.1500 C.ar  508  TYR508     -0.0201
    172  CD1       29.3120   75.2500    9.5350 C.ar  508  TYR508     -0.0009
    173  CD2       28.4170   76.0690    7.4810 C.ar  508  TYR508     -0.0009
    174  CE1       28.3870   75.9900   10.2380 C.ar  508  TYR508      0.0417
    175  CE2       27.4810   76.8210    8.1770 C.ar  508  TYR508      0.0417
    176  CZ        27.4720   76.7750    9.5560 C.ar  508  TYR508      0.1957
    177  OH        26.5600   77.5090   10.2730 O.3   508  TYR508     -0.2866
    178  N         24.2170   73.3490    7.7200 N.3   515  TYR515     -0.1241
    179  CA        23.2910   74.1770    8.4630 C.3   515  TYR515      0.1605
    180  C         22.1660   74.5450    7.4990 C.2   515  TYR515      0.2264
    181  O         22.4380   74.8490    6.3420 O.2   515  TYR515     -0.2867
    182  CB        24.0340   75.3990    8.9990 C.3   515  TYR515      0.0534
    183  CG        23.2020   76.5210    9.5540 C.ar  515  TYR515     -0.0201
    184  CD1       22.6990   76.4640   10.8440 C.ar  515  TYR515     -0.0009
    185  CD2       22.9570   77.6590    8.8050 C.ar  515  TYR515     -0.0009
    186  CE1       21.9450   77.4950   11.3580 C.ar  515  TYR515      0.0417
    187  CE2       22.2090   78.7010    9.3130 C.ar  515  TYR515      0.0417
    188  CZ        21.7100   78.6140   10.5910 C.ar  515  TYR515      0.1957
    189  OH        20.9610   79.6460   11.1010 O.3   515  TYR515     -0.2866
@<TRIPOS>BOND
     1   159   160    2
     2   159   158    1
     3   157   158    1
     4   158   161    1
     5   161   162    1
     6   162   163    1
     7   165   163   ar
     8   163   164   ar
     9   169   168    2
    10   168   167    1
    11   181   180    2
    12   152   151    2
    13   167   170    1
    14   167   166    1
    15    65    64    2
    16   151   150    1
    17   170   171    1
    18   173   171   ar
    19   173   175   ar
    20   180   179    1
    21   178   179    1
    22   171   172   ar
    23   175   176   ar
    24   150   149    1
    25   150   153    1
    26    64    63    1
    27   179   182    1
    28   185   187   ar
    29   185   183   ar
    30   156   154   ar
    31   182   183    1
    32    69    67   ar
    33   155   154   ar
    34   154   153    1
    35   187   188   ar
    36     6     7    1
    37     6     5    1
    38    66    67    1
    39    66    63    1
    40   172   174   ar
    41    67    68   ar
    42   183   184   ar
    43   176   174   ar
    44   176   177    1
    45    63    62    1
    46     7     8    1
    47    10     9    1
    48   141   140    2
    49     2     5    1
    50     2     1    1
    51     2     3    1
    52    85    84    2
    53   188   189    1
    54   188   186   ar
    55     8     9    2
    56     9    11    1
    57   184   186   ar
    58   148   146    1
    59    90    88   ar
    60   140   139    1
    61     3     4    2
    62    87    88    1
    63    87    86    1
    64    84    83    1
    65   145   146    2
    66   145   144    1
    67    88    89   ar
    68   146   147    1
    69   135   134    2
    70    61    59   ar
    71    29    31   ar
    72    29    27   ar
    73    83    86    1
    74    83    82    1
    75    57    56    2
    76   139   138    1
    77   139   142    1
    78   143   144    1
    79   143   142    1
    80    31    30   ar
    81   134   138   am
    82   134   133    1
    83    59    60   ar
    84    59    58    1
    85    56    55    1
    86    27    26   ar
    87    27    25   ar
    88    26    24   ar
    89   133   132    1
    90   133   136    1
    91    30    28   ar
    92    53    52    1
    93    58    55    1
    94    51    50    2
    95   137   136    1
    96    73    72    2
    97    55    54    1
    98    96    95    1
    99    25    28   ar
   100    25    23   ar
   101    24    23   ar
   102   104   102    1
   103    50    49    1
   104    95    97    1
   105    95    92    1
   106    52    49    1
   107    94    93    2
   108    12    13    1
   109    72    71    1
   110    23    22    1
   111    49    48    1
   112    76    78   ar
   113    76    75   ar
   114    78    80   ar
   115    71    74    1
   116    71    70    1
   117    99   102    1
   118    99    98    1
   119    99   100    1
   120    93    98   am
   121    93    92    1
   122   102   103    1
   123   123   122    1
   124    74    75    1
   125    75    77   ar
   126    17    16    1
   127    80    81    1
   128    80    79   ar
   129    92    91    1
   130    13    16    1
   131    13    14    1
   132   101   100    2
   133    77    79   ar
   134    18    19    1
   135   100   105   am
   136    22    19    1
   137   122   120   ar
   138   122   121   ar
   139    43    42    2
   140    48    42   am
   141    19    20    1
   142   120   118   ar
   143   121   119   ar
   144    14    15    2
   145    42    41    1
   146   111   109    1
   147   105   106    1
   148    38    36    1
   149   118   117   ar
   150    35    34    2
   151   119   117   ar
   152   110   109    1
   153   117   116    1
   154    20    21    2
   155   109   106    1
   156    34    33    1
   157    46    44    1
   158   106   107    1
   159    41    40    1
   160    41    44    1
   161   116   113    1
   162    36    33    1
   163    36    37    1
   164    45    44    1
   165    45    47    1
   166   112   107   am
   167   112   113    1
   168   130   129    1
   169    39    37    1
   170   107   108    2
   171    33    32    1
   172   113   114    1
   173   129   131    1
   174   129   128    1
   175   114   115    2
   176   128   125    1
   177   124   125    1
   178   125   126    1
   179   126   127    2
