@<TRIPOS>MOLECULE
tmp/5iljA00.pdb
 154 147 0 0 0
SMALL
GASTEIGER

@<TRIPOS>ATOM
      1  N         12.8200   77.5090   10.0360 N.3   252  ARG252     -0.1245
      2  CA        13.4290   76.2110    9.7760 C.3   252  ARG252      0.1563
      3  C         12.9840   75.1820   10.8090 C.2   252  ARG252      0.2260
      4  O         13.0970   75.4200   12.0130 O.2   252  ARG252     -0.2867
      5  CB        14.9600   76.3220    9.7890 C.3   252  ARG252      0.0307
      6  CG        15.5530   77.0300    8.5860 C.3   252  ARG252      0.0489
      7  CD        17.0320   77.3080    8.8060 C.3   252  ARG252      0.2205
      8  NE        17.2120   78.3010    9.8580 N.pl3 252  ARG252     -0.0865
      9  CZ        18.3880   78.7330   10.2960 C.cat 252  ARG252      0.5346
     10  NH1       19.5110   78.2530    9.7730 N.pl3 252  ARG252      0.1354
     11  NH2       18.4370   79.6480   11.2570 N.pl3 252  ARG252      0.1354
     12  N         23.5260   68.4230   16.9420 N.3   261  TRP261     -0.1241
     13  CA        24.4680   69.4030   17.4620 C.3   261  TRP261      0.1605
     14  C         24.7440   69.1620   18.9380 C.2   261  TRP261      0.2264
     15  O         25.8990   69.1760   19.3630 O.2   261  TRP261     -0.2867
     16  CB        23.9450   70.8210   17.2310 C.3   261  TRP261      0.0550
     17  CG        24.2990   71.3190   15.8760 C.ar  261  TRP261      0.0003
     18  CD1       23.9570   70.7570   14.6820 C.ar  261  TRP261      0.0946
     19  CD2       25.0870   72.4700   15.5670 C.ar  261  TRP261      0.0152
     20  NE1       24.4820   71.4890   13.6460 N.ar  261  TRP261     -0.2442
     21  CE2       25.1790   72.5490   14.1620 C.ar  261  TRP261      0.0810
     22  CE3       25.7280   73.4420   16.3400 C.ar  261  TRP261      0.0012
     23  CZ2       25.8810   73.5620   13.5150 C.ar  261  TRP261      0.0191
     24  CZ3       26.4250   74.4480   15.6960 C.ar  261  TRP261      0.0001
     25  CH2       26.4990   74.4980   14.2970 C.ar  261  TRP261      0.0015
     26  N         18.9560   75.3520   21.4670 N.3   282  ILE282     -0.1245
     27  CA        19.4110   75.4830   20.0800 C.3   282  ILE282      0.1561
     28  C         18.2040   75.6120   19.1460 C.2   282  ILE282      0.2260
     29  O         18.1750   76.4820   18.2760 O.2   282  ILE282     -0.2867
     30  CB        20.2950   74.2930   19.6660 C.3   282  ILE282      0.0252
     31  CG1       21.5820   74.2780   20.4970 C.3   282  ILE282      0.0019
     32  CG2       20.6600   74.3780   18.1960 C.3   282  ILE282      0.0019
     33  CD1       22.4630   73.1060   20.1970 C.3   282  ILE282      0.0001
     34  N         16.4390   79.1460   19.7390 N.3   285  ILE285     -0.1231
     35  CA        17.1520   80.3260   19.2830 C.3   285  ILE285      0.1692
     36  C         17.1720   80.3350   17.7570 C.2   285  ILE285      0.2592
     37  O         17.2130   81.3930   17.1280 O.2   285  ILE285     -0.2718
     38  CB        18.5930   80.4270   19.8730 C.3   285  ILE285      0.0266
     39  CG1       19.1150   81.8610   19.7160 C.3   285  ILE285      0.0019
     40  CG2       19.5620   79.4050   19.2400 C.3   285  ILE285      0.0020
     41  CD1       18.2250   82.9270   20.3790 C.3   285  ILE285      0.0001
     42  N         17.1120   79.1520   17.1690 N.am  286  SER286     -0.1952
     43  CA        16.9460   79.0080   15.7290 C.3   286  SER286      0.1924
     44  C         15.6590   79.6690   15.2360 C.2   286  SER286      0.2314
     45  O         15.6350   80.2890   14.1740 O.2   286  SER286     -0.2863
     46  CB        16.9530   77.5260   15.3570 C.3   286  SER286      0.2116
     47  OG        16.7620   77.3510   13.9670 O.3   286  SER286     -0.2180
     48  N         16.2170   83.4210   15.3540 N.3   289  ASP289     -0.1239
     49  CA        17.0770   83.8170   14.2340 C.3   289  ASP289      0.1674
     50  C         16.2770   84.0110   12.9450 C.2   289  ASP289      0.2266
     51  O         16.4300   85.0250   12.2530 O.2   289  ASP289     -0.2867
     52  CB        18.1890   82.7800   14.0190 C.3   289  ASP289      0.1410
     53  CG        19.1480   83.1510   12.8750 C.2   289  ASP289      0.3668
     54  OD1       19.3580   84.3560   12.5990 O.co2 289  ASP289     -0.2456
     55  OD2       19.7080   82.2230   12.2500 O.co2 289  ASP289     -0.2456
     56  N         21.3010   90.4570   17.0720 N.3   364  TYR364     -0.1241
     57  CA        20.3810   90.2040   15.9600 C.3   364  TYR364      0.1605
     58  C         19.7450   91.5210   15.4790 C.2   364  TYR364      0.2264
     59  O         19.6710   91.7920   14.2810 O.2   364  TYR364     -0.2867
     60  CB        19.2510   89.2480   16.3620 C.3   364  TYR364      0.0534
     61  CG        19.5900   87.7730   16.3770 C.ar  364  TYR364     -0.0201
     62  CD1       20.7650   87.2930   15.8120 C.ar  364  TYR364     -0.0009
     63  CD2       18.7170   86.8590   16.9490 C.ar  364  TYR364     -0.0009
     64  CE1       21.0670   85.9300   15.8290 C.ar  364  TYR364      0.0417
     65  CE2       19.0120   85.5010   16.9720 C.ar  364  TYR364      0.0417
     66  CZ        20.1830   85.0450   16.4090 C.ar  364  TYR364      0.1957
     67  OH        20.4630   83.6930   16.4310 O.3   364  TYR364     -0.2866
     68  N         26.2290   86.8020   17.4740 N.3   389  THR389     -0.1203
     69  CA        25.1120   86.2910   16.6710 C.3   389  THR389      0.1994
     70  C         25.3970   84.8930   16.1200 C.2   389  THR389      0.2619
     71  O         24.5340   84.3070   15.4630 O.2   389  THR389     -0.2717
     72  CB        24.7470   87.2140   15.4740 C.3   389  THR389      0.1784
     73  OG1       25.8450   87.2970   14.5680 O.3   389  THR389     -0.2211
     74  CG2       24.3630   88.6170   15.9330 C.3   389  THR389      0.0376
     75  N         26.6020   84.3640   16.3590 N.am  390  THR390     -0.1938
     76  CA        26.8720   82.9440   16.0850 C.3   390  THR390      0.2028
     77  C         26.0690   82.0640   17.0360 C.2   390  THR390      0.2643
     78  O         25.8600   80.8850   16.7640 O.2   390  THR390     -0.2714
     79  CB        28.3590   82.5520   16.2540 C.3   390  THR390      0.1808
     80  OG1       28.7300   82.6610   17.6350 O.3   390  THR390     -0.2208
     81  CG2       29.2760   83.4150   15.3890 C.3   390  THR390      0.0379
     82  N         25.6480   82.6740   18.1440 N.am  391  THR391     -0.1936
     83  CA        24.9990   82.0500   19.3020 C.3   391  THR391      0.2028
     84  C         25.9610   81.2160   20.1320 C.2   391  THR391      0.2642
     85  O         25.5430   80.5920   21.1050 O.2   391  THR391     -0.2714
     86  CB        23.7740   81.1440   18.9260 C.3   391  THR391      0.1808
     87  OG1       24.2230   79.9400   18.2950 O.3   391  THR391     -0.2208
     88  CG2       22.8070   81.8780   18.0220 C.3   391  THR391      0.0379
     89  N         27.2490   81.2250   19.7900 N.am  392  TYR392     -0.1973
     90  CA        28.1740   80.2850   20.4210 C.3   392  TYR392      0.1639
     91  C         28.5780   80.6480   21.8600 C.2   392  TYR392      0.2290
     92  O         28.9130   79.7510   22.6280 O.2   392  TYR392     -0.2864
     93  CB        29.4250   80.1030   19.5510 C.3   392  TYR392      0.0560
     94  CG        29.3850   78.8030   18.7550 C.ar  392  TYR392     -0.0198
     95  CD1       28.1750   78.2760   18.3170 C.ar  392  TYR392     -0.0009
     96  CD2       30.5570   78.0920   18.4640 C.ar  392  TYR392     -0.0009
     97  CE1       28.1220   77.0590   17.5950 C.ar  392  TYR392      0.0417
     98  CE2       30.5190   76.8820   17.7360 C.ar  392  TYR392      0.0417
     99  CZ        29.3010   76.3710   17.3110 C.ar  392  TYR392      0.1957
    100  OH        29.2600   75.1690   16.6070 O.3   392  TYR392     -0.2866
    101  N         25.3800   79.1550   23.4650 N.3   395  LEU395     -0.1245
    102  CA        25.3330   77.6900   23.4750 C.3   395  LEU395      0.1561
    103  C         26.3380   77.1250   24.4650 C.2   395  LEU395      0.2260
    104  O         26.0500   76.1420   25.1460 O.2   395  LEU395     -0.2867
    105  CB        25.5990   77.0900   22.0830 C.3   395  LEU395      0.0270
    106  CG        24.5680   77.4340   21.0010 C.3   395  LEU395      0.0019
    107  CD1       24.6960   76.4940   19.8180 C.3   395  LEU395      0.0001
    108  CD2       23.1450   77.4330   21.5500 C.3   395  LEU395      0.0001
    109  N         33.3020   79.5530   14.3040 N.3   428  CYS428     -0.1235
    110  CA        31.9250   79.4790   13.8200 C.3   428  CYS428      0.1677
    111  C         31.6100   80.6690   12.9070 C.2   428  CYS428      0.2270
    112  O         31.0200   80.5040   11.8410 O.2   428  CYS428     -0.2867
    113  CB        30.9310   79.4500   14.9830 C.3   428  CYS428      0.0956
    114  SG        29.1830   79.2790   14.4520 S.3   428  CYS428     -0.0801
    115  N         31.0210   80.1260    8.8100 N.3   432  ASP432     -0.1239
    116  CA        29.6750   80.4100    8.3450 C.3   432  ASP432      0.1674
    117  C         29.6480   81.5380    7.3110 C.2   432  ASP432      0.2266
    118  O         28.9140   81.4620    6.3220 O.2   432  ASP432     -0.2867
    119  CB        28.7660   80.7680    9.5130 C.3   432  ASP432      0.1410
    120  CG        27.4040   81.2650    9.0490 C.2   432  ASP432      0.3668
    121  OD1       26.5390   80.4290    8.7350 O.co2 432  ASP432     -0.2456
    122  OD2       27.1970   82.4890    8.9930 O.co2 432  ASP432     -0.2456
    123  N         29.8220   72.4720    8.1450 N.3   508  TYR508     -0.1241
    124  CA        30.1110   73.2990    6.9750 C.3   508  TYR508      0.1605
    125  C         31.2010   72.7110    6.1060 C.2   508  TYR508      0.2264
    126  O         31.8660   73.4420    5.3760 O.2   508  TYR508     -0.2867
    127  CB        30.5290   74.7030    7.3930 C.3   508  TYR508      0.0534
    128  CG        29.4310   75.5130    8.0180 C.ar  508  TYR508     -0.0201
    129  CD1       29.1980   75.4600    9.3830 C.ar  508  TYR508     -0.0009
    130  CD2       28.6350   76.3500    7.2450 C.ar  508  TYR508     -0.0009
    131  CE1       28.1980   76.2070    9.9610 C.ar  508  TYR508      0.0417
    132  CE2       27.6310   77.1050    7.8160 C.ar  508  TYR508      0.0417
    133  CZ        27.4170   77.0270    9.1730 C.ar  508  TYR508      0.1957
    134  OH        26.4160   77.7690    9.7490 O.3   508  TYR508     -0.2866
    135  N         26.2380   75.2640    4.0430 N.3   513  ASP513     -0.1239
    136  CA        25.5080   75.3600    5.3150 C.3   513  ASP513      0.1674
    137  C         24.6570   74.1110    5.5560 C.2   513  ASP513      0.2266
    138  O         23.5070   74.0530    5.1390 O.2   513  ASP513     -0.2867
    139  CB        24.6180   76.6220    5.3410 C.3   513  ASP513      0.1410
    140  CG        23.8310   76.7740    6.6510 C.2   513  ASP513      0.3668
    141  OD1       23.9600   75.9350    7.5740 O.co2 513  ASP513     -0.2456
    142  OD2       23.0780   77.7540    6.7660 O.co2 513  ASP513     -0.2456
    143  N         23.2590   72.8510    8.2590 N.3   515  TYR515     -0.1241
    144  CA        22.1010   72.9590    9.1480 C.3   515  TYR515      0.1605
    145  C         20.8550   73.3950    8.3820 C.2   515  TYR515      0.2264
    146  O         19.7730   72.8320    8.5630 O.2   515  TYR515     -0.2867
    147  CB        22.3850   73.9370   10.2890 C.3   515  TYR515      0.0534
    148  CG        21.2010   74.1810   11.2040 C.ar  515  TYR515     -0.0201
    149  CD1       20.8790   73.2840   12.2190 C.ar  515  TYR515     -0.0009
    150  CD2       20.4050   75.3110   11.0540 C.ar  515  TYR515     -0.0009
    151  CE1       19.7900   73.5070   13.0580 C.ar  515  TYR515      0.0417
    152  CE2       19.3250   75.5450   11.8850 C.ar  515  TYR515      0.0417
    153  CZ        19.0210   74.6420   12.8860 C.ar  515  TYR515      0.1957
    154  OH        17.9430   74.8820   13.7070 O.3   515  TYR515     -0.2866
@<TRIPOS>BOND
     1   135   136    1
     2   138   137    2
     3   136   139    1
     4   136   137    1
     5   139   140    1
     6   126   125    2
     7   125   124    1
     8   118   117    2
     9   140   142   ar
    10   140   141   ar
    11   124   127    1
    12   124   123    1
    13   130   132   ar
    14   130   128   ar
    15   117   116    1
    16   127   128    1
    17   132   133   ar
    18   128   129   ar
    19   143   144    1
    20   116   115    1
    21   116   119    1
    22   145   146    2
    23   145   144    1
    24     6     7    1
    25     6     5    1
    26   121   120   ar
    27     7     8    1
    28   122   120   ar
    29   120   119    1
    30   144   147    1
    31   133   134    1
    32   133   131   ar
    33   129   131   ar
    34    10     9    1
    35     2     5    1
    36     2     1    1
    37     2     3    1
    38     8     9    2
    39   147   148    1
    40     9    11    1
    41     3     4    2
    42   150   148   ar
    43   150   152   ar
    44   148   149   ar
    45   112   111    2
    46   152   153   ar
    47   149   151   ar
    48    55    53   ar
    49    51    50    2
    50    54    53   ar
    51    53    52    1
    52   153   151   ar
    53   153   154    1
    54   111   110    1
    55    50    49    1
    56    23    21   ar
    57    23    25   ar
    58    20    21   ar
    59    20    18   ar
    60   110   109    1
    61   110   113    1
    62    47    46    1
    63    52    49    1
    64    21    19   ar
    65    45    44    2
    66    49    48    1
    67    59    58    2
    68    25    24   ar
    69   114   113    1
    70    73    72    1
    71    18    17   ar
    72    44    43    1
    73    46    43    1
    74    81    79    1
    75    71    70    2
    76    72    74    1
    77    72    69    1
    78    58    57    1
    79    19    17   ar
    80    19    22   ar
    81    24    22   ar
    82    43    42    1
    83    62    64   ar
    84    62    61   ar
    85    64    66   ar
    86    17    16    1
    87    57    60    1
    88    57    56    1
    89    76    79    1
    90    76    75    1
    91    76    77    1
    92    70    75   am
    93    70    69    1
    94    79    80    1
    95    60    61    1
    96    61    63   ar
    97    66    67    1
    98    66    65   ar
    99   100    99    1
   100    69    68    1
   101    78    77    2
   102    12    13    1
   103    63    65   ar
   104    77    82   am
   105    37    36    2
   106    42    36   am
   107    16    13    1
   108    99    97   ar
   109    99    98   ar
   110    13    14    1
   111    97    95   ar
   112    98    96   ar
   113    36    35    1
   114    88    86    1
   115    82    83    1
   116    32    30    1
   117    29    28    2
   118    87    86    1
   119    95    94   ar
   120    96    94   ar
   121    94    93    1
   122    86    83    1
   123    14    15    2
   124    28    27    1
   125    40    38    1
   126    35    34    1
   127    35    38    1
   128    83    84    1
   129    93    90    1
   130    30    27    1
   131    30    31    1
   132    39    38    1
   133    39    41    1
   134    89    84   am
   135    89    90    1
   136   107   106    1
   137    27    26    1
   138    84    85    2
   139    33    31    1
   140    90    91    1
   141   106   108    1
   142   106   105    1
   143    91    92    2
   144   105   102    1
   145   101   102    1
   146   102   103    1
   147   103   104    2
