@<TRIPOS>MOLECULE
tmp/5ilnC00.pdb
 139 133 0 0 0
SMALL
GASTEIGER

@<TRIPOS>ATOM
      1  N         13.3700  -13.3280   10.2300 N.3    78  ARG78      -0.1231
      2  CA        14.2410  -14.3600   10.6570 C.3    78  ARG78       0.1694
      3  C         13.8090  -14.7220   12.0480 C.2    78  ARG78       0.2592
      4  O         13.6520  -15.8810   12.3280 O.2    78  ARG78      -0.2718
      5  CB        15.6720  -13.8830   10.7360 C.3    78  ARG78       0.0321
      6  CG        16.5390  -14.1120    9.4980 C.3    78  ARG78       0.0489
      7  CD        17.5330  -12.9030    9.4230 C.3    78  ARG78       0.2205
      8  NE        16.6870  -11.7510    9.1530 N.pl3  78  ARG78      -0.0865
      9  CZ        16.1880  -11.4590    7.9460 C.cat  78  ARG78       0.5346
     10  NH1       15.3330  -10.4530    7.8630 N.pl3  78  ARG78       0.1354
     11  NH2       16.6310  -12.1180    6.8340 N.pl3  78  ARG78       0.1354
     12  N         13.6210  -13.7250   12.9000 N.am   79  THR79      -0.1953
     13  CA        13.5150  -13.9610   14.3140 C.3    79  THR79       0.1897
     14  C         12.1720  -14.6270   14.6190 C.2    79  THR79       0.2313
     15  O         12.1510  -15.6170   15.3420 O.2    79  THR79      -0.2863
     16  CB        13.6590  -12.6870   15.1740 C.3    79  THR79       0.1794
     17  OG1       14.9010  -12.0310   14.8520 O.3    79  THR79      -0.2208
     18  CG2       13.6440  -12.9780   16.6440 C.3    79  THR79       0.0378
     19  N          8.8720   -9.5900   21.0940 N.3   127  ARG127     -0.1245
     20  CA         9.5120   -8.5020   20.4450 C.3   127  ARG127      0.1563
     21  C          8.6260   -7.2720   20.5130 C.2   127  ARG127      0.2260
     22  O          7.4840   -7.3240   20.0370 O.2   127  ARG127     -0.2867
     23  CB         9.8240   -8.8030   18.9640 C.3   127  ARG127      0.0307
     24  CG        10.4440   -7.5850   18.3600 C.3   127  ARG127      0.0489
     25  CD        11.0360   -7.7210   16.9830 C.3   127  ARG127      0.2205
     26  NE        12.2890   -8.3990   17.0010 N.pl3 127  ARG127     -0.0865
     27  CZ        13.0500   -8.6110   15.9500 C.cat 127  ARG127      0.5346
     28  NH1       14.1470   -9.3410   16.0990 N.pl3 127  ARG127      0.1354
     29  NH2       12.7180   -8.1180   14.7680 N.pl3 127  ARG127      0.1354
     30  N         19.0740   -8.0900   21.9900 N.3   155  HIS155     -0.1241
     31  CA        18.6310   -9.1980   21.1820 C.3   155  HIS155      0.1621
     32  C         19.4180  -10.4330   21.5870 C.2   155  HIS155      0.2264
     33  O         20.3530  -10.8350   20.9270 O.2   155  HIS155     -0.2867
     34  CB        18.7850   -8.9180   19.7390 C.3   155  HIS155      0.0745
     35  CG        17.9540   -9.7830   18.8600 C.ar  155  HIS155      0.0817
     36  ND1       17.6220   -9.4240   17.5590 N.ar  155  HIS155     -0.2268
     37  CD2       17.3930  -10.9890   19.0690 C.ar  155  HIS155      0.1154
     38  CE1       16.9160  -10.3980   17.0190 C.ar  155  HIS155      0.1986
     39  NE2       16.7830  -11.3550   17.8960 N.ar  155  HIS155     -0.2212
     40  N         19.8820  -13.3500   19.2510 N.3   158  GLN158     -0.1245
     41  CA        20.7930  -13.0020   18.2170 C.3   158  GLN158      0.1566
     42  C         22.2280  -13.2010   18.6790 C.2   158  GLN158      0.2260
     43  O         23.0130  -13.8460   18.0330 O.2   158  GLN158     -0.2867
     44  CB        20.5640  -11.5960   17.5860 C.3   158  GLN158      0.0367
     45  CG        21.3970  -11.4680   16.3040 C.3   158  GLN158      0.0905
     46  CD        20.7520  -12.0670   15.0550 C.2   158  GLN158      0.2608
     47  OE1       19.6140  -11.8660   14.8340 O.2   158  GLN158     -0.2717
     48  NE2       21.5260  -12.7170   14.2010 N.am  158  GLN158     -0.0878
     49  N         21.7800   -0.4870   17.0980 N.3   193  GLY193     -0.1210
     50  CA        21.8230   -1.9440   16.8630 C.3   193  GLY193      0.1956
     51  C         21.8450   -2.7520   18.1380 C.2   193  GLY193      0.2612
     52  O         22.8850   -2.9550   18.7260 O.2   193  GLY193     -0.2717
     53  N         20.6650   -3.2000   18.5600 N.am  194  ARG194     -0.1965
     54  CA        20.4930   -4.1530   19.6560 C.3   194  ARG194      0.1729
     55  C         21.2880   -5.4530   19.4740 C.2   194  ARG194      0.2616
     56  O         21.7430   -6.0480   20.4300 O.2   194  ARG194     -0.2715
     57  CB        19.0370   -4.4850   19.8930 C.3   194  ARG194      0.0348
     58  CG        18.2690   -5.0670   18.7240 C.3   194  ARG194      0.0492
     59  CD        16.7770   -5.3220   19.0720 C.3   194  ARG194      0.2205
     60  NE        16.0360   -5.6180   17.8540 N.pl3 194  ARG194     -0.0865
     61  CZ        14.7620   -5.2790   17.6220 C.cat 194  ARG194      0.5346
     62  NH1       14.0690   -4.6600   18.5570 N.pl3 194  ARG194      0.1354
     63  NH2       14.1630   -5.5760   16.4460 N.pl3 194  ARG194      0.1354
     64  N         21.5570   -5.8700   18.2660 N.am  195  THR195     -0.1951
     65  CA        22.3950   -7.0710   18.0860 C.3   195  THR195      0.1897
     66  C         23.8670   -6.8100   18.4490 C.2   195  THR195      0.2313
     67  O         24.5700   -7.6860   18.9780 O.2   195  THR195     -0.2863
     68  CB        22.3830   -7.4980   16.6580 C.3   195  THR195      0.1794
     69  OG1       22.8840   -6.4460   15.8640 O.3   195  THR195     -0.2208
     70  CG2       20.9550   -7.8080   16.1890 C.3   195  THR195      0.0378
     71  N         26.1270   -4.3240    9.7780 N.3   261  THR261     -0.1203
     72  CA        24.8660   -3.9180   10.3600 C.3   261  THR261      0.1994
     73  C         24.0890   -3.0090    9.3340 C.2   261  THR261      0.2617
     74  O         24.6490   -2.4450    8.3830 O.2   261  THR261     -0.2717
     75  CB        25.2960   -3.3370   11.6910 C.3   261  THR261      0.1784
     76  OG1       25.0350   -4.2430   12.7820 O.3   261  THR261     -0.2211
     77  CG2       24.8290   -2.1330   11.8710 C.3   261  THR261      0.0376
     78  N         22.7880   -2.9140    9.5340 N.am  262  ARG262     -0.1979
     79  CA        21.9110   -1.9760    8.7680 C.3   262  ARG262      0.1597
     80  C         21.8320   -0.5650    9.3910 C.2   262  ARG262      0.2287
     81  O         21.7460   -0.4050   10.5960 O.2   262  ARG262     -0.2864
     82  CB        20.5370   -2.6310    8.5360 C.3   262  ARG262      0.0334
     83  CG        19.4700   -1.8030    7.8520 C.3   262  ARG262      0.0492
     84  CD        18.1670   -2.5720    7.7550 C.3   262  ARG262      0.2205
     85  NE        17.4590   -2.7620    9.0390 N.pl3 262  ARG262     -0.0865
     86  CZ        16.6110   -1.8870    9.6220 C.cat 262  ARG262      0.5346
     87  NH1       16.3190   -0.6740    9.1300 N.pl3 262  ARG262      0.1354
     88  NH2       16.0460   -2.2090   10.7780 N.pl3 262  ARG262      0.1354
     89  N         19.7880    2.1100   10.3960 N.3   264  GLN264     -0.1245
     90  CA        18.3650    2.1040   10.6450 C.3   264  GLN264      0.1566
     91  C         17.6800    3.4350   10.2550 C.2   264  GLN264      0.2260
     92  O         17.5850    4.4050   11.0410 O.2   264  GLN264     -0.2867
     93  CB        18.1030    1.7480   12.0770 C.3   264  GLN264      0.0367
     94  CG        18.7540    0.4210   12.4990 C.3   264  GLN264      0.0905
     95  CD        18.3160   -0.1040   13.8900 C.2   264  GLN264      0.2608
     96  OE1       17.3340    0.3460   14.5210 O.2   264  GLN264     -0.2717
     97  NE2       19.0770   -1.0290   14.3940 N.am  264  GLN264     -0.0878
     98  N         14.7050    4.2310    9.9450 N.3   266  GLU266     -0.1231
     99  CA        13.5430    4.5420   10.8150 C.3   266  GLU266      0.1699
    100  C         13.9070    5.3560   11.9890 C.2   266  GLU266      0.2592
    101  O         13.0560    5.7610   12.7080 O.2   266  GLU266     -0.2718
    102  CB        12.7980    3.2500   11.3230 C.3   266  GLU266      0.0402
    103  CG        13.6540    2.2350   12.0980 C.3   266  GLU266      0.1161
    104  CD        14.3170    1.1960   11.2060 C.2   266  GLU266      0.3649
    105  OE1       14.5180    1.4610    9.9980 O.co2 266  GLU266     -0.2457
    106  OE2       14.7170    0.1300   11.7350 O.co2 266  GLU266     -0.2457
    107  N         15.1820    5.5050   12.2510 N.am  267  ARG267     -0.1980
    108  CA        15.5870    6.1310   13.4640 C.3   267  ARG267      0.1597
    109  C         16.1280    7.5480   13.1510 C.2   267  ARG267      0.2287
    110  O         16.5180    8.2600   14.0170 O.2   267  ARG267     -0.2864
    111  CB        16.6600    5.1920   13.9980 C.3   267  ARG267      0.0334
    112  CG        16.7320    5.0480   15.4750 C.3   267  ARG267      0.0492
    113  CD        15.6090    4.2890   16.1490 C.3   267  ARG267      0.2205
    114  NE        15.5350    2.9040   15.7280 N.pl3 267  ARG267     -0.0865
    115  CZ        14.7540    1.9660   16.3140 C.cat 267  ARG267      0.5346
    116  NH1       14.0130    2.2820   17.3780 N.pl3 267  ARG267      0.1354
    117  NH2       14.7180    0.7080   15.8040 N.pl3 267  ARG267      0.1354
    118  N         23.4660   -9.6430   10.9830 N.3   300  PRO300     -0.2102
    119  CA        22.2590  -10.2480   11.6170 C.3   300  PRO300      0.1504
    120  C         21.0580  -10.2900   10.6670 C.2   300  PRO300      0.2576
    121  O         20.2160  -11.1590   10.7700 O.2   300  PRO300     -0.2718
    122  CB        22.0100   -9.3010   12.7960 C.3   300  PRO300      0.0282
    123  CG        22.6030   -7.9860   12.3930 C.3   300  PRO300      0.0208
    124  CD        23.8120   -8.3450   11.6140 C.3   300  PRO300      0.0893
    125  N         21.0220   -9.3120    9.7690 N.am  301  LEU301     -0.1967
    126  CA        20.0320   -9.1710    8.6570 C.3   301  LEU301      0.1713
    127  C         18.7320   -8.5850    9.2050 C.2   301  LEU301      0.2458
    128  O         18.5050   -8.5450   10.4350 O.2   301  LEU301     -0.2730
    129  CB        19.8560  -10.4600    7.8340 C.3   301  LEU301      0.0310
    130  CG        21.1160  -11.0250    7.0820 C.3   301  LEU301      0.0022
    131  CD1       20.8190  -12.3650    6.4810 C.3   301  LEU301      0.0001
    132  CD2       21.6410  -10.0770    6.0620 C.3   301  LEU301      0.0001
    133  N         17.9220   -8.0200    8.3140 N.am  302  PRO302     -0.2727
    134  CA        18.2120   -7.8700    6.8860 C.3   302  PRO302      0.1402
    135  C         19.1840   -6.7550    6.5050 C.2   302  PRO302      0.2269
    136  O         19.4280   -5.7740    7.2790 O.2   302  PRO302     -0.2865
    137  CB        16.8740   -7.5210    6.3800 C.3   302  PRO302      0.0296
    138  CG        16.3810   -6.5440    7.3850 C.3   302  PRO302      0.0237
    139  CD        16.8360   -7.0810    8.6940 C.3   302  PRO302      0.0939
@<TRIPOS>BOND
     1   132   130    1
     2   137   134    1
     3   137   138    1
     4   131   130    1
     5   135   134    1
     6   135   136    2
     7    11     9    1
     8   134   133    1
     9   130   129    1
    10   138   139    1
    11    84    83    1
    12    84    85    1
    13   129   126    1
    14    83    82    1
    15    10     9    1
    16     9     8    2
    17   133   139    1
    18   133   127   am
    19    74    73    2
    20    82    79    1
    21   126   127    1
    22   126   125    1
    23    79    80    1
    24    79    78    1
    25    85    86    2
    26    87    86    1
    27     8     7    1
    28   127   128    2
    29    73    78   am
    30    73    72    1
    31    80    81    2
    32     7     6    1
    33     6     5    1
    34    86    88    1
    35   125   120   am
    36    71    72    1
    37    98    99    1
    38   105   104   ar
    39     1     2    1
    40    91    90    1
    41    91    92    2
    42    72    75    1
    43    89    90    1
    44    90    93    1
    45     2     5    1
    46     2     3    1
    47   120   121    2
    48   120   119    1
    49    99   102    1
    50    99   100    1
    51   118   124    1
    52   118   119    1
    53   104   106   ar
    54   104   103    1
    55   102   103    1
    56   124   123    1
    57   119   122    1
    58    75    77    1
    59    75    76    1
    60   100   107   am
    61   100   101    2
    62     3     4    2
    63     3    12   am
    64    93    94    1
    65   107   108    1
    66   123   122    1
    67    94    95    1
    68    12    13    1
    69   109   108    1
    70   109   110    2
    71   108   111    1
    72    95    97   am
    73    95    96    2
    74   111   112    1
    75    48    46   am
    76    13    14    1
    77    13    16    1
    78    14    15    2
    79    29    27    1
    80    47    46    2
    81    17    16    1
    82    46    45    1
    83    16    18    1
    84   112   113    1
    85   114   113    1
    86   114   115    2
    87   117   115    1
    88    69    68    1
    89    27    28    1
    90    27    26    2
    91    70    68    1
    92    45    44    1
    93   115   116    1
    94    63    61    1
    95    68    65    1
    96    50    49    1
    97    50    51    1
    98    25    26    1
    99    25    24    1
   100    38    36   ar
   101    38    39   ar
   102    36    35   ar
   103    44    41    1
   104    61    60    2
   105    61    62    1
   106    60    59    1
   107    39    37   ar
   108    43    42    2
   109    65    64    1
   110    65    66    1
   111    51    53   am
   112    51    52    2
   113    41    42    1
   114    41    40    1
   115    64    55   am
   116    24    23    1
   117    66    67    2
   118    53    54    1
   119    58    59    1
   120    58    57    1
   121    35    37   ar
   122    35    34    1
   123    23    20    1
   124    55    54    1
   125    55    56    2
   126    54    57    1
   127    34    31    1
   128    22    21    2
   129    20    21    1
   130    20    19    1
   131    33    32    2
   132    31    32    1
   133    31    30    1
