@<TRIPOS>MOLECULE
tmp/5ilwA01.pdb
 144 140 0 0 0
SMALL
GASTEIGER

@<TRIPOS>ATOM
      1  N        -21.7750  -19.4460  -14.2640 N.3    69  VAL69      -0.1231
      2  CA       -21.3920  -18.1350  -14.8200 C.3    69  VAL69       0.1692
      3  C        -19.9280  -17.7040  -14.4230 C.2    69  VAL69       0.2592
      4  O        -19.6400  -16.4960  -14.2910 O.2    69  VAL69      -0.2718
      5  CB       -22.3990  -17.0080  -14.4880 C.3    69  VAL69       0.0266
      6  CG1      -22.4600  -16.0410  -15.6840 C.3    69  VAL69       0.0020
      7  CG2      -23.8190  -17.5340  -14.1220 C.3    69  VAL69       0.0020
      8  N        -19.0540  -18.6720  -14.1830 N.am   70  TYR70      -0.1962
      9  CA       -17.6690  -18.3910  -13.8040 C.3    70  TYR70       0.1771
     10  C        -16.8780  -18.1680  -15.0620 C.2    70  TYR70       0.2619
     11  O        -17.0080  -18.9340  -16.0690 O.2    70  TYR70      -0.2715
     12  CB       -17.0250  -19.5740  -13.0390 C.3    70  TYR70       0.0574
     13  CG       -17.3040  -19.6550  -11.5750 C.ar   70  TYR70      -0.0198
     14  CD1      -18.5200  -19.1890  -11.0120 C.ar   70  TYR70      -0.0009
     15  CD2      -16.3930  -20.2690  -10.7550 C.ar   70  TYR70      -0.0009
     16  CE1      -18.7990  -19.3370   -9.6580 C.ar   70  TYR70       0.0417
     17  CE2      -16.6260  -20.4370   -9.4140 C.ar   70  TYR70       0.0417
     18  CZ       -17.8220  -19.9590   -8.8550 C.ar   70  TYR70       0.1957
     19  OH       -17.9800  -20.1140   -7.5030 O.3    70  TYR70      -0.2866
     20  N        -16.0600  -17.1190  -15.0280 N.am   71  ILE71      -0.1963
     21  CA       -15.1120  -16.8930  -16.1060 C.3    71  ILE71       0.1727
     22  C        -13.9370  -17.8610  -15.9390 C.2    71  ILE71       0.2616
     23  O        -13.3370  -17.9290  -14.8670 O.2    71  ILE71      -0.2715
     24  CB       -14.6630  -15.4310  -16.1380 C.3    71  ILE71       0.0290
     25  CG1      -15.8570  -14.5690  -16.5500 C.3    71  ILE71       0.0022
     26  CG2      -13.4760  -15.2830  -17.0580 C.3    71  ILE71       0.0023
     27  CD1      -15.6210  -13.0840  -16.3890 C.3    71  ILE71       0.0001
     28  N        -13.6440  -18.6320  -16.9740 N.am   72  MET72      -0.1977
     29  CA       -12.5930  -19.6570  -16.9130 C.3    72  MET72       0.1605
     30  C        -11.2360  -19.1220  -17.4660 C.2    72  MET72       0.2287
     31  O        -10.1500  -19.5110  -17.0200 O.2    72  MET72      -0.2864
     32  CB       -13.0230  -20.8990  -17.7260 C.3    72  MET72       0.0413
     33  CG       -14.1050  -21.7860  -17.0830 C.3    72  MET72       0.0598
     34  SD       -13.6910  -22.4410  -15.4310 S.3    72  MET72      -0.1393
     35  CE       -14.4930  -21.1720  -14.5000 C.3    72  MET72       0.0692
     36  N         -7.2850  -19.2220  -15.6430 N.3    83  PHE83      -0.1241
     37  CA        -7.0320  -19.1750  -14.2350 C.3    83  PHE83       0.1605
     38  C         -6.2660  -20.4060  -13.8010 C.2    83  PHE83       0.2264
     39  O         -6.3780  -21.4770  -14.4190 O.2    83  PHE83      -0.2867
     40  CB        -8.3260  -19.0550  -13.4290 C.3    83  PHE83       0.0534
     41  CG        -8.9570  -17.6630  -13.5200 C.ar   83  PHE83      -0.0203
     42  CD1       -8.2220  -16.5400  -13.1140 C.ar   83  PHE83      -0.0042
     43  CD2      -10.2610  -17.4850  -13.9970 C.ar   83  PHE83      -0.0042
     44  CE1       -8.7710  -15.2570  -13.1820 C.ar   83  PHE83      -0.0003
     45  CE2      -10.8160  -16.2030  -14.0690 C.ar   83  PHE83      -0.0003
     46  CZ       -10.0570  -15.0950  -13.6870 C.ar   83  PHE83      -0.0000
     47  N         -6.4050  -23.0470  -11.6950 N.3    85  GLU85      -0.1245
     48  CA        -7.3780  -23.8320  -10.8970 C.3    85  GLU85       0.1567
     49  C         -7.9200  -24.9890  -11.7560 C.2    85  GLU85       0.2260
     50  O         -7.9630  -24.8910  -12.9940 O.2    85  GLU85      -0.2867
     51  CB        -8.5470  -22.9730  -10.3790 C.3    85  GLU85       0.0388
     52  CG        -9.4500  -22.5950  -11.5320 C.3    85  GLU85       0.1160
     53  CD       -10.3530  -21.4020  -11.3030 C.2    85  GLU85       0.3649
     54  OE1      -10.0070  -20.5190  -10.5130 O.co2  85  GLU85      -0.2457
     55  OE2      -11.4230  -21.3630  -11.9720 O.co2  85  GLU85      -0.2457
     56  N         -9.5030  -17.7170   -9.8750 N.3   109  GLY109     -0.1210
     57  CA       -10.4560  -16.6800  -10.3560 C.3   109  GLY109      0.1956
     58  C        -11.3810  -16.0570   -9.3230 C.2   109  GLY109      0.2612
     59  O        -12.2340  -15.2620   -9.6550 O.2   109  GLY109     -0.2717
     60  N        -11.2460  -16.4280   -8.0660 N.am  110  ASN110     -0.1960
     61  CA       -12.1920  -15.9530   -7.0700 C.3   110  ASN110      0.1819
     62  C        -11.7820  -14.5840   -6.5280 C.2   110  ASN110      0.2621
     63  O        -10.5990  -14.1310   -6.6040 O.2   110  ASN110     -0.2715
     64  CB       -12.3290  -16.9360   -5.9580 C.3   110  ASN110      0.1195
     65  CG       -11.0320  -17.2100   -5.3220 C.2   110  ASN110      0.2630
     66  OD1      -10.5720  -16.4770   -4.4440 O.2   110  ASN110     -0.2716
     67  ND2      -10.3690  -18.2150   -5.8240 N.am  110  ASN110     -0.0877
     68  N        -12.7830  -13.8850   -6.0620 N.am  111  TYR111     -0.1960
     69  CA       -12.6060  -12.5150   -5.6860 C.3   111  TYR111      0.1771
     70  C        -11.4240  -12.3220   -4.7490 C.2   111  TYR111      0.2619
     71  O        -10.5810  -11.4270   -4.9590 O.2   111  TYR111     -0.2715
     72  CB       -13.8970  -11.9840   -5.0350 C.3   111  TYR111      0.0574
     73  CG       -14.9900  -11.5940   -6.0410 C.ar  111  TYR111     -0.0198
     74  CD1      -14.6940  -10.8740   -7.1760 C.ar  111  TYR111     -0.0009
     75  CD2      -16.3370  -11.9240   -5.8210 C.ar  111  TYR111     -0.0009
     76  CE1      -15.7100  -10.5100   -8.0870 C.ar  111  TYR111      0.0417
     77  CE2      -17.3380  -11.5730   -6.7180 C.ar  111  TYR111      0.0417
     78  CZ       -17.0310  -10.8570   -7.8430 C.ar  111  TYR111      0.1957
     79  OH       -18.0280  -10.4660   -8.7400 O.3   111  TYR111     -0.2866
     80  N        -11.3110  -13.1910   -3.7580 N.am  112  GLU112     -0.1977
     81  CA       -10.2970  -12.9580   -2.7070 C.3   112  GLU112      0.1602
     82  C         -8.8960  -13.0140   -3.3620 C.2   112  GLU112      0.2287
     83  O         -8.0900  -12.1150   -3.2130 O.2   112  GLU112     -0.2864
     84  CB       -10.4700  -13.9120   -1.5290 C.3   112  GLU112      0.0415
     85  CG       -11.9240  -13.9340   -0.9870 C.3   112  GLU112      0.1163
     86  CD       -12.8420  -14.9950   -1.6630 C.2   112  GLU112      0.3649
     87  OE1      -13.3220  -14.8360   -2.8490 O.co2 112  GLU112     -0.2457
     88  OE2      -13.0720  -16.0370   -0.9930 O.co2 112  GLU112     -0.2457
     89  N        -15.6410   -9.5200  -14.5220 N.3   155  ILE155     -0.1245
     90  CA       -16.5640  -10.4340  -13.8200 C.3   155  ILE155      0.1561
     91  C        -17.8170   -9.6780  -13.3640 C.2   155  ILE155      0.2260
     92  O        -18.9530  -10.1500  -13.5470 O.2   155  ILE155     -0.2867
     93  CB       -15.8750  -11.1150  -12.5990 C.3   155  ILE155      0.0252
     94  CG1      -14.8330  -12.0980  -13.1580 C.3   155  ILE155      0.0019
     95  CG2      -16.8730  -11.8510  -11.6730 C.3   155  ILE155      0.0019
     96  CD1      -13.8840  -12.6540  -12.1300 C.3   155  ILE155      0.0001
     97  N        -20.7730  -11.3620  -15.7140 N.3   159  ALA159     -0.1231
     98  CA       -21.4180  -12.3870  -14.8690 C.3   159  ALA159      0.1694
     99  C        -22.3390  -11.8450  -13.7970 C.2   159  ALA159      0.2591
    100  O        -23.4880  -12.3150  -13.6710 O.2   159  ALA159     -0.2718
    101  CB       -20.3940  -13.2860  -14.2150 C.3   159  ALA159      0.0304
    102  N        -21.8750  -10.8750  -13.0140 N.am  160  GLU160     -0.1979
    103  CA       -22.6580  -10.4240  -11.8740 C.3   160  GLU160      0.1602
    104  C        -23.8850   -9.6500  -12.2990 C.2   160  GLU160      0.2287
    105  O        -24.9530   -9.7700  -11.6590 O.2   160  GLU160     -0.2864
    106  CB       -21.8450   -9.5860  -10.8610 C.3   160  GLU160      0.0415
    107  CG       -20.6110  -10.3140  -10.2750 C.3   160  GLU160      0.1163
    108  CD       -20.9380  -11.4070   -9.2520 C.2   160  GLU160      0.3649
    109  OE1      -22.1060  -11.8760   -9.1430 O.co2 160  GLU160     -0.2457
    110  OE2      -19.9930  -11.8460   -8.5860 O.co2 160  GLU160     -0.2457
    111  N        -26.4040  -12.1870  -13.3080 N.3   163  ARG163     -0.1245
    112  CA       -27.0530  -12.7410  -12.1100 C.3   163  ARG163      0.1563
    113  C        -28.0780  -11.8610  -11.4000 C.2   163  ARG163      0.2260
    114  O        -29.0130  -12.3850  -10.8010 O.2   163  ARG163     -0.2867
    115  CB       -25.9770  -13.1370  -11.0920 C.3   163  ARG163      0.0307
    116  CG       -25.0880  -14.2610  -11.5450 C.3   163  ARG163      0.0489
    117  CD       -23.9020  -14.3910  -10.5930 C.3   163  ARG163      0.2205
    118  NE       -23.0380  -15.5330  -10.9100 N.pl3 163  ARG163     -0.0865
    119  CZ       -21.7320  -15.5640  -10.5920 C.cat 163  ARG163      0.5346
    120  NH1      -21.1890  -14.5300   -9.9570 N.pl3 163  ARG163      0.1354
    121  NH2      -20.9600  -16.6170  -10.9010 N.pl3 163  ARG163      0.1354
    122  N        -23.1160   -9.8970   -4.7550 N.3   189  GLU189     -0.1245
    123  CA       -22.0650  -10.7550   -5.3360 C.3   189  GLU189      0.1567
    124  C        -21.6590  -11.8220   -4.3640 C.2   189  GLU189      0.2260
    125  O        -21.5630  -13.0210   -4.7160 O.2   189  GLU189     -0.2867
    126  CB       -20.7970   -9.9670   -5.6860 C.3   189  GLU189      0.0388
    127  CG       -21.0430   -8.9320   -6.7590 C.3   189  GLU189      0.1160
    128  CD       -19.8960   -7.9590   -6.9830 C.2   189  GLU189      0.3649
    129  OE1      -19.9940   -7.2300   -8.0030 O.co2 189  GLU189     -0.2457
    130  OE2      -18.9750   -7.9030   -6.1510 O.co2 189  GLU189     -0.2457
    131  N        -24.5550  -14.7610   -3.7350 N.3   192  TRP192     -0.1241
    132  CA       -25.2550  -15.4070   -4.8430 C.3   192  TRP192      0.1605
    133  C        -25.5190  -16.8750   -4.6000 C.2   192  TRP192      0.2264
    134  O        -26.6260  -17.3400   -4.7950 O.2   192  TRP192     -0.2867
    135  CB       -24.4980  -15.2670   -6.1320 C.3   192  TRP192      0.0550
    136  CG       -25.2210  -15.8300   -7.2740 C.ar  192  TRP192      0.0003
    137  CD1      -26.4470  -15.4490   -7.7220 C.ar  192  TRP192      0.0946
    138  CD2      -24.7370  -16.8050   -8.1980 C.ar  192  TRP192      0.0152
    139  NE1      -26.7870  -16.1760   -8.8580 N.ar  192  TRP192     -0.2442
    140  CE2      -25.7510  -17.0060   -9.1710 C.ar  192  TRP192      0.0810
    141  CE3      -23.5810  -17.5780   -8.2620 C.ar  192  TRP192      0.0012
    142  CZ2      -25.6220  -17.9070  -10.2070 C.ar  192  TRP192      0.0191
    143  CZ3      -23.4440  -18.4610   -9.2950 C.ar  192  TRP192      0.0001
    144  CH2      -24.4600  -18.6320  -10.2570 C.ar  192  TRP192      0.0015
@<TRIPOS>BOND
     1    32    33    1
     2    32    29    1
     3    30    31    2
     4    30    29    1
     5    33    34    1
     6    26    24    1
     7    28    29    1
     8    28    22   am
     9    25    27    1
    10    25    24    1
    11    24    21    1
    12    21    22    1
    13    21    20    1
    14    11    10    2
    15    22    23    2
    16    97    98    1
    17     6     5    1
    18    36    37    1
    19    34    35    1
    20    10    20   am
    21    10     9    1
    22    98   101    1
    23    98    99    1
    24     2     5    1
    25     2     3    1
    26     2     1    1
    27    89    90    1
    28     5     7    1
    29     3     4    2
    30     3     8   am
    31    39    38    2
    32    37    38    1
    33    37    40    1
    34     8     9    1
    35    45    43   ar
    36    45    46   ar
    37    43    41   ar
    38    90    91    1
    39    90    93    1
    40     9    12    1
    41    99   100    2
    42    99   102   am
    43    46    44   ar
    44    92    91    2
    45    41    40    1
    46    41    42   ar
    47   111   112    1
    48    44    42   ar
    49    94    93    1
    50    94    96    1
    51    12    13    1
    52   102   103    1
    53    50    49    2
    54    93    95    1
    55   104   103    1
    56   104   105    2
    57   112   113    1
    58   112   115    1
    59    55    53   ar
    60   103   106    1
    61    49    48    1
    62    47    48    1
    63    13    14   ar
    64    13    15   ar
    65   116   115    1
    66   116   117    1
    67    52    53    1
    68    52    51    1
    69   113   114    2
    70    53    54   ar
    71    14    16   ar
    72   118   117    1
    73   118   119    2
    74   121   119    1
    75    48    51    1
    76   106   107    1
    77    15    17   ar
    78   119   120    1
    79    57    56    1
    80    57    58    1
    81   107   108    1
    82   144   142   ar
    83   144   143   ar
    84   142   140   ar
    85    16    18   ar
    86    59    58    2
    87    17    18   ar
    88    58    60   am
    89   143   141   ar
    90   108   109   ar
    91   108   110   ar
    92   140   139   ar
    93   140   138   ar
    94   139   137   ar
    95    18    19    1
    96    79    78    1
    97   141   138   ar
    98   138   136   ar
    99    76    78   ar
   100    76    74   ar
   101    60    61    1
   102   129   128   ar
   103    78    77   ar
   104   137   136   ar
   105   136   135    1
   106    74    73   ar
   107    61    62    1
   108    61    64    1
   109   128   127    1
   110   128   130   ar
   111   127   126    1
   112    77    75   ar
   113    63    62    2
   114    62    68   am
   115   135   132    1
   116    68    69    1
   117    73    75   ar
   118    73    72    1
   119    64    65    1
   120    67    65   am
   121   126   123    1
   122    69    72    1
   123    69    70    1
   124   123   122    1
   125   123   124    1
   126    65    66    2
   127    71    70    2
   128   132   133    1
   129   132   131    1
   130   134   133    2
   131    70    80   am
   132   125   124    2
   133    80    81    1
   134    82    83    2
   135    82    81    1
   136    87    86   ar
   137    81    84    1
   138    86    88   ar
   139    86    85    1
   140    84    85    1
