@<TRIPOS>MOLECULE
tmp/5ilzA00.pdb
 172 164 0 0 0
SMALL
GASTEIGER

@<TRIPOS>ATOM
      1  N         12.0710   76.4610    8.4570 N.3   252  ARG252     -0.1245
      2  CA        12.6530   75.1300    8.3300 C.3   252  ARG252      0.1563
      3  C         12.1270   74.1960    9.4180 C.2   252  ARG252      0.2260
      4  O         12.1610   74.5250   10.5990 O.2   252  ARG252     -0.2867
      5  CB        14.1830   75.2120    8.4070 C.3   252  ARG252      0.0307
      6  CG        14.8300   75.9860    7.2670 C.3   252  ARG252      0.0489
      7  CD        16.2770   76.3470    7.5870 C.3   252  ARG252      0.2205
      8  NE        16.3630   77.2380    8.7390 N.pl3 252  ARG252     -0.0865
      9  CZ        17.4930   77.7700    9.1990 C.cat 252  ARG252      0.5346
     10  NH1       18.6490   77.5090    8.5990 N.pl3 252  ARG252      0.1354
     11  NH2       17.4640   78.5690   10.2600 N.pl3 252  ARG252      0.1354
     12  N         22.7390   67.8340   15.9550 N.3   261  TRP261     -0.1241
     13  CA        23.6350   68.8500   16.5050 C.3   261  TRP261      0.1605
     14  C         23.8900   68.6030   17.9910 C.2   261  TRP261      0.2264
     15  O         25.0320   68.6250   18.4690 O.2   261  TRP261     -0.2867
     16  CB        23.0230   70.2380   16.3080 C.3   261  TRP261      0.0550
     17  CG        23.9630   71.2900   15.8110 C.ar  261  TRP261      0.0003
     18  CD1       24.8350   72.0310   16.5530 C.ar  261  TRP261      0.0946
     19  CD2       24.1000   71.7470   14.4610 C.ar  261  TRP261      0.0152
     20  NE1       25.5170   72.9080   15.7480 N.ar  261  TRP261     -0.2442
     21  CE2       25.0780   72.7600   14.4600 C.ar  261  TRP261      0.0810
     22  CE3       23.4920   71.3950   13.2520 C.ar  261  TRP261      0.0012
     23  CZ2       25.4740   73.4150   13.2940 C.ar  261  TRP261      0.0191
     24  CZ3       23.8810   72.0490   12.1000 C.ar  261  TRP261      0.0001
     25  CH2       24.8620   73.0480   12.1270 C.ar  261  TRP261      0.0015
     26  N         17.9970   74.9650   19.9640 N.3   282  ILE282     -0.1245
     27  CA        18.4270   75.0380   18.5760 C.3   282  ILE282      0.1561
     28  C         17.2050   75.1460   17.6650 C.2   282  ILE282      0.2260
     29  O         17.1790   75.9550   16.7410 O.2   282  ILE282     -0.2867
     30  CB        19.2730   73.8210   18.1710 C.3   282  ILE282      0.0252
     31  CG1       20.5310   73.7630   19.0290 C.3   282  ILE282      0.0019
     32  CG2       19.6660   73.9230   16.6890 C.3   282  ILE282      0.0019
     33  CD1       21.2940   72.4540   18.8980 C.3   282  ILE282      0.0001
     34  N         15.6110   78.8150   18.0690 N.3   285  ILE285     -0.1231
     35  CA        16.3390   79.9370   17.4780 C.3   285  ILE285      0.1692
     36  C         16.3140   79.8040   15.9550 C.2   285  ILE285      0.2592
     37  O         16.4070   80.7980   15.2320 O.2   285  ILE285     -0.2718
     38  CB        17.7960   80.0370   17.9860 C.3   285  ILE285      0.0266
     39  CG1       18.3660   81.4260   17.6740 C.3   285  ILE285      0.0019
     40  CG2       18.6630   78.9380   17.3980 C.3   285  ILE285      0.0020
     41  CD1       17.7100   82.5430   18.5020 C.3   285  ILE285      0.0001
     42  N         16.1520   78.5730   15.4810 N.am  286  SER286     -0.1952
     43  CA        16.0160   78.3080   14.0580 C.3   286  SER286      0.1924
     44  C         14.7650   79.0020   13.5020 C.2   286  SER286      0.2314
     45  O         14.7980   79.5920   12.4250 O.2   286  SER286     -0.2863
     46  CB        15.9660   76.7990   13.8110 C.3   286  SER286      0.2116
     47  OG        15.9400   76.4960   12.4340 O.3   286  SER286     -0.2180
     48  N         15.6410   82.7220   13.4960 N.3   289  ASP289     -0.1239
     49  CA        16.5110   82.9160   12.3390 C.3   289  ASP289      0.1674
     50  C         15.7140   83.0300   11.0330 C.2   289  ASP289      0.2266
     51  O         15.9040   83.9710   10.2720 O.2   289  ASP289     -0.2867
     52  CB        17.5150   81.7600   12.2580 C.3   289  ASP289      0.1410
     53  CG        18.5780   81.9550   11.1760 C.2   289  ASP289      0.3668
     54  OD1       18.8120   83.1040   10.7300 O.co2 289  ASP289     -0.2456
     55  OD2       19.2000   80.9420   10.7880 O.co2 289  ASP289     -0.2456
     56  N         20.7800   89.7950   14.9810 N.3   364  TYR364     -0.1241
     57  CA        19.9330   89.4950   13.8260 C.3   364  TYR364      0.1605
     58  C         19.3340   90.7820   13.2970 C.2   364  TYR364      0.2264
     59  O         19.2530   91.0000   12.0910 O.2   364  TYR364     -0.2867
     60  CB        18.7920   88.5440   14.1800 C.3   364  TYR364      0.0534
     61  CG        19.1320   87.0750   14.1880 C.ar  364  TYR364     -0.0201
     62  CD1       20.3280   86.6020   13.6690 C.ar  364  TYR364     -0.0009
     63  CD2       18.2310   86.1560   14.6980 C.ar  364  TYR364     -0.0009
     64  CE1       20.6230   85.2430   13.6830 C.ar  364  TYR364      0.0417
     65  CE2       18.5100   84.8060   14.7050 C.ar  364  TYR364      0.0417
     66  CZ        19.7020   84.3580   14.1940 C.ar  364  TYR364      0.1957
     67  OH        19.9600   83.0070   14.2150 O.3   364  TYR364     -0.2866
     68  N         25.7070   86.1160   15.5840 N.3   389  THR389     -0.1203
     69  CA        24.6200   85.6140   14.7280 C.3   389  THR389      0.1994
     70  C         24.8580   84.1900   14.2270 C.2   389  THR389      0.2619
     71  O         23.9480   83.5750   13.6530 O.2   389  THR389     -0.2717
     72  CB        24.3550   86.5140   13.5200 C.3   389  THR389      0.1784
     73  OG1       25.4810   86.4900   12.6350 O.3   389  THR389     -0.2211
     74  CG2       24.0390   87.9490   13.9730 C.3   389  THR389      0.0376
     75  N         26.0580   83.6460   14.4450 N.am  390  THR390     -0.1938
     76  CA        26.2650   82.1970   14.2570 C.3   390  THR390      0.2028
     77  C         25.4330   81.3800   15.2440 C.2   390  THR390      0.2643
     78  O         25.2260   80.1830   15.0390 O.2   390  THR390     -0.2714
     79  CB        27.7280   81.7750   14.4750 C.3   390  THR390      0.1808
     80  OG1       28.0750   81.9780   15.8580 O.3   390  THR390     -0.2208
     81  CG2       28.6890   82.5470   13.5470 C.3   390  THR390      0.0379
     82  N         24.9880   82.0570   16.3080 N.am  391  THR391     -0.1936
     83  CA        24.3360   81.5080   17.5140 C.3   391  THR391      0.2028
     84  C         25.2630   80.6770   18.3900 C.2   391  THR391      0.2642
     85  O         24.8020   80.0580   19.3450 O.2   391  THR391     -0.2714
     86  CB        23.1120   80.6050   17.2130 C.3   391  THR391      0.1808
     87  OG1       23.5770   79.3230   16.7600 O.3   391  THR391     -0.2208
     88  CG2       22.1600   81.2380   16.2020 C.3   391  THR391      0.0379
     89  N         26.5580   80.6680   18.0940 N.am  392  TYR392     -0.1973
     90  CA        27.4610   79.7540   18.7900 C.3   392  TYR392      0.1639
     91  C         27.7650   80.1490   20.2580 C.2   392  TYR392      0.2290
     92  O         27.9020   79.2660   21.0980 O.2   392  TYR392     -0.2864
     93  CB        28.7650   79.5770   17.9840 C.3   392  TYR392      0.0560
     94  CG        28.7630   78.2970   17.1650 C.ar  392  TYR392     -0.0198
     95  CD1       27.5760   77.7770   16.6620 C.ar  392  TYR392     -0.0009
     96  CD2       29.9340   77.5860   16.9330 C.ar  392  TYR392     -0.0009
     97  CE1       27.5590   76.5750   15.9290 C.ar  392  TYR392      0.0417
     98  CE2       29.9290   76.3940   16.1990 C.ar  392  TYR392      0.0417
     99  CZ        28.7370   75.8930   15.7050 C.ar  392  TYR392      0.1957
    100  OH        28.7170   74.7040   14.9970 O.3   392  TYR392     -0.2866
    101  N         24.6500   78.7730   21.8590 N.3   395  LEU395     -0.1245
    102  CA        24.5280   77.3290   21.9080 C.3   395  LEU395      0.1561
    103  C         25.4940   76.7700   22.9530 C.2   395  LEU395      0.2260
    104  O         25.1590   75.8460   23.6700 O.2   395  LEU395     -0.2867
    105  CB        24.7780   76.6940   20.5330 C.3   395  LEU395      0.0270
    106  CG        23.7420   76.9880   19.4380 C.3   395  LEU395      0.0019
    107  CD1       23.9250   75.9960   18.2940 C.3   395  LEU395      0.0001
    108  CD2       22.3010   76.9320   19.9350 C.3   395  LEU395      0.0001
    109  N         32.8470   78.8310   12.9200 N.3   428  CYS428     -0.1221
    110  CA        31.4910   78.7540   12.4110 C.3   428  CYS428      0.1808
    111  C         31.2120   79.8980   11.4250 C.2   428  CYS428      0.2601
    112  O         30.6520   79.6940   10.3550 O.2   428  CYS428     -0.2717
    113  CB        30.4800   78.7880   13.5500 C.3   428  CYS428      0.0970
    114  SG        28.8050   78.5310   12.9440 S.3   428  CYS428     -0.0800
    115  N         31.6590   81.0940   11.7750 N.am  429  ARG429     -0.1979
    116  CA        31.3750   82.2700   10.9700 C.3   429  ARG429      0.1597
    117  C         32.0560   82.2320    9.6130 C.2   429  ARG429      0.2287
    118  O         31.4340   82.5440    8.5960 O.2   429  ARG429     -0.2864
    119  CB        31.8020   83.5340   11.7170 C.3   429  ARG429      0.0334
    120  CG        31.5970   84.8210   10.9170 C.3   429  ARG429      0.0492
    121  CD        30.1640   85.2840   11.0080 C.3   429  ARG429      0.2205
    122  NE        29.3400   84.6070   10.0330 N.pl3 429  ARG429     -0.0865
    123  CZ        28.0390   84.3430   10.1530 C.cat 429  ARG429      0.5346
    124  NH1       27.3560   84.6760   11.2380 N.pl3 429  ARG429      0.1354
    125  NH2       27.4160   83.7170    9.1590 N.pl3 429  ARG429      0.1354
    126  N         30.6480   79.3010    7.3150 N.3   432  ASP432     -0.1239
    127  CA        29.3460   79.7130    6.8200 C.3   432  ASP432      0.1674
    128  C         29.4630   80.7920    5.7410 C.2   432  ASP432      0.2266
    129  O         28.8300   80.6940    4.6910 O.2   432  ASP432     -0.2867
    130  CB        28.4630   80.2220    7.9640 C.3   432  ASP432      0.1410
    131  CG        27.0750   80.6230    7.4830 C.2   432  ASP432      0.3668
    132  OD1       26.6210   80.0700    6.4590 O.co2 432  ASP432     -0.2456
    133  OD2       26.4350   81.4820    8.1170 O.co2 432  ASP432     -0.2456
    134  N         30.3870   72.2620   12.7840 N.3   504  VAL504     -0.1245
    135  CA        30.5310   73.1730   11.6380 C.3   504  VAL504      0.1561
    136  C         31.2200   72.5030   10.4730 C.2   504  VAL504      0.2260
    137  O         30.7470   72.5380    9.3200 O.2   504  VAL504     -0.2867
    138  CB        31.3980   74.4270   11.9410 C.3   504  VAL504      0.0252
    139  CG1       31.5080   75.2780   10.6980 C.3   504  VAL504      0.0019
    140  CG2       30.8410   75.2340   13.0210 C.3   504  VAL504      0.0019
    141  N         29.3380   71.5790    6.9850 N.3   508  TYR508     -0.1241
    142  CA        29.6920   72.3220    5.7800 C.3   508  TYR508      0.1605
    143  C         30.8000   71.6510    4.9980 C.2   508  TYR508      0.2264
    144  O         31.4940   72.3020    4.2270 O.2   508  TYR508     -0.2867
    145  CB        30.1300   73.7400    6.1200 C.3   508  TYR508      0.0534
    146  CG        29.0240   74.6480    6.5820 C.ar  508  TYR508     -0.0201
    147  CD1       28.2770   75.3800    5.6670 C.ar  508  TYR508     -0.0009
    148  CD2       28.7330   74.7850    7.9300 C.ar  508  TYR508     -0.0009
    149  CE1       27.2690   76.2140    6.0810 C.ar  508  TYR508      0.0417
    150  CE2       27.7250   75.6170    8.3550 C.ar  508  TYR508      0.0417
    151  CZ        26.9960   76.3310    7.4260 C.ar  508  TYR508      0.1957
    152  OH        25.9850   77.1620    7.8350 O.3   508  TYR508     -0.2866
    153  N         25.4410   74.2330    3.0800 N.3   513  ASP513     -0.1239
    154  CA        24.7880   74.3070    4.3920 C.3   513  ASP513      0.1674
    155  C         23.9810   73.0370    4.6830 C.2   513  ASP513      0.2266
    156  O         22.8330   72.8860    4.2470 O.2   513  ASP513     -0.2867
    157  CB        23.8870   75.5470    4.4810 C.3   513  ASP513      0.1410
    158  CG        23.2010   75.6920    5.8440 C.2   513  ASP513      0.3668
    159  OD1       23.5600   74.9660    6.8020 O.co2 513  ASP513     -0.2456
    160  OD2       22.2990   76.5490    5.9570 O.co2 513  ASP513     -0.2456
    161  N         22.5230   71.7980    7.3290 N.3   515  TYR515     -0.1241
    162  CA        21.3320   71.8470    8.1670 C.3   515  TYR515      0.1605
    163  C         20.0960   72.2850    7.3720 C.2   515  TYR515      0.2264
    164  O         19.0030   71.7570    7.5830 O.2   515  TYR515     -0.2867
    165  CB        21.5810   72.7720    9.3610 C.3   515  TYR515      0.0534
    166  CG        20.3650   73.0830   10.2040 C.ar  515  TYR515     -0.0201
    167  CD1       19.5050   74.1160    9.8570 C.ar  515  TYR515     -0.0009
    168  CD2       20.0920   72.3620   11.3590 C.ar  515  TYR515     -0.0009
    169  CE1       18.4020   74.4100   10.6190 C.ar  515  TYR515      0.0417
    170  CE2       18.9880   72.6500   12.1280 C.ar  515  TYR515      0.0417
    171  CZ        18.1450   73.6770   11.7510 C.ar  515  TYR515      0.1957
    172  OH        17.0380   73.9800   12.5080 O.3   515  TYR515     -0.2866
@<TRIPOS>BOND
     1   153   154    1
     2   144   143    2
     3   156   155    2
     4   154   157    1
     5   154   155    1
     6   157   158    1
     7   129   128    2
     8   143   142    1
     9   147   149   ar
    10   147   146   ar
    11   128   127    1
    12   142   145    1
    13   142   141    1
    14   158   160   ar
    15   158   159   ar
    16   149   151   ar
    17   145   146    1
    18   132   131   ar
    19   146   148   ar
    20   127   126    1
    21   127   130    1
    22     6     7    1
    23     6     5    1
    24   161   162    1
    25   163   164    2
    26   163   162    1
    27   151   152    1
    28   151   150   ar
    29   131   130    1
    30   131   133   ar
    31     7     8    1
    32   148   150   ar
    33   162   165    1
    34     2     5    1
    35     2     1    1
    36     2     3    1
    37   118   117    2
    38    10     9    1
    39     8     9    2
    40   125   123    1
    41     9    11    1
    42   137   136    2
    43   165   166    1
    44     3     4    2
    45   117   116    1
    46   167   166   ar
    47   167   169   ar
    48   122   123    2
    49   122   121    1
    50   123   124    1
    51   166   168   ar
    52    51    50    2
    53   112   111    2
    54   136   135    1
    55   169   171   ar
    56   139   138    1
    57    54    53   ar
    58    55    53   ar
    59   120   121    1
    60   120   119    1
    61   116   119    1
    62   116   115    1
    63    50    49    1
    64    53    52    1
    65   168   170   ar
    66   111   115   am
    67   111   110    1
    68   135   138    1
    69   135   134    1
    70   171   170   ar
    71   171   172    1
    72   138   140    1
    73    59    58    2
    74    24    25   ar
    75    24    22   ar
    76    25    23   ar
    77    52    49    1
    78    49    48    1
    79   110   109    1
    80   110   113    1
    81    45    44    2
    82    47    46    1
    83    73    72    1
    84   114   113    1
    85    22    19   ar
    86    23    21   ar
    87    58    57    1
    88    44    43    1
    89    72    74    1
    90    72    69    1
    91    81    79    1
    92    71    70    2
    93    62    64   ar
    94    62    61   ar
    95    64    66   ar
    96    46    43    1
    97    57    60    1
    98    57    56    1
    99    43    42    1
   100    60    61    1
   101    61    63   ar
   102    66    67    1
   103    66    65   ar
   104    70    75   am
   105    70    69    1
   106    76    75    1
   107    76    79    1
   108    76    77    1
   109    21    19   ar
   110    21    20   ar
   111    19    17   ar
   112    79    80    1
   113    63    65   ar
   114    69    68    1
   115   100    99    1
   116    78    77    2
   117    37    36    2
   118    77    82   am
   119    42    36   am
   120    99    97   ar
   121    99    98   ar
   122    20    18   ar
   123    17    16    1
   124    17    18   ar
   125    97    95   ar
   126    36    35    1
   127    12    13    1
   128    98    96   ar
   129    88    86    1
   130    82    83    1
   131    16    13    1
   132    13    14    1
   133    95    94   ar
   134    32    30    1
   135    29    28    2
   136    87    86    1
   137    96    94   ar
   138    94    93    1
   139    86    83    1
   140    40    38    1
   141    35    38    1
   142    35    34    1
   143    83    84    1
   144    28    27    1
   145    39    38    1
   146    39    41    1
   147    93    90    1
   148    14    15    2
   149    89    84   am
   150    89    90    1
   151    30    27    1
   152    30    31    1
   153   107   106    1
   154    84    85    2
   155    27    26    1
   156    90    91    1
   157    33    31    1
   158   106   108    1
   159   106   105    1
   160    91    92    2
   161   105   102    1
   162   101   102    1
   163   102   103    1
   164   103   104    2
