@<TRIPOS>MOLECULE
tmp/5im2A00.pdb
 157 153 0 0 0
SMALL
GASTEIGER

@<TRIPOS>ATOM
      1  N         38.8440    1.8110   77.6510 N.3     9  PHE9       -0.1227
      2  CA        38.1260    2.6590   78.5960 C.3     9  PHE9        0.1736
      3  C         36.8560    1.9990   79.1350 C.2     9  PHE9        0.2595
      4  O         36.2120    2.5470   80.0500 O.2     9  PHE9       -0.2718
      5  CB        37.7910    4.0120   77.9170 C.3     9  PHE9        0.0547
      6  CG        36.8370    3.8770   76.7490 C.ar    9  PHE9       -0.0202
      7  CD1       35.4680    3.9470   76.9380 C.ar    9  PHE9       -0.0042
      8  CD2       37.3010    3.6850   75.4590 C.ar    9  PHE9       -0.0042
      9  CE1       34.5940    3.8010   75.8780 C.ar    9  PHE9       -0.0003
     10  CE2       36.4180    3.5350   74.3940 C.ar    9  PHE9       -0.0003
     11  CZ        35.0650    3.6130   74.6100 C.ar    9  PHE9       -0.0000
     12  N         36.5110    0.8050   78.6290 N.am   10  MET10      -0.1979
     13  CA        35.3120    0.1040   79.0540 C.3    10  MET10       0.1605
     14  C         35.4700   -0.4220   80.4720 C.2    10  MET10       0.2287
     15  O         36.5580   -0.8210   80.8930 O.2    10  MET10      -0.2864
     16  CB        35.0180   -1.0700   78.1170 C.3    10  MET10       0.0413
     17  CG        34.7450   -0.6720   76.6700 C.3    10  MET10       0.0598
     18  SD        33.4340    0.5610   76.4810 S.3    10  MET10      -0.1393
     19  CE        31.9990   -0.3470   77.0770 C.3    10  MET10       0.0692
     20  N         41.4620   -0.3360   71.9940 N.3    66  TRP66      -0.1241
     21  CA        40.1550   -0.2300   71.3560 C.3    66  TRP66       0.1605
     22  C         39.5710    1.1040   71.7940 C.2    66  TRP66       0.2264
     23  O         39.4420    1.3570   73.0060 O.2    66  TRP66      -0.2867
     24  CB        39.2360   -1.3920   71.7630 C.3    66  TRP66       0.0550
     25  CG        37.8810   -1.4690   71.1290 C.ar   66  TRP66       0.0003
     26  CD1       37.5590   -2.0960   69.9560 C.ar   66  TRP66       0.0946
     27  CD2       36.6550   -0.9840   71.6750 C.ar   66  TRP66       0.0152
     28  NE1       36.1980   -2.0020   69.7280 N.ar   66  TRP66      -0.2442
     29  CE2       35.6220   -1.3550   70.7810 C.ar   66  TRP66       0.0810
     30  CE3       36.3210   -0.2770   72.8360 C.ar   66  TRP66       0.0012
     31  CZ2       34.2890   -1.0270   70.9960 C.ar   66  TRP66       0.0191
     32  CZ3       35.0030    0.0490   73.0450 C.ar   66  TRP66       0.0001
     33  CH2       34.0010   -0.3410   72.1440 C.ar   66  TRP66       0.0015
     34  N         37.2750    4.9700   70.3310 N.3    68  ILE68      -0.1245
     35  CA        36.5350    5.7400   69.3350 C.3    68  ILE68       0.1561
     36  C         37.4900    6.7660   68.7180 C.2    68  ILE68       0.2260
     37  O         37.9760    7.6590   69.4460 O.2    68  ILE68      -0.2867
     38  CB        35.3180    6.4280   69.9720 C.3    68  ILE68       0.0252
     39  CG1       34.3060    5.3670   70.4330 C.3    68  ILE68       0.0019
     40  CG2       34.6710    7.4260   69.0160 C.3    68  ILE68       0.0019
     41  CD1       32.9760    5.8650   71.0210 C.3    68  ILE68       0.0001
     42  N         36.9300   10.4660   69.5970 N.3    71  TYR71      -0.1241
     43  CA        37.3290   11.0190   70.8930 C.3    71  TYR71       0.1605
     44  C         38.5030   11.9950   70.7700 C.2    71  TYR71       0.2264
     45  O         38.7200   12.7960   71.6820 O.2    71  TYR71      -0.2867
     46  CB        37.7310    9.8940   71.8510 C.3    71  TYR71       0.0534
     47  CG        36.6070    9.1130   72.5220 C.ar   71  TYR71      -0.0201
     48  CD1       35.2550    9.4080   72.3160 C.ar   71  TYR71      -0.0009
     49  CD2       36.9140    8.0230   73.3510 C.ar   71  TYR71      -0.0009
     50  CE1       34.2420    8.6680   72.9570 C.ar   71  TYR71       0.0417
     51  CE2       35.9400    7.3080   73.9900 C.ar   71  TYR71       0.0417
     52  CZ        34.5960    7.6220   73.8120 C.ar   71  TYR71       0.1957
     53  OH        33.6590    6.8660   74.4950 O.3    71  TYR71      -0.2866
     54  N         28.6900    0.6240   66.4310 N.3   121  HIS121     -0.1241
     55  CA        27.7330    0.0520   67.3650 C.3   121  HIS121      0.1621
     56  C         26.2960    0.0690   66.8010 C.2   121  HIS121      0.2264
     57  O         26.0510    0.4300   65.6510 O.2   121  HIS121     -0.2867
     58  CB        27.8610    0.7170   68.7550 C.3   121  HIS121      0.0745
     59  CG        27.5600    2.1980   68.8320 C.ar  121  HIS121      0.0817
     60  ND1       26.3690    2.7630   68.4080 N.ar  121  HIS121     -0.2268
     61  CD2       28.2790    3.2130   69.3740 C.ar  121  HIS121      0.1154
     62  CE1       26.3980    4.0700   68.6380 C.ar  121  HIS121      0.1986
     63  NE2       27.5300    4.3660   69.2570 N.ar  121  HIS121     -0.2212
     64  N         24.7300   15.0350   75.5270 N.3   145  ARG145     -0.1245
     65  CA        26.0540   14.4850   75.2410 C.3   145  ARG145      0.1563
     66  C         26.0730   13.7010   73.9320 C.2   145  ARG145      0.2260
     67  O         25.1660   12.9020   73.6470 O.2   145  ARG145     -0.2867
     68  CB        26.5060   13.5650   76.3810 C.3   145  ARG145      0.0307
     69  CG        27.8410   12.8910   76.1670 C.3   145  ARG145      0.0489
     70  CD        27.7200   11.5390   75.4170 C.3   145  ARG145      0.2205
     71  NE        29.0310   10.9320   75.2690 N.pl3 145  ARG145     -0.0865
     72  CZ        29.2560    9.7510   74.6960 C.cat 145  ARG145      0.5346
     73  NH1       28.2450    9.0230   74.1920 N.pl3 145  ARG145      0.1354
     74  NH2       30.4920    9.3090   74.6260 N.pl3 145  ARG145      0.1354
     75  N         29.3150   11.5140   71.4750 N.3   147  PRO147     -0.2116
     76  CA        30.6730   10.9770   71.5910 C.3   147  PRO147      0.1372
     77  C         31.7220   11.6380   70.6950 C.2   147  PRO147      0.2244
     78  O         32.9100   11.6040   71.0350 O.2   147  PRO147     -0.2868
     79  CB        30.4790    9.5020   71.2060 C.3   147  PRO147      0.0268
     80  CG        29.2970    9.5260   70.2270 C.3   147  PRO147      0.0207
     81  CD        28.3970   10.6020   70.7780 C.3   147  PRO147      0.0892
     82  N         32.6800    8.1190   77.0890 N.3   167  LEU167     -0.1245
     83  CA        31.7100    7.3370   77.8500 C.3   167  LEU167      0.1561
     84  C         31.9040    7.4350   79.3570 C.2   167  LEU167      0.2260
     85  O         30.9120    7.6930   80.0500 O.2   167  LEU167     -0.2867
     86  CB        31.7760    5.8680   77.4120 C.3   167  LEU167      0.0270
     87  CG        30.8150    4.8900   78.1220 C.3   167  LEU167      0.0019
     88  CD1       29.3640    5.0660   77.6560 C.3   167  LEU167      0.0001
     89  CD2       31.2610    3.4300   77.9300 C.3   167  LEU167      0.0001
     90  N         23.3240   10.7020   74.1760 N.3   183  ALA183     -0.1231
     91  CA        23.1430    9.8010   73.0520 C.3   183  ALA183      0.1694
     92  C         24.0580    8.5990   73.2790 C.2   183  ALA183      0.2592
     93  O         25.2650    8.7660   73.4160 O.2   183  ALA183     -0.2718
     94  CB        23.4910   10.5250   71.7510 C.3   183  ALA183      0.0304
     95  N         23.4770    7.4010   73.3570 N.am  184  LEU184     -0.1966
     96  CA        24.2120    6.1460   73.5200 C.3   184  LEU184      0.1713
     97  C         23.4180    5.0520   72.8330 C.2   184  LEU184      0.2458
     98  O         22.1840    5.0920   72.8630 O.2   184  LEU184     -0.2730
     99  CB        24.3720    5.7320   74.9810 C.3   184  LEU184      0.0310
    100  CG        25.1490    6.6180   75.9270 C.3   184  LEU184      0.0022
    101  CD1       24.8550    6.2810   77.3830 C.3   184  LEU184      0.0001
    102  CD2       26.5970    6.4470   75.5850 C.3   184  LEU184      0.0001
    103  N         24.0720    4.0020   72.3350 N.am  185  PRO185     -0.2727
    104  CA        23.3190    2.7870   72.0050 C.3   185  PRO185      0.1402
    105  C         22.8810    2.0740   73.2840 C.2   185  PRO185      0.2269
    106  O         23.4270    2.2940   74.3660 O.2   185  PRO185     -0.2865
    107  CB        24.3290    1.9490   71.2260 C.3   185  PRO185      0.0296
    108  CG        25.6310    2.3140   71.8790 C.3   185  PRO185      0.0237
    109  CD        25.5270    3.7930   72.1860 C.3   185  PRO185      0.0939
    110  N         23.3170   -1.0070   74.2360 N.3   187  GLU187     -0.1231
    111  CA        24.1140   -2.0810   74.8030 C.3   187  GLU187      0.1699
    112  C         25.0000   -1.5860   75.9520 C.2   187  GLU187      0.2592
    113  O         25.2600   -2.3490   76.8990 O.2   187  GLU187     -0.2718
    114  CB        24.9450   -2.7600   73.7030 C.3   187  GLU187      0.0402
    115  CG        25.9870   -1.8950   73.0540 C.3   187  GLU187      0.1161
    116  CD        27.3340   -1.8410   73.7820 C.2   187  GLU187      0.3649
    117  OE1       27.6450   -2.7410   74.6180 O.co2 187  GLU187     -0.2457
    118  OE2       28.0700   -0.8650   73.4920 O.co2 187  GLU187     -0.2457
    119  N         25.4490   -0.3250   75.8900 N.am  188  VAL188     -0.1980
    120  CA        26.4250    0.1880   76.8530 C.3   188  VAL188      0.1595
    121  C         25.7580    0.7630   78.0800 C.2   188  VAL188      0.2287
    122  O         26.4360    0.9760   79.0960 O.2   188  VAL188     -0.2864
    123  CB        27.3290    1.2410   76.1810 C.3   188  VAL188      0.0276
    124  CG1       26.5920    2.5460   75.9200 C.3   188  VAL188      0.0022
    125  CG2       28.6030    1.4490   77.0030 C.3   188  VAL188      0.0022
    126  N         22.1810    7.6650   64.3050 N.3   212  TYR212     -0.1241
    127  CA        23.6360    7.7160   64.1880 C.3   212  TYR212      0.1605
    128  C         24.2320    6.4180   64.7280 C.2   212  TYR212      0.2264
    129  O         23.5840    5.6490   65.4370 O.2   212  TYR212     -0.2867
    130  CB        24.2450    8.9340   64.9430 C.3   212  TYR212      0.0534
    131  CG        24.4140    8.6550   66.4060 C.ar  212  TYR212     -0.0201
    132  CD1       23.3500    8.7570   67.2800 C.ar  212  TYR212     -0.0009
    133  CD2       25.6300    8.2080   66.9000 C.ar  212  TYR212     -0.0009
    134  CE1       23.4890    8.4260   68.6290 C.ar  212  TYR212      0.0417
    135  CE2       25.7820    7.8810   68.2470 C.ar  212  TYR212      0.0417
    136  CZ        24.7060    7.9870   69.0980 C.ar  212  TYR212      0.1957
    137  OH        24.8610    7.6500   70.4290 O.3   212  TYR212     -0.2866
    138  N         34.6150    2.6560   65.8780 N.3   216  PHE216     -0.1241
    139  CA        35.6260    2.1720   66.7940 C.3   216  PHE216      0.1605
    140  C         36.7640    1.5780   65.9900 C.2   216  PHE216      0.2264
    141  O         36.5380    0.9980   64.9210 O.2   216  PHE216     -0.2867
    142  CB        35.0700    1.0680   67.7320 C.3   216  PHE216      0.0534
    143  CG        33.9140    1.5110   68.5630 C.ar  216  PHE216     -0.0203
    144  CD1       32.6530    1.5810   68.0240 C.ar  216  PHE216     -0.0042
    145  CD2       34.1070    1.8940   69.8990 C.ar  216  PHE216     -0.0042
    146  CE1       31.5960    2.0130   68.7930 C.ar  216  PHE216     -0.0003
    147  CE2       33.0550    2.3160   70.6630 C.ar  216  PHE216     -0.0003
    148  CZ        31.7850    2.3650   70.0980 C.ar  216  PHE216     -0.0000
    149  N         28.3260   -6.2330   69.3740 N.3   252  GLN252     -0.1245
    150  CA        27.9700   -4.9940   70.0660 C.3   252  GLN252      0.1566
    151  C         26.4710   -4.7220   69.9390 C.2   252  GLN252      0.2260
    152  O         25.7870   -4.3980   70.9230 O.2   252  GLN252     -0.2867
    153  CB        28.7810   -3.8220   69.5500 C.3   252  GLN252      0.0367
    154  CG        28.7790   -2.6350   70.5810 C.3   252  GLN252      0.0905
    155  CD        29.8840   -1.6410   70.3510 C.2   252  GLN252      0.2608
    156  OE1       30.6060   -1.6890   69.3700 O.2   252  GLN252     -0.2717
    157  NE2       29.9880   -0.7060   71.2530 N.am  252  GLN252     -0.0878
@<TRIPOS>BOND
     1   127   126    1
     2   127   128    1
     3   127   130    1
     4   128   129    2
     5   141   140    2
     6   130   131    1
     7    57    56    2
     8   138   139    1
     9   140   139    1
    10   131   133   ar
    11   131   132   ar
    12    54    55    1
    13   139   142    1
    14    56    55    1
    15   133   135   ar
    16   132   134   ar
    17    55    58    1
    18   142   143    1
    19   144   143   ar
    20   144   146   ar
    21   135   136   ar
    22    60    62   ar
    23    60    59   ar
    24   143   145   ar
    25   134   136   ar
    26    62    63   ar
    27    36    35    1
    28    36    37    2
    29    58    59    1
    30   146   148   ar
    31    59    61   ar
    32    40    38    1
    33   136   137    1
    34    63    61   ar
    35    35    38    1
    36    35    34    1
    37   156   155    2
    38   149   150    1
    39   153   150    1
    40   153   154    1
    41    42    43    1
    42    28    26   ar
    43    28    29   ar
    44   145   147   ar
    45   151   150    1
    46   151   152    2
    47    26    25   ar
    48    38    39    1
    49   148   147   ar
    50    80    81    1
    51    80    79    1
    52   155   154    1
    53   155   157   am
    54    39    41    1
    55    77    78    2
    56    77    76    1
    57    44    43    1
    58    44    45    2
    59    81    75    1
    60    29    31   ar
    61    29    27   ar
    62    43    46    1
    63    31    33   ar
    64    25    27   ar
    65    25    24    1
    66    79    76    1
    67   107   108    1
    68   107   104    1
    69    21    24    1
    70    21    22    1
    71    21    20    1
    72    75    76    1
    73    27    30   ar
    74    94    91    1
    75    22    23    2
    76    46    47    1
    77   108   109    1
    78   104   103    1
    79   104   105    1
    80    33    32   ar
    81   109   103    1
    82    48    47   ar
    83    48    50   ar
    84   103    97   am
    85    47    49   ar
    86    97    98    2
    87    97    96    1
    88    30    32   ar
    89    50    52   ar
    90    91    92    1
    91    91    90    1
    92   115   114    1
    93   115   116    1
    94    92    95   am
    95    92    93    2
    96   105   106    2
    97    49    51   ar
    98    95    96    1
    99   118   116   ar
   100    96    99    1
   101    67    66    2
   102   114   111    1
   103   116   117   ar
   104    52    51   ar
   105    52    53    1
   106    66    65    1
   107    73    72    1
   108   110   111    1
   109    10    11   ar
   110    10     8   ar
   111    11     9   ar
   112    74    72    1
   113    72    71    2
   114   111   112    1
   115    99   100    1
   116    65    64    1
   117    65    68    1
   118    71    70    1
   119    70    69    1
   120     8     6   ar
   121   102   100    1
   122     9     7   ar
   123   119   112   am
   124   119   120    1
   125   124   123    1
   126   100   101    1
   127   112   113    2
   128    69    68    1
   129   123   120    1
   130   123   125    1
   131    18    17    1
   132    18    19    1
   133    17    16    1
   134     6     7   ar
   135     6     5    1
   136   120   121    1
   137    82    83    1
   138    86    83    1
   139    86    87    1
   140     1     2    1
   141    88    87    1
   142    83    84    1
   143     5     2    1
   144    89    87    1
   145   121   122    2
   146    16    13    1
   147     2     3    1
   148    12    13    1
   149    12     3   am
   150    13    14    1
   151     3     4    2
   152    84    85    2
   153    14    15    2
