@<TRIPOS>MOLECULE
tmp/5im3A00.pdb
 142 135 0 0 0
SMALL
GASTEIGER

@<TRIPOS>ATOM
      1  N         44.8640   33.9650    7.7850 N.3     3  VAL3       -0.1245
      2  CA        45.2590   32.6370    8.2360 C.3     3  VAL3        0.1561
      3  C         45.9910   32.7500    9.5640 C.2     3  VAL3        0.2260
      4  O         46.8440   33.6270    9.7440 O.2     3  VAL3       -0.2867
      5  CB        46.1490   31.9270    7.1950 C.3     3  VAL3        0.0252
      6  CG1       46.3750   30.4730    7.5950 C.3     3  VAL3        0.0019
      7  CG2       45.5300   32.0210    5.8100 C.3     3  VAL3        0.0019
      8  N         48.7840   31.6480   11.5200 N.3     5  LYS5       -0.1231
      9  CA        50.0580   30.9790   11.3150 C.3     5  LYS5        0.1693
     10  C         50.2870   29.9280   12.4010 C.2     5  LYS5        0.2591
     11  O         49.5150   29.7960   13.3560 O.2     5  LYS5       -0.2718
     12  CB        51.1990   31.9960   11.3080 C.3     5  LYS5        0.0285
     13  CG        51.2820   32.8280   10.0340 C.3     5  LYS5        0.0035
     14  CD        52.2000   32.1890    9.0000 C.3     5  LYS5        0.0206
     15  CE        53.6680   32.3700    9.3670 C.3     5  LYS5        0.1093
     16  NZ        54.5790   31.7020    8.3930 N.3     5  LYS5       -0.1314
     17  N         51.3740   29.1680   12.2400 N.am    6  ARG6       -0.1980
     18  CA        51.6950   28.1130   13.1960 C.3     6  ARG6        0.1597
     19  C         51.7460   28.6540   14.6160 C.2     6  ARG6        0.2287
     20  O         51.3640   27.9640   15.5680 O.2     6  ARG6       -0.2864
     21  CB        53.0320   27.4640   12.8330 C.3     6  ARG6        0.0334
     22  CG        53.0310   26.7770   11.4830 C.3     6  ARG6        0.0492
     23  CD        53.4680   25.3230   11.5750 C.3     6  ARG6        0.2205
     24  NE        52.8010   24.4870   10.5810 N.pl3   6  ARG6       -0.0865
     25  CZ        53.1580   24.4070    9.3030 C.cat   6  ARG6        0.5346
     26  NH1       54.1790   25.1210    8.8460 N.pl3   6  ARG6        0.1354
     27  NH2       52.4880   23.6120    8.4760 N.pl3   6  ARG6        0.1354
     28  N         48.1090   36.6980    8.8580 N.3    11  VAL11      -0.1231
     29  CA        48.5930   37.2330    7.5860 C.3    11  VAL11       0.1678
     30  C         47.4840   37.1350    6.5500 C.2    11  VAL11       0.2434
     31  O         46.5450   36.3390    6.6930 O.2    11  VAL11      -0.2733
     32  CB        49.8450   36.4840    7.0870 C.3    11  VAL11       0.0265
     33  CG1       51.0370   36.7800    7.9870 C.3    11  VAL11       0.0020
     34  CG2       49.5790   34.9850    7.0240 C.3    11  VAL11       0.0020
     35  N         47.5660   37.9400    5.4880 N.am   12  PRO12      -0.2718
     36  CA        46.5660   37.8400    4.4190 C.3    12  PRO12       0.1535
     37  C         46.5940   36.4750    3.7470 C.2    12  PRO12       0.2599
     38  O         47.6100   35.7770    3.7420 O.2    12  PRO12      -0.2715
     39  CB        46.9730   38.9520    3.4430 C.3    12  PRO12       0.0310
     40  CG        47.7750   39.9040    4.2550 C.3    12  PRO12       0.0237
     41  CD        48.4910   39.0670    5.2690 C.3    12  PRO12       0.0939
     42  N         45.4530   36.1000    3.1730 N.am   13  TYR13      -0.1960
     43  CA        45.3330   34.8450    2.4430 C.3    13  TYR13       0.1771
     44  C         45.8760   35.0310    1.0290 C.2    13  TYR13       0.2620
     45  O         45.3370   35.8220    0.2470 O.2    13  TYR13      -0.2715
     46  CB        43.8740   34.3890    2.4160 C.3    13  TYR13       0.0574
     47  CG        43.6520   33.0260    1.7970 C.ar   13  TYR13      -0.0198
     48  CD1       43.5750   31.8840    2.5870 C.ar   13  TYR13      -0.0009
     49  CD2       43.5100   32.8810    0.4230 C.ar   13  TYR13      -0.0009
     50  CE1       43.3700   30.6360    2.0230 C.ar   13  TYR13       0.0417
     51  CE2       43.3050   31.6390   -0.1480 C.ar   13  TYR13       0.0417
     52  CZ        43.2360   30.5210    0.6550 C.ar   13  TYR13       0.1957
     53  OH        43.0310   29.2830    0.0900 O.3    13  TYR13      -0.2866
     54  N         46.9240   34.2780    0.6970 N.am   14  THR14      -0.1951
     55  CA        47.6600   34.4240   -0.5530 C.3    14  THR14       0.1897
     56  C         47.6300   33.0820   -1.2640 C.2    14  THR14       0.2313
     57  O         48.1570   32.0900   -0.7480 O.2    14  THR14      -0.2863
     58  CB        49.1110   34.8600   -0.3170 C.3    14  THR14       0.1794
     59  OG1       49.1440   36.0090    0.5360 O.3    14  THR14      -0.2208
     60  CG2       49.7880   35.1980   -1.6420 C.3    14  THR14       0.0378
     61  N         51.1330   31.1330   -1.9630 N.3    17  LYS17      -0.1231
     62  CA        51.7310   30.2020   -1.0100 C.3    17  LYS17       0.1693
     63  C         51.2010   28.7880   -1.2150 C.2    17  LYS17       0.2591
     64  O         51.9440   27.8110   -1.0570 O.2    17  LYS17      -0.2718
     65  CB        51.4730   30.6780    0.4220 C.3    17  LYS17       0.0285
     66  CG        52.0700   32.0440    0.7400 C.3    17  LYS17       0.0035
     67  CD        53.5890   32.0380    0.6260 C.3    17  LYS17       0.0206
     68  CE        54.1830   33.3840    1.0090 C.3    17  LYS17       0.1093
     69  NZ        55.6720   33.3830    0.9380 N.3    17  LYS17      -0.1314
     70  N         49.9220   28.6560   -1.5700 N.am   18  ILE18      -0.1980
     71  CA        49.3780   27.3420   -1.9010 C.3    18  ILE18       0.1595
     72  C         49.9420   26.8580   -3.2300 C.2    18  ILE18       0.2287
     73  O         50.3600   25.7020   -3.3640 O.2    18  ILE18      -0.2864
     74  CB        47.8390   27.3860   -1.9320 C.3    18  ILE18       0.0276
     75  CG1       47.2930   27.6520   -0.5280 C.3    18  ILE18       0.0022
     76  CG2       47.2780   26.0760   -2.4930 C.3    18  ILE18       0.0022
     77  CD1       45.7850   27.7870   -0.4550 C.3    18  ILE18       0.0001
     78  N         52.7370   27.6960   -4.6930 N.3    20  VAL20      -0.1231
     79  CA        54.1430   27.3410   -4.5290 C.3    20  VAL20       0.1692
     80  C         54.2670   25.9880   -3.8410 C.2    20  VAL20       0.2591
     81  O         55.0550   25.1330   -4.2600 O.2    20  VAL20      -0.2718
     82  CB        54.8840   28.4490   -3.7530 C.3    20  VAL20       0.0266
     83  CG1       56.2680   27.9880   -3.3310 C.3    20  VAL20       0.0020
     84  CG2       54.9910   29.7090   -4.6000 C.3    20  VAL20       0.0020
     85  N         53.4810   25.7650   -2.7850 N.am   21  ALA21      -0.1980
     86  CA        53.5910   24.5230   -2.0260 C.3    21  ALA21       0.1597
     87  C         53.3350   23.3100   -2.9140 C.2    21  ALA21       0.2287
     88  O         54.1370   22.3700   -2.9480 O.2    21  ALA21      -0.2864
     89  CB        52.6180   24.5430   -0.8470 C.3    21  ALA21       0.0319
     90  N         56.1040   22.7150   -5.4530 N.3    24  LYS24      -0.1245
     91  CA        57.2600   22.0550   -4.8540 C.3    24  LYS24       0.1561
     92  C         57.0940   20.5410   -4.8710 C.2    24  LYS24       0.2260
     93  O         58.0420   19.8070   -5.1730 O.2    24  LYS24      -0.2867
     94  CB        57.4690   22.5370   -3.4180 C.3    24  LYS24       0.0271
     95  CG        57.8630   24.0010   -3.2580 C.3    24  LYS24       0.0035
     96  CD        58.2800   24.2760   -1.8120 C.3    24  LYS24       0.0206
     97  CE        58.3360   25.7630   -1.4780 C.3    24  LYS24       0.1093
     98  NZ        57.6730   26.0790   -0.1700 N.3    24  LYS24      -0.1314
     99  N         46.5330   27.1100    9.7110 N.3    67  ILE67      -0.1245
    100  CA        47.4780   26.7290    8.6670 C.3    67  ILE67       0.1561
    101  C         47.3560   25.2420    8.3610 C.2    67  ILE67       0.2260
    102  O         47.4450   24.8220    7.2000 O.2    67  ILE67      -0.2867
    103  CB        48.9090   27.1130    9.0880 C.3    67  ILE67       0.0252
    104  CG1       49.8590   27.0690    7.8900 C.3    67  ILE67       0.0019
    105  CG2       49.4010   26.2160   10.2120 C.3    67  ILE67       0.0019
    106  CD1       49.7890   28.3150    7.0350 C.3    67  ILE67       0.0001
    107  N         44.5310   24.3240    6.0350 N.3    70  ILE70      -0.1231
    108  CA        44.8160   24.4860    4.6140 C.3    70  ILE70       0.1692
    109  C         45.6260   23.3070    4.0930 C.2    70  ILE70       0.2591
    110  O         45.3520   22.7820    3.0070 O.2    70  ILE70      -0.2718
    111  CB        45.5460   25.8210    4.3780 C.3    70  ILE70       0.0266
    112  CG1       44.7350   26.9700    4.9900 C.3    70  ILE70       0.0019
    113  CG2       45.7950   26.0350    2.8800 C.3    70  ILE70       0.0020
    114  CD1       45.4270   28.2810    4.9560 C.3    70  ILE70       0.0001
    115  N         46.6440   22.8860    4.8490 N.am   71  GLN71      -0.1979
    116  CA        47.4390   21.7280    4.4540 C.3    71  GLN71       0.1601
    117  C         46.5520   20.5110    4.2200 C.2    71  GLN71       0.2287
    118  O         46.7650   19.7500    3.2690 O.2    71  GLN71      -0.2864
    119  CB        48.4900   21.4260    5.5250 C.3    71  GLN71       0.0394
    120  CG        49.6150   22.4490    5.6240 C.3    71  GLN71       0.0908
    121  CD        50.6820   22.2490    4.5640 C.2    71  GLN71       0.2608
    122  OE1       50.4110   22.3420    3.3650 O.2    71  GLN71      -0.2717
    123  NE2       51.9050   21.9670    5.0020 N.am   71  GLN71      -0.0878
    124  N         44.7300   20.9230    0.9500 N.3    74  VAL74      -0.1245
    125  CA        45.6490   20.7380   -0.1690 C.3    74  VAL74       0.1561
    126  C         45.8350   19.2530   -0.4530 C.2    74  VAL74       0.2260
    127  O         45.7620   18.8120   -1.6070 O.2    74  VAL74      -0.2867
    128  CB        46.9930   21.4340    0.1160 C.3    74  VAL74       0.0252
    129  CG1       48.0690   20.9690   -0.8670 C.3    74  VAL74       0.0019
    130  CG2       46.8290   22.9480    0.0420 C.3    74  VAL74       0.0019
    131  N         53.7720   14.6050   -0.6920 N.3    90  TYR90      -0.1241
    132  CA        53.3410   15.7840    0.0500 C.3    90  TYR90       0.1605
    133  C         53.0960   15.4320    1.5120 C.2    90  TYR90       0.2264
    134  O         53.5640   16.1300    2.4190 O.2    90  TYR90      -0.2867
    135  CB        52.0790   16.3710   -0.5860 C.3    90  TYR90       0.0534
    136  CG        51.7610   17.7780   -0.1350 C.ar   90  TYR90      -0.0201
    137  CD1       51.1320   18.0150    1.0780 C.ar   90  TYR90      -0.0009
    138  CD2       52.0870   18.8720   -0.9270 C.ar   90  TYR90      -0.0009
    139  CE1       50.8430   19.2980    1.4950 C.ar   90  TYR90       0.0417
    140  CE2       51.7980   20.1610   -0.5210 C.ar   90  TYR90       0.0417
    141  CZ        51.1760   20.3680    0.6910 C.ar   90  TYR90       0.1957
    142  OH        50.8860   21.6490    1.1040 O.3    90  TYR90      -0.2866
@<TRIPOS>BOND
     1    90    91    1
     2    93    92    2
     3    92    91    1
     4    91    94    1
     5    78    79    1
     6    84    82    1
     7    79    80    1
     8    79    82    1
     9    81    80    2
    10    80    85   am
    11    82    83    1
    12    94    95    1
    13    73    72    2
    14    95    96    1
    15    72    71    1
    16    88    87    2
    17    87    86    1
    18    85    86    1
    19    76    74    1
    20    86    89    1
    21    61    62    1
    22    74    71    1
    23    74    75    1
    24    71    70    1
    25    96    97    1
    26    60    58    1
    27   127   126    2
    28    70    63   am
    29    97    98    1
    30    56    57    2
    31    56    55    1
    32    63    64    2
    33    63    62    1
    34    62    65    1
    35   138   140   ar
    36   138   136   ar
    37   129   128    1
    38   131   132    1
    39   135   136    1
    40   135   132    1
    41    55    58    1
    42    55    54    1
    43    75    77    1
    44   140   141   ar
    45   126   125    1
    46    58    59    1
    47   125   128    1
    48   125   124    1
    49    51    49   ar
    50    51    52   ar
    51   136   137   ar
    52   130   128    1
    53   132   133    1
    54    53    52    1
    55    45    44    2
    56    65    66    1
    57    49    47   ar
    58    67    66    1
    59    67    68    1
    60    52    50   ar
    61   141   142    1
    62   141   139   ar
    63    54    44   am
    64    69    68    1
    65    44    43    1
    66   137   139   ar
    67   133   134    2
    68    47    46    1
    69    47    48   ar
    70    50    48   ar
    71    46    43    1
    72    43    42    1
    73   113   111    1
    74   110   109    2
    75    42    37   am
    76   118   117    2
    77   122   121    2
    78    39    40    1
    79    39    36    1
    80    38    37    2
    81    37    36    1
    82   109   108    1
    83   109   115   am
    84   117   116    1
    85    40    41    1
    86   111   108    1
    87   111   112    1
    88    36    35    1
    89   116   115    1
    90   116   119    1
    91   121   123   am
    92   121   120    1
    93   108   107    1
    94   114   112    1
    95    41    35    1
    96    35    30   am
    97   119   120    1
    98     7     5    1
    99    30    31    2
   100    30    29    1
   101    34    32    1
   102   106   104    1
   103    32    29    1
   104    32    33    1
   105     5     6    1
   106     5     2    1
   107   102   101    2
   108    29    28    1
   109     1     2    1
   110   104   103    1
   111     2     3    1
   112   101   100    1
   113    16    15    1
   114    27    25    1
   115   100   103    1
   116   100    99    1
   117    26    25    1
   118    14    15    1
   119    14    13    1
   120   103   105    1
   121    25    24    2
   122     3     4    2
   123    13    12    1
   124    24    23    1
   125    12     9    1
   126     9     8    1
   127     9    10    1
   128    22    23    1
   129    22    21    1
   130    17    10   am
   131    17    18    1
   132    10    11    2
   133    21    18    1
   134    18    19    1
   135    19    20    2
