@<TRIPOS>MOLECULE
tmp/5im3A02.pdb
 118 113 0 0 0
SMALL
GASTEIGER

@<TRIPOS>ATOM
      1  N        -14.4380  -27.4260   40.1490 N.3   349  ASP349     -0.1225
      2  CA       -15.5900  -27.0120   39.3540 C.3   349  ASP349      0.1805
      3  C        -16.7670  -26.5920   40.2310 C.2   349  ASP349      0.2598
      4  O        -17.8940  -27.0530   40.0260 O.2   349  ASP349     -0.2718
      5  CB       -16.0150  -28.1470   38.4140 C.3   349  ASP349      0.1424
      6  CG       -17.1220  -27.7350   37.4480 C.2   349  ASP349      0.3668
      7  OD1      -17.1090  -26.5780   36.9820 O.co2 349  ASP349     -0.2456
      8  OD2      -18.0070  -28.5710   37.1600 O.co2 349  ASP349     -0.2456
      9  N        -16.5260  -25.7230   41.2110 N.am  350  ASP350     -0.1960
     10  CA       -17.6090  -25.0880   41.9480 C.3   350  ASP350      0.1840
     11  C        -17.2280  -23.6400   42.2160 C.2   350  ASP350      0.2622
     12  O        -16.0440  -23.3000   42.3070 O.2   350  ASP350     -0.2715
     13  CB       -17.9410  -25.8400   43.2630 C.3   350  ASP350      0.1450
     14  CG       -16.8140  -25.8170   44.2590 C.2   350  ASP350      0.3671
     15  OD1      -15.9310  -26.6930   44.1840 O.co2 350  ASP350     -0.2456
     16  OD2      -16.8340  -24.9310   45.1360 O.co2 350  ASP350     -0.2456
     17  N        -18.2470  -22.7860   42.3220 N.am  351  LEU351     -0.1963
     18  CA       -18.0090  -21.3470   42.3910 C.3   351  LEU351      0.1728
     19  C        -17.2360  -20.9600   43.6450 C.2   351  LEU351      0.2616
     20  O        -16.3730  -20.0750   43.6000 O.2   351  LEU351     -0.2715
     21  CB       -19.3360  -20.5860   42.3380 C.3   351  LEU351      0.0311
     22  CG       -19.2080  -19.0870   42.0310 C.3   351  LEU351      0.0022
     23  CD1      -18.6500  -18.8590   40.6390 C.3   351  LEU351      0.0001
     24  CD2      -20.5570  -18.3860   42.2070 C.3   351  LEU351      0.0001
     25  N        -17.5440  -21.5920   44.7770 N.am  352  SER352     -0.1950
     26  CA       -16.8160  -21.2980   46.0070 C.3   352  SER352      0.1924
     27  C        -15.3480  -21.6900   45.8800 C.2   352  SER352      0.2314
     28  O        -14.4560  -20.9230   46.2590 O.2   352  SER352     -0.2863
     29  CB       -17.4720  -22.0200   47.1810 C.3   352  SER352      0.2116
     30  OG       -16.8410  -21.6860   48.4040 O.3   352  SER352     -0.2180
     31  N        -13.7110  -22.0850   43.0410 N.3   354  ILE354     -0.1245
     32  CA       -13.1100  -21.1920   42.0550 C.3   354  ILE354      0.1561
     33  C        -12.5920  -19.9370   42.7420 C.2   354  ILE354      0.2260
     34  O        -11.4400  -19.5290   42.5460 O.2   354  ILE354     -0.2867
     35  CB       -14.1220  -20.8590   40.9450 C.3   354  ILE354      0.0252
     36  CG1      -14.2540  -22.0490   39.9890 C.3   354  ILE354      0.0019
     37  CG2      -13.7080  -19.6010   40.1770 C.3   354  ILE354      0.0019
     38  CD1      -15.4970  -22.0140   39.1330 C.3   354  ILE354      0.0001
     39  N        -13.0070  -26.9400   35.3190 N.3   378  VAL378     -0.1231
     40  CA       -14.1170  -25.9910   35.3280 C.3   378  VAL378      0.1692
     41  C        -14.9190  -26.1370   34.0380 C.2   378  VAL378      0.2591
     42  O        -14.3580  -26.1040   32.9380 O.2   378  VAL378     -0.2718
     43  CB       -13.5930  -24.5570   35.5110 C.3   378  VAL378      0.0266
     44  CG1      -14.7220  -23.5410   35.4240 C.3   378  VAL378      0.0020
     45  CG2      -12.8710  -24.4330   36.8470 C.3   378  VAL378      0.0020
     46  N        -16.2390  -26.2730   34.1740 N.am  379  ARG379     -0.1980
     47  CA       -17.0960  -26.6270   33.0470 C.3   379  ARG379      0.1597
     48  C        -17.1420  -25.5130   32.0050 C.2   379  ARG379      0.2287
     49  O        -17.0020  -24.3270   32.3130 O.2   379  ARG379     -0.2864
     50  CB       -18.5060  -26.9560   33.5350 C.3   379  ARG379      0.0334
     51  CG       -19.2300  -25.8150   34.2260 C.3   379  ARG379      0.0492
     52  CD       -20.5280  -26.3030   34.8560 C.3   379  ARG379      0.2205
     53  NE       -20.2790  -27.2870   35.9060 N.pl3 379  ARG379     -0.0865
     54  CZ       -21.2050  -27.7650   36.7300 C.cat 379  ARG379      0.5346
     55  NH1      -22.4650  -27.3580   36.6340 N.pl3 379  ARG379      0.1354
     56  NH2      -20.8690  -28.6500   37.6560 N.pl3 379  ARG379      0.1354
     57  N        -24.6850  -27.0770   31.7630 N.3   384  TYR384     -0.1227
     58  CA       -25.7830  -26.7730   32.6690 C.3   384  TYR384      0.1736
     59  C        -25.2570  -26.3600   34.0400 C.2   384  TYR384      0.2595
     60  O        -24.1830  -26.7850   34.4800 O.2   384  TYR384     -0.2718
     61  CB       -26.7080  -27.9810   32.8090 C.3   384  TYR384      0.0548
     62  CG       -27.9320  -27.7270   33.6610 C.ar  384  TYR384     -0.0200
     63  CD1      -29.0380  -27.0630   33.1450 C.ar  384  TYR384     -0.0009
     64  CD2      -27.9880  -28.1600   34.9790 C.ar  384  TYR384     -0.0009
     65  CE1      -30.1630  -26.8330   33.9200 C.ar  384  TYR384      0.0417
     66  CE2      -29.1110  -27.9370   35.7610 C.ar  384  TYR384      0.0417
     67  CZ       -30.1920  -27.2710   35.2260 C.ar  384  TYR384      0.1957
     68  OH       -31.3070  -27.0430   35.9980 O.3   384  TYR384     -0.2866
     69  N        -26.0290  -25.5080   34.7110 N.am  385  ILE385     -0.1966
     70  CA       -25.7440  -25.0730   36.0750 C.3   385  ILE385      0.1727
     71  C        -27.0330  -25.2020   36.8720 C.2   385  ILE385      0.2616
     72  O        -27.9700  -24.4220   36.6660 O.2   385  ILE385     -0.2715
     73  CB       -25.2180  -23.6320   36.1320 C.3   385  ILE385      0.0290
     74  CG1      -23.8910  -23.5200   35.3830 C.3   385  ILE385      0.0022
     75  CG2      -25.0520  -23.1860   37.5870 C.3   385  ILE385      0.0023
     76  CD1      -23.3750  -22.1020   35.2900 C.3   385  ILE385      0.0001
     77  N        -27.0820  -26.1740   37.7810 N.am  386  LYS386     -0.1977
     78  CA       -28.2280  -26.3100   38.6680 C.3   386  LYS386      0.1596
     79  C        -28.2880  -25.1220   39.6250 C.2   386  LYS386      0.2287
     80  O        -27.2900  -24.4420   39.8780 O.2   386  LYS386     -0.2864
     81  CB       -28.1530  -27.6210   39.4540 C.3   386  LYS386      0.0298
     82  CG       -29.5010  -28.1350   39.9600 C.3   386  LYS386      0.0038
     83  CD       -29.3360  -29.2960   40.9380 C.3   386  LYS386      0.0206
     84  CE       -30.6530  -30.0300   41.1780 C.3   386  LYS386      0.1093
     85  NZ       -31.0820  -30.8140   39.9850 N.3   386  LYS386     -0.1314
     86  N        -28.9540  -22.1690   39.2540 N.3   388  THR388     -0.1218
     87  CA       -29.1260  -21.0510   38.3350 C.3   388  THR388      0.1862
     88  C        -30.1540  -21.3630   37.2530 C.2   388  THR388      0.2287
     89  O        -30.8300  -20.4510   36.7640 O.2   388  THR388     -0.2866
     90  CB       -27.7810  -20.6920   37.6950 C.3   388  THR388      0.1770
     91  OG1      -26.8660  -20.2670   38.7140 O.3   388  THR388     -0.2211
     92  CG2      -27.9370  -19.5750   36.6640 C.3   388  THR388      0.0375
     93  N        -23.4720  -22.1310   31.6650 N.3   392  SER392     -0.1202
     94  CA       -22.1770  -21.5270   31.9360 C.3   392  SER392      0.2020
     95  C        -21.6340  -20.8270   30.6970 C.2   392  SER392      0.2618
     96  O        -21.9110  -21.2170   29.5600 O.2   392  SER392     -0.2717
     97  CB       -21.1780  -22.5910   32.3910 C.3   392  SER392      0.2103
     98  OG       -19.9030  -22.0220   32.6380 O.3   392  SER392     -0.2182
     99  N        -20.8550  -19.7750   30.9320 N.am  393  GLN393     -0.1979
    100  CA       -20.0960  -19.1110   29.8840 C.3   393  GLN393      0.1601
    101  C        -18.6640  -19.6130   29.7970 C.2   393  GLN393      0.2287
    102  O        -17.8780  -19.0770   29.0090 O.2   393  GLN393     -0.2864
    103  CB       -20.1060  -17.5950   30.1090 C.3   393  GLN393      0.0394
    104  CG       -21.5000  -16.9930   30.0710 C.3   393  GLN393      0.0908
    105  CD       -22.2650  -17.3930   28.8240 C.2   393  GLN393      0.2608
    106  OE1      -21.7820  -17.2180   27.7040 O.2   393  GLN393     -0.2717
    107  NE2      -23.4570  -17.9540   29.0130 N.am  393  GLN393     -0.0878
    108  N        -13.8240  -16.2920   34.2430 N.3   398  PHE398     -0.1241
    109  CA       -13.0670  -16.4680   35.4730 C.3   398  PHE398      0.1605
    110  C        -11.5810  -16.1750   35.2680 C.2   398  PHE398      0.2264
    111  O        -10.9310  -15.5850   36.1330 O.2   398  PHE398     -0.2867
    112  CB       -13.2890  -17.8760   36.0090 C.3   398  PHE398      0.0534
    113  CG       -14.7100  -18.1380   36.4180 C.ar  398  PHE398     -0.0203
    114  CD1      -15.3180  -17.3420   37.3620 C.ar  398  PHE398     -0.0042
    115  CD2      -15.4390  -19.1630   35.8510 C.ar  398  PHE398     -0.0042
    116  CE1      -16.6210  -17.5620   37.7420 C.ar  398  PHE398     -0.0003
    117  CE2      -16.7480  -19.3900   36.2280 C.ar  398  PHE398     -0.0003
    118  CZ       -17.3380  -18.5900   37.1750 C.ar  398  PHE398     -0.0000
@<TRIPOS>BOND
     1   106   105    2
     2   105   107   am
     3   105   104    1
     4   102   101    2
     5    96    95    2
     6   101   100    1
     7   100   103    1
     8   100    99    1
     9   104   103    1
    10    95    99   am
    11    95    94    1
    12    93    94    1
    13    57    58    1
    14    94    97    1
    15    48    49    2
    16    48    47    1
    17    97    98    1
    18    58    61    1
    19    58    59    1
    20    61    62    1
    21    42    41    2
    22    47    50    1
    23    47    46    1
    24    63    62   ar
    25    63    65   ar
    26    50    51    1
    27    62    64   ar
    28    65    67   ar
    29    41    46   am
    30    41    40    1
    31    59    60    2
    32    59    69   am
    33    51    52    1
    34   108   109    1
    35    69    70    1
    36    52    53    1
    37    64    66   ar
    38    67    66   ar
    39    67    68    1
    40   110   109    1
    41   110   111    2
    42    76    74    1
    43    39    40    1
    44    40    43    1
    45    74    73    1
    46    44    43    1
    47   109   112    1
    48    43    45    1
    49   115   117   ar
    50   115   113   ar
    51    53    54    2
    52   112   113    1
    53    70    73    1
    54    70    71    1
    55    73    75    1
    56   117   118   ar
    57   113   114   ar
    58    55    54    1
    59    92    90    1
    60    72    71    2
    61    54    56    1
    62    89    88    2
    63    71    77   am
    64     7     6   ar
    65     8     6   ar
    66   118   116   ar
    67    88    87    1
    68   114   116   ar
    69     6     5    1
    70    90    87    1
    71    90    91    1
    72    77    78    1
    73    87    86    1
    74     5     2    1
    75    78    81    1
    76    78    79    1
    77    38    36    1
    78     2     1    1
    79     2     3    1
    80    81    82    1
    81    79    80    2
    82    82    83    1
    83    85    84    1
    84    36    35    1
    85     4     3    2
    86    37    35    1
    87     3     9   am
    88    23    22    1
    89    83    84    1
    90    35    32    1
    91     9    10    1
    92    10    11    1
    93    10    13    1
    94    22    24    1
    95    22    21    1
    96    32    33    1
    97    32    31    1
    98    11    12    2
    99    11    17   am
   100    17    18    1
   101    21    18    1
   102    18    19    1
   103    34    33    2
   104    13    14    1
   105    20    19    2
   106    19    25   am
   107    15    14   ar
   108    14    16   ar
   109    25    26    1
   110    27    26    1
   111    27    28    2
   112    26    29    1
   113    29    30    1
