@<TRIPOS>MOLECULE
tmp/5im3A01.pdb
 109 102 0 0 0
SMALL
GASTEIGER

@<TRIPOS>ATOM
      1  N         51.3740   29.1680   12.2400 N.3     6  ARG6       -0.1245
      2  CA        51.6950   28.1130   13.1960 C.3     6  ARG6        0.1563
      3  C         51.7460   28.6540   14.6160 C.2     6  ARG6        0.2260
      4  O         51.3640   27.9640   15.5680 O.2     6  ARG6       -0.2867
      5  CB        53.0320   27.4640   12.8330 C.3     6  ARG6        0.0307
      6  CG        53.0310   26.7770   11.4830 C.3     6  ARG6        0.0489
      7  CD        53.4680   25.3230   11.5750 C.3     6  ARG6        0.2205
      8  NE        52.8010   24.4870   10.5810 N.pl3   6  ARG6       -0.0865
      9  CZ        53.1580   24.4070    9.3030 C.cat   6  ARG6        0.5346
     10  NH1       54.1790   25.1210    8.8460 N.pl3   6  ARG6        0.1354
     11  NH2       52.4880   23.6120    8.4760 N.pl3   6  ARG6        0.1354
     12  N         53.4810   25.7650   -2.7850 N.3    21  ALA21      -0.1245
     13  CA        53.5910   24.5230   -2.0260 C.3    21  ALA21       0.1562
     14  C         53.3350   23.3100   -2.9140 C.2    21  ALA21       0.2260
     15  O         54.1370   22.3700   -2.9480 O.2    21  ALA21      -0.2867
     16  CB        52.6180   24.5430   -0.8470 C.3    21  ALA21       0.0290
     17  N         56.1040   22.7150   -5.4530 N.3    24  LYS24      -0.1231
     18  CA        57.2600   22.0550   -4.8540 C.3    24  LYS24       0.1693
     19  C         57.0940   20.5410   -4.8710 C.2    24  LYS24       0.2591
     20  O         58.0420   19.8070   -5.1730 O.2    24  LYS24      -0.2718
     21  CB        57.4690   22.5370   -3.4180 C.3    24  LYS24       0.0285
     22  CG        57.8630   24.0010   -3.2580 C.3    24  LYS24       0.0035
     23  CD        58.2800   24.2760   -1.8120 C.3    24  LYS24       0.0206
     24  CE        58.3360   25.7630   -1.4780 C.3    24  LYS24       0.1093
     25  NZ        57.6730   26.0790   -0.1700 N.3    24  LYS24      -0.1314
     26  N         55.8920   20.0550   -4.5500 N.am   25  ALA25      -0.1980
     27  CA        55.6720   18.6150   -4.4640 C.3    25  ALA25       0.1597
     28  C         55.7100   17.9550   -5.8360 C.2    25  ALA25       0.2287
     29  O         56.1530   16.8080   -5.9570 O.2    25  ALA25      -0.2864
     30  CB        54.3380   18.3280   -3.7740 C.3    25  ALA25       0.0319
     31  N         59.3120   17.6630   -6.8490 N.3    28  ALA28      -0.1245
     32  CA        60.0750   16.7240   -6.0370 C.3    28  ALA28       0.1562
     33  C         60.0080   15.3160   -6.6130 C.2    28  ALA28       0.2260
     34  O         61.0240   14.6170   -6.6720 O.2    28  ALA28      -0.2867
     35  CB        59.5600   16.7370   -4.5980 C.3    28  ALA28       0.0290
     36  N         46.6440   22.8860    4.8490 N.3    71  GLN71      -0.1245
     37  CA        47.4390   21.7280    4.4540 C.3    71  GLN71       0.1566
     38  C         46.5520   20.5110    4.2200 C.2    71  GLN71       0.2260
     39  O         46.7650   19.7500    3.2690 O.2    71  GLN71      -0.2867
     40  CB        48.4900   21.4260    5.5250 C.3    71  GLN71       0.0367
     41  CG        49.6150   22.4490    5.6240 C.3    71  GLN71       0.0905
     42  CD        50.6820   22.2490    4.5640 C.2    71  GLN71       0.2608
     43  OE1       50.4110   22.3420    3.3650 O.2    71  GLN71      -0.2717
     44  NE2       51.9050   21.9670    5.0020 N.am   71  GLN71      -0.0878
     45  N         53.9770   11.9690   -1.3780 N.3    89  ASP89      -0.1225
     46  CA        55.2160   12.6690   -1.0620 C.3    89  ASP89       0.1805
     47  C         54.9300   14.0100   -0.4020 C.2    89  ASP89       0.2597
     48  O         55.7490   14.5010    0.3840 O.2    89  ASP89      -0.2718
     49  CB        56.0610   12.8390   -2.3230 C.3    89  ASP89       0.1424
     50  CG        56.6970   11.5350   -2.7670 C.2    89  ASP89       0.3668
     51  OD1       57.3780   10.9010   -1.9350 O.co2  89  ASP89      -0.2456
     52  OD2       56.4990   11.1300   -3.9330 O.co2  89  ASP89      -0.2456
     53  N         53.7720   14.6050   -0.6920 N.am   90  TYR90      -0.1976
     54  CA        53.3410   15.7840    0.0500 C.3    90  TYR90       0.1639
     55  C         53.0960   15.4320    1.5120 C.2    90  TYR90       0.2290
     56  O         53.5640   16.1300    2.4190 O.2    90  TYR90      -0.2864
     57  CB        52.0790   16.3710   -0.5860 C.3    90  TYR90       0.0560
     58  CG        51.7610   17.7780   -0.1350 C.ar   90  TYR90      -0.0198
     59  CD1       51.1320   18.0150    1.0780 C.ar   90  TYR90      -0.0009
     60  CD2       52.0870   18.8720   -0.9270 C.ar   90  TYR90      -0.0009
     61  CE1       50.8430   19.2980    1.4950 C.ar   90  TYR90       0.0417
     62  CE2       51.7980   20.1610   -0.5210 C.ar   90  TYR90       0.0417
     63  CZ        51.1760   20.3680    0.6910 C.ar   90  TYR90       0.1957
     64  OH        50.8860   21.6490    1.1040 O.3    90  TYR90      -0.2866
     65  N         56.6200   14.5050    3.2970 N.3    93  TYR93      -0.1227
     66  CA        57.4050   15.7000    3.5860 C.3    93  TYR93       0.1736
     67  C         56.7530   16.5270    4.6860 C.2    93  TYR93       0.2595
     68  O         57.4240   16.9830    5.6180 O.2    93  TYR93      -0.2718
     69  CB        57.5730   16.5290    2.3120 C.3    93  TYR93       0.0548
     70  CG        58.3760   17.7990    2.4950 C.ar   93  TYR93      -0.0200
     71  CD1       57.7770   18.9620    2.9670 C.ar   93  TYR93      -0.0009
     72  CD2       59.7290   17.8390    2.1880 C.ar   93  TYR93      -0.0009
     73  CE1       58.5030   20.1220    3.1330 C.ar   93  TYR93       0.0417
     74  CE2       60.4640   18.9980    2.3490 C.ar   93  TYR93       0.0417
     75  CZ        59.8440   20.1360    2.8210 C.ar   93  TYR93       0.1957
     76  OH        60.5640   21.2960    2.9880 O.3    93  TYR93      -0.2866
     77  N         55.4390   16.7320    4.5930 N.am   94  ARG94      -0.1980
     78  CA        54.7450   17.5150    5.6090 C.3    94  ARG94       0.1597
     79  C         54.8720   16.8690    6.9820 C.2    94  ARG94       0.2287
     80  O         54.9730   17.5670    7.9980 O.2    94  ARG94      -0.2864
     81  CB        53.2730   17.6770    5.2340 C.3    94  ARG94       0.0334
     82  CG        52.4350   18.3610    6.3070 C.3    94  ARG94       0.0492
     83  CD        50.9640   18.2500    5.9980 C.3    94  ARG94       0.2205
     84  NE        50.1420   18.6780    7.1220 N.pl3  94  ARG94      -0.0865
     85  CZ        48.8210   18.5460    7.1690 C.cat  94  ARG94       0.5346
     86  NH1       48.1690   17.9960    6.1500 N.pl3  94  ARG94       0.1354
     87  NH2       48.1510   18.9660    8.2310 N.pl3  94  ARG94       0.1354
     88  N         58.4060   17.4300    8.5190 N.3    97  ARG97      -0.1245
     89  CA        58.5620   18.7450    9.1230 C.3    97  ARG97       0.1563
     90  C         57.6820   18.9390   10.3450 C.2    97  ARG97       0.2260
     91  O         57.9800   19.8080   11.1700 O.2    97  ARG97      -0.2867
     92  CB        58.2730   19.8370    8.0870 C.3    97  ARG97       0.0307
     93  CG        59.2960   19.8940    6.9570 C.3    97  ARG97       0.0489
     94  CD        60.7120   20.1330    7.4870 C.3    97  ARG97       0.2205
     95  NE        61.7350   19.9730    6.4590 N.pl3  97  ARG97      -0.0865
     96  CZ        62.3510   18.8270    6.1740 C.cat  97  ARG97       0.5346
     97  NH1       62.0520   17.7110    6.8300 N.pl3  97  ARG97       0.1354
     98  NH2       63.2760   18.7990    5.2230 N.pl3  97  ARG97       0.1354
     99  N         59.2110   19.8940   14.1970 N.3   101  ARG101     -0.1245
    100  CA        58.5690   20.8510   15.0930 C.3   101  ARG101      0.1563
    101  C         58.2150   20.2000   16.4230 C.2   101  ARG101      0.2260
    102  O         58.4480   20.7830   17.4890 O.2   101  ARG101     -0.2867
    103  CB        57.3170   21.4360   14.4380 C.3   101  ARG101      0.0307
    104  CG        57.6000   22.4020   13.3020 C.3   101  ARG101      0.0489
    105  CD        56.3250   23.0620   12.7950 C.3   101  ARG101      0.2205
    106  NE        55.9830   22.6260   11.4420 N.pl3 101  ARG101     -0.0865
    107  CZ        55.0510   21.7240   11.1420 C.cat 101  ARG101      0.5346
    108  NH1       54.3320   21.1420   12.0930 N.pl3 101  ARG101      0.1354
    109  NH2       54.8310   21.4080    9.8740 N.pl3 101  ARG101      0.1354
@<TRIPOS>BOND
     1    31    32    1
     2    34    33    2
     3    33    32    1
     4    32    35    1
     5    29    28    2
     6    28    27    1
     7    17    18    1
     8    20    19    2
     9    19    18    1
    10    19    26   am
    11    18    21    1
    12    26    27    1
    13    27    30    1
    14    52    50   ar
    15    21    22    1
    16    22    23    1
    17    15    14    2
    18    14    13    1
    19    12    13    1
    20    50    49    1
    21    50    51   ar
    22    49    46    1
    23    13    16    1
    24    23    24    1
    25    24    25    1
    26    45    46    1
    27    46    47    1
    28    60    62   ar
    29    60    58   ar
    30    53    47   am
    31    53    54    1
    32    57    58    1
    33    57    54    1
    34    62    63   ar
    35    47    48    2
    36    58    59   ar
    37    54    55    1
    38    63    64    1
    39    63    61   ar
    40    59    61   ar
    41    55    56    2
    42    72    74   ar
    43    72    70   ar
    44    69    70    1
    45    69    66    1
    46    74    75   ar
    47    70    71   ar
    48    75    76    1
    49    75    73   ar
    50    71    73   ar
    51    39    38    2
    52    65    66    1
    53    43    42    2
    54    66    67    1
    55    38    37    1
    56    37    36    1
    57    37    40    1
    58    42    44   am
    59    42    41    1
    60    77    67   am
    61    77    78    1
    62    67    68    2
    63    98    96    1
    64    81    78    1
    65    81    82    1
    66    40    41    1
    67    78    79    1
    68    83    82    1
    69    83    84    1
    70    86    85    1
    71    96    95    2
    72    96    97    1
    73    95    94    1
    74    93    94    1
    75    93    92    1
    76    79    80    2
    77    84    85    2
    78    85    87    1
    79    92    89    1
    80    11     9    1
    81    88    89    1
    82    10     9    1
    83    89    90    1
    84     9     8    2
    85   109   107    1
    86    90    91    2
    87     8     7    1
    88   107   106    2
    89   107   108    1
    90   106   105    1
    91     6     7    1
    92     6     5    1
    93     1     2    1
    94   105   104    1
    95     5     2    1
    96     2     3    1
    97   104   103    1
    98    99   100    1
    99   103   100    1
   100     3     4    2
   101   100   101    1
   102   101   102    2
