@<TRIPOS>MOLECULE
tmp/5imeB00.pdb
 200 186 0 0 0
SMALL
GASTEIGER

@<TRIPOS>ATOM
      1  N         11.3820  -22.0600  -15.4110 N.3    27  ILE27      -0.1231
      2  CA        12.2830  -20.9920  -15.8390 C.3    27  ILE27       0.1692
      3  C         12.4500  -19.8850  -14.8010 C.2    27  ILE27       0.2592
      4  O         13.2360  -18.9590  -15.0000 O.2    27  ILE27      -0.2718
      5  CB        11.8030  -20.3360  -17.1450 C.3    27  ILE27       0.0266
      6  CG1       10.4460  -19.6610  -16.9280 C.3    27  ILE27       0.0019
      7  CG2       11.7430  -21.3590  -18.2710 C.3    27  ILE27       0.0020
      8  CD1       10.1560  -18.5380  -17.9070 C.3    27  ILE27       0.0001
      9  N         11.7100  -19.9680  -13.7010 N.am   28  GLY28      -0.1957
     10  CA        11.7660  -18.9260  -12.6940 C.3    28  GLY28       0.1869
     11  C         11.1250  -19.3270  -11.3830 C.2    28  GLY28       0.2309
     12  O         10.5230  -20.3930  -11.2760 O.2    28  GLY28      -0.2863
     13  N          5.1550  -14.9590   -4.5030 N.3    32  SER32      -0.1217
     14  CA         4.7040  -15.2890   -5.8700 C.3    32  SER32       0.1889
     15  C          4.3760  -16.7680   -6.0940 C.2    32  SER32       0.2288
     16  O          3.4370  -17.2990   -5.5040 O.2    32  SER32      -0.2866
     17  CB         5.7340  -14.8180   -6.9060 C.3    32  SER32       0.2089
     18  OG         6.0190  -13.4390   -6.7480 O.3    32  SER32      -0.2183
     19  N          7.2450  -20.4590  -11.9450 N.3    35  VAL35      -0.1245
     20  CA         6.9930  -20.0650  -13.3310 C.3    35  VAL35       0.1561
     21  C          7.4490  -21.1120  -14.3460 C.2    35  VAL35       0.2260
     22  O          8.6140  -21.5120  -14.3670 O.2    35  VAL35      -0.2867
     23  CB         7.6820  -18.7300  -13.6690 C.3    35  VAL35       0.0252
     24  CG1        7.5310  -18.4170  -15.1490 C.3    35  VAL35       0.0019
     25  CG2        7.1010  -17.6120  -12.8310 C.3    35  VAL35       0.0019
     26  N          3.5930  -18.5590  -20.7330 N.3    48  ALA48      -0.1231
     27  CA         4.2670  -18.5630  -19.4430 C.3    48  ALA48       0.1694
     28  C          3.2340  -18.7740  -18.3400 C.2    48  ALA48       0.2592
     29  O          2.2540  -18.0360  -18.2460 O.2    48  ALA48      -0.2718
     30  CB         5.0300  -17.2690  -19.2320 C.3    48  ALA48       0.0304
     31  N          3.4520  -19.7890  -17.5130 N.am   49  ILE49      -0.1966
     32  CA         2.4680  -20.1730  -16.5070 C.3    49  ILE49       0.1727
     33  C          3.0350  -20.1120  -15.0990 C.2    49  ILE49       0.2616
     34  O          3.9490  -20.8640  -14.7590 O.2    49  ILE49      -0.2715
     35  CB         1.9340  -21.5940  -16.7560 C.3    49  ILE49       0.0290
     36  CG1        1.2680  -21.6810  -18.1290 C.3    49  ILE49       0.0022
     37  CG2        0.9590  -21.9990  -15.6550 C.3    49  ILE49       0.0023
     38  CD1        0.8740  -23.0870  -18.5270 C.3    49  ILE49       0.0001
     39  N          2.4930  -19.2150  -14.2810 N.am   50  LYS50      -0.1977
     40  CA         2.8840  -19.1590  -12.8820 C.3    50  LYS50       0.1596
     41  C          1.8800  -19.9280  -12.0290 C.2    50  LYS50       0.2287
     42  O          0.6680  -19.7340  -12.1410 O.2    50  LYS50      -0.2864
     43  CB         3.0020  -17.7130  -12.3930 C.3    50  LYS50       0.0298
     44  CG         3.5020  -17.6010  -10.9530 C.3    50  LYS50       0.0038
     45  CD         3.5460  -16.1600  -10.4740 C.3    50  LYS50       0.0206
     46  CE         4.7550  -15.4180  -11.0260 C.3    50  LYS50       0.1093
     47  NZ         6.0140  -15.7940  -10.3240 N.3    50  LYS50      -0.1314
     48  N          0.7330  -20.8600   -8.1440 N.3    52  MET52      -0.1245
     49  CA         0.8590  -20.3440   -6.7850 C.3    52  MET52       0.1570
     50  C         -0.1560  -20.9630   -5.8270 C.2    52  MET52       0.2261
     51  O         -1.1110  -21.6120   -6.2550 O.2    52  MET52      -0.2867
     52  CB         0.7100  -18.8240   -6.7910 C.3    52  MET52       0.0387
     53  CG        -0.6550  -18.3420   -7.2450 C.3    52  MET52       0.0595
     54  SD        -0.5540  -16.7970   -8.1670 S.3    52  MET52      -0.1393
     55  CE         0.1960  -17.3760   -9.6800 C.3    52  MET52       0.0692
     56  N         -4.6030  -10.7030   -4.9930 N.3    59  ILE59      -0.1245
     57  CA        -4.1080  -10.9450   -6.3410 C.3    59  ILE59       0.1561
     58  C         -5.2310  -11.4370   -7.2480 C.2    59  ILE59       0.2260
     59  O         -4.9950  -11.8070   -8.3950 O.2    59  ILE59      -0.2867
     60  CB        -2.9600  -11.9720   -6.3520 C.3    59  ILE59       0.0252
     61  CG1       -3.4700  -13.3560   -5.9460 C.3    59  ILE59       0.0019
     62  CG2       -1.8330  -11.5190   -5.4370 C.3    59  ILE59       0.0019
     63  CD1       -2.4030  -14.4270   -5.9680 C.3    59  ILE59       0.0001
     64  N         -6.5920   -7.8620   -9.2530 N.3    62  GLU62      -0.1231
     65  CA        -5.6530   -7.3920  -10.2650 C.3    62  GLU62       0.1699
     66  C         -5.7080   -8.2510  -11.5220 C.2    62  GLU62       0.2592
     67  O         -5.4440   -7.7690  -12.6210 O.2    62  GLU62      -0.2718
     68  CB        -4.2300   -7.3700   -9.7070 C.3    62  GLU62       0.0402
     69  CG        -3.7190   -8.7260   -9.2550 C.3    62  GLU62       0.1161
     70  CD        -2.3100   -8.6580   -8.7060 C.2    62  GLU62       0.3649
     71  OE1       -1.8110   -7.5330   -8.4910 O.co2  62  GLU62      -0.2457
     72  OE2       -1.7020   -9.7270   -8.4900 O.co2  62  GLU62      -0.2457
     73  N         -6.0510   -9.5250  -11.3490 N.am   63  ILE63      -0.1980
     74  CA        -6.1760  -10.4490  -12.4680 C.3    63  ILE63       0.1595
     75  C         -7.2770   -9.9900  -13.4200 C.2    63  ILE63       0.2287
     76  O         -7.0790   -9.9460  -14.6350 O.2    63  ILE63      -0.2864
     77  CB        -6.4630  -11.8840  -11.9800 C.3    63  ILE63       0.0276
     78  CG1       -5.1790  -12.5260  -11.4540 C.3    63  ILE63       0.0022
     79  CG2       -7.0450  -12.7310  -13.0970 C.3    63  ILE63       0.0022
     80  CD1       -5.3690  -13.9280  -10.9260 C.3    63  ILE63       0.0001
     81  N         -6.0160   -6.7730  -14.9770 N.3    66  MET66      -0.1245
     82  CA        -5.0570   -7.0530  -16.0360 C.3    66  MET66       0.1570
     83  C         -5.7320   -7.7620  -17.2030 C.2    66  MET66       0.2261
     84  O         -5.2200   -7.7610  -18.3210 O.2    66  MET66      -0.2867
     85  CB        -3.9020   -7.8950  -15.4990 C.3    66  MET66       0.0387
     86  CG        -2.6310   -7.7960  -16.3210 C.3    66  MET66       0.0595
     87  SD        -1.2220   -8.5810  -15.5140 S.3    66  MET66      -0.1393
     88  CE         0.1230   -7.9870  -16.5400 C.3    66  MET66       0.0692
     89  N          2.7350   -7.3540  -21.2780 N.3    75  VAL75      -0.1245
     90  CA         2.6180   -8.8010  -21.4550 C.3    75  VAL75       0.1561
     91  C          1.1580   -9.2430  -21.3890 C.2    75  VAL75       0.2260
     92  O          0.4210   -8.8690  -20.4770 O.2    75  VAL75      -0.2867
     93  CB         3.4430   -9.5740  -20.4080 C.3    75  VAL75       0.0252
     94  CG1        4.9250   -9.4180  -20.6910 C.3    75  VAL75       0.0019
     95  CG2        3.1170   -9.0950  -19.0000 C.3    75  VAL75       0.0019
     96  N         -2.1650  -11.1080  -20.8000 N.3    77  TYR77      -0.1241
     97  CA        -2.8690  -12.0840  -19.9770 C.3    77  TYR77       0.1605
     98  C         -3.7160  -12.9590  -20.8800 C.2    77  TYR77       0.2264
     99  O         -4.4500  -12.4510  -21.7260 O.2    77  TYR77      -0.2867
    100  CB        -3.7450  -11.3840  -18.9250 C.3    77  TYR77       0.0534
    101  CG        -4.6680  -12.2960  -18.1300 C.ar   77  TYR77      -0.0201
    102  CD1       -4.3300  -12.7140  -16.8530 C.ar   77  TYR77      -0.0009
    103  CD2       -5.8910  -12.7100  -18.6460 C.ar   77  TYR77      -0.0009
    104  CE1       -5.1620  -13.5380  -16.1210 C.ar   77  TYR77       0.0417
    105  CE2       -6.7320  -13.5340  -17.9200 C.ar   77  TYR77       0.0417
    106  CZ        -6.3630  -13.9420  -16.6580 C.ar   77  TYR77       0.1957
    107  OH        -7.1960  -14.7590  -15.9310 O.3    77  TYR77      -0.2866
    108  N         -1.6990  -19.1260  -13.4580 N.3    89  VAL89      -0.1245
    109  CA        -1.8660  -17.9020  -14.2250 C.3    89  VAL89       0.1561
    110  C         -1.0630  -18.0000  -15.5270 C.2    89  VAL89       0.2260
    111  O          0.1570  -18.1710  -15.5030 O.2    89  VAL89      -0.2867
    112  CB        -1.4390  -16.6750  -13.4000 C.3    89  VAL89       0.0252
    113  CG1       -1.5740  -15.4160  -14.2110 C.3    89  VAL89       0.0019
    114  CG2       -2.2900  -16.5760  -12.1350 C.3    89  VAL89       0.0019
    115  N          0.2920  -16.5020  -19.0190 N.3    91  MET91      -0.1230
    116  CA         0.6190  -15.3480  -19.8550 C.3    91  MET91       0.1702
    117  C          1.1970  -15.7910  -21.1910 C.2    91  MET91       0.2592
    118  O          1.5670  -16.9510  -21.3600 O.2    91  MET91      -0.2718
    119  CB         1.6320  -14.4310  -19.1600 C.3    91  MET91       0.0401
    120  CG         1.3310  -14.0920  -17.7110 C.3    91  MET91       0.0596
    121  SD         0.0510  -12.8480  -17.5310 S.3    91  MET91      -0.1393
    122  CE        -1.3480  -13.9030  -17.2720 C.3    91  MET91       0.0692
    123  N          1.2890  -14.8620  -22.1360 N.am   92  GLU92      -0.1966
    124  CA         2.0300  -15.1190  -23.3620 C.3    92  GLU92       0.1733
    125  C          3.5070  -15.2060  -23.0120 C.2    92  GLU92       0.2616
    126  O          3.9930  -14.4690  -22.1570 O.2    92  GLU92      -0.2715
    127  CB         1.7920  -14.0230  -24.4070 C.3    92  GLU92       0.0429
    128  CG         2.3100  -12.6480  -23.9970 C.3    92  GLU92       0.1163
    129  CD         2.3290  -11.6490  -25.1400 C.2    92  GLU92       0.3649
    130  OE1        2.1740  -10.4380  -24.8680 O.co2  92  GLU92      -0.2457
    131  OE2        2.5100  -12.0680  -26.3050 O.co2  92  GLU92      -0.2457
    132  N          4.2220  -16.1170  -23.6550 N.am   93  TYR93      -0.1960
    133  CA         5.6570  -16.2010  -23.4440 C.3    93  TYR93       0.1771
    134  C          6.3960  -15.3410  -24.4650 C.2    93  TYR93       0.2619
    135  O          6.1240  -15.4120  -25.6640 O.2    93  TYR93      -0.2715
    136  CB         6.1310  -17.6490  -23.5210 C.3    93  TYR93       0.0574
    137  CG         7.6150  -17.8120  -23.3110 C.ar   93  TYR93      -0.0198
    138  CD1        8.1910  -17.5580  -22.0770 C.ar   93  TYR93      -0.0009
    139  CD2        8.4410  -18.2280  -24.3480 C.ar   93  TYR93      -0.0009
    140  CE1        9.5490  -17.7070  -21.8810 C.ar   93  TYR93       0.0417
    141  CE2        9.7990  -18.3860  -24.1580 C.ar   93  TYR93       0.0417
    142  CZ        10.3480  -18.1240  -22.9240 C.ar   93  TYR93       0.1957
    143  OH        11.7010  -18.2770  -22.7250 O.3    93  TYR93      -0.2866
    144  N          7.3120  -14.5130  -23.9760 N.am   94  LEU94      -0.1977
    145  CA         8.1420  -13.6790  -24.8380 C.3    94  LEU94       0.1596
    146  C          9.5500  -14.2480  -24.8620 C.2    94  LEU94       0.2287
    147  O         10.2880  -14.1380  -23.8830 O.2    94  LEU94      -0.2864
    148  CB         8.1500  -12.2270  -24.3510 C.3    94  LEU94       0.0297
    149  CG         6.8100  -11.4980  -24.4580 C.3    94  LEU94       0.0022
    150  CD1        6.8990  -10.0930  -23.8800 C.3    94  LEU94       0.0001
    151  CD2        6.3530  -11.4530  -25.9060 C.3    94  LEU94       0.0001
    152  N         13.5700  -12.8040  -24.2840 N.3    97  GLY97      -0.1210
    153  CA        14.1840  -12.6170  -22.9850 C.3    97  GLY97       0.1956
    154  C         14.0360  -11.2060  -22.4570 C.2    97  GLY97       0.2612
    155  O         13.2180  -10.4270  -22.9470 O.2    97  GLY97      -0.2717
    156  N         14.8410  -10.8770  -21.4530 N.am   98  SER98      -0.1952
    157  CA        14.7590   -9.5850  -20.7860 C.3    98  SER98       0.1924
    158  C         15.6820   -8.5610  -21.4240 C.2    98  SER98       0.2314
    159  O         16.6170   -8.9150  -22.1400 O.2    98  SER98      -0.2863
    160  CB        15.1090   -9.7280  -19.3040 C.3    98  SER98       0.2116
    161  OG        16.4760  -10.0720  -19.1500 O.3    98  SER98      -0.2180
    162  N         15.1590   -5.6390  -16.0250 N.3   140  ASP140     -0.1225
    163  CA        14.7030   -6.9970  -15.7390 C.3   140  ASP140      0.1805
    164  C         13.1980   -7.1540  -15.9530 C.2   140  ASP140      0.2597
    165  O         12.7030   -8.2640  -16.1470 O.2   140  ASP140     -0.2718
    166  CB        15.0690   -7.3880  -14.3060 C.3   140  ASP140      0.1424
    167  CG        16.5560   -7.2760  -14.0320 C.2   140  ASP140      0.3668
    168  OD1       17.2730   -8.2820  -14.2150 O.co2 140  ASP140     -0.2456
    169  OD2       17.0070   -6.1810  -13.6340 O.co2 140  ASP140     -0.2456
    170  N         12.4730   -6.0410  -15.9130 N.am  141  ASN141     -0.1974
    171  CA        11.0270   -6.0710  -16.0880 C.3   141  ASN141      0.1688
    172  C         10.5870   -5.7110  -17.5080 C.2   141  ASN141      0.2292
    173  O          9.3950   -5.5880  -17.7820 O.2   141  ASN141     -0.2864
    174  CB        10.3530   -5.1350  -15.0790 C.3   141  ASN141      0.1181
    175  CG        10.3980   -5.6760  -13.6560 C.2   141  ASN141      0.2629
    176  OD1       10.4590   -6.8870  -13.4410 O.2   141  ASN141     -0.2716
    177  ND2       10.3600   -4.7780  -12.6770 N.am  141  ASN141     -0.0877
    178  N         10.4600   -7.1520  -21.2430 N.3   143  LEU143     -0.1245
    179  CA        10.5950   -8.3930  -21.9950 C.3   143  LEU143      0.1561
    180  C         10.5070   -8.1350  -23.4970 C.2   143  LEU143      0.2260
    181  O          9.8220   -7.2130  -23.9430 O.2   143  LEU143     -0.2867
    182  CB         9.5300   -9.4020  -21.5620 C.3   143  LEU143      0.0270
    183  CG         9.4890   -9.7780  -20.0770 C.3   143  LEU143      0.0019
    184  CD1        8.4220  -10.8250  -19.8300 C.3   143  LEU143      0.0001
    185  CD2       10.8440  -10.2740  -19.5900 C.3   143  LEU143      0.0001
    186  N          6.4130   -6.0470  -17.6560 N.3   153  THR153     -0.1203
    187  CA         5.9180   -7.1750  -16.8720 C.3   153  THR153      0.1994
    188  C          6.0240   -6.9030  -15.3750 C.2   153  THR153      0.2617
    189  O          6.6000   -5.8960  -14.9580 O.2   153  THR153     -0.2717
    190  CB         6.6870   -8.4720  -17.1920 C.3   153  THR153      0.1784
    191  OG1        6.0720   -9.5740  -16.5130 O.3   153  THR153     -0.2211
    192  CG2        8.1280   -8.3560  -16.7390 C.3   153  THR153      0.0376
    193  N          5.4560   -7.8110  -14.5830 N.am  154  ASP154     -0.1973
    194  CA         5.5630   -7.7870  -13.1230 C.3   154  ASP154      0.1709
    195  C          5.1620   -6.4640  -12.4710 C.2   154  ASP154      0.2293
    196  O          6.0210   -5.7010  -12.0310 O.2   154  ASP154     -0.2864
    197  CB         6.9930   -8.1360  -12.6930 C.3   154  ASP154      0.1436
    198  CG         7.3670   -9.5720  -13.0100 C.2   154  ASP154      0.3671
    199  OD1        6.4520  -10.3810  -13.2680 O.co2 154  ASP154     -0.2456
    200  OD2        8.5740   -9.8950  -12.9950 O.co2 154  ASP154     -0.2456
@<TRIPOS>BOND
     1   131   129   ar
     2   151   149    1
     3   135   134    2
     4   129   130   ar
     5   129   128    1
     6   146   145    1
     7   146   147    2
     8   145   148    1
     9   145   144    1
    10   134   144   am
    11   134   133    1
    12   149   148    1
    13   149   150    1
    14   127   128    1
    15   127   124    1
    16   139   141   ar
    17   139   137   ar
    18   152   153    1
    19   141   142   ar
    20   181   180    2
    21   132   133    1
    22   132   125   am
    23   136   133    1
    24   136   137    1
    25   180   179    1
    26   124   125    1
    27   124   123    1
    28   137   138   ar
    29   125   126    2
    30   153   154    1
    31   155   154    2
    32   142   143    1
    33   142   140   ar
    34   154   156   am
    35   159   158    2
    36   123   117   am
    37   138   140   ar
    38   179   182    1
    39   179   178    1
    40    99    98    2
    41   182   183    1
    42    90    91    1
    43    90    89    1
    44    90    93    1
    45   156   157    1
    46   158   157    1
    47    91    92    2
    48   118   117    2
    49   117   116    1
    50    98    97    1
    51    96    97    1
    52   157   160    1
    53    26    27    1
    54    94    93    1
    55    93    95    1
    56   183   184    1
    57   183   185    1
    58    97   100    1
    59   116   119    1
    60   116   115    1
    61    27    30    1
    62    27    28    1
    63   160   161    1
    64   119   120    1
    65   100   101    1
    66   103   101   ar
    67   103   105   ar
    68    38    36    1
    69    28    29    2
    70    28    31   am
    71    84    83    2
    72     7     5    1
    73   101   102   ar
    74    36    35    1
    75   105   106   ar
    76     8     6    1
    77   173   172    2
    78   120   121    1
    79   186   187    1
    80   121   122    1
    81    31    32    1
    82   172   171    1
    83    83    82    1
    84   190   187    1
    85   190   192    1
    86   190   191    1
    87     5     6    1
    88     5     2    1
    89   187   188    1
    90   102   104   ar
    91    35    32    1
    92    35    37    1
    93   106   104   ar
    94   106   107    1
    95    88    87    1
    96    32    33    1
    97    86    87    1
    98    86    85    1
    99   165   164    2
   100   171   170    1
   101   171   174    1
   102    82    85    1
   103    82    81    1
   104   162   163    1
   105   164   170   am
   106   164   163    1
   107     2     1    1
   108     2     3    1
   109   163   166    1
   110   110   111    2
   111   110   109    1
   112   188   189    2
   113   188   193   am
   114    24    23    1
   115    33    34    2
   116    33    39   am
   117   174   175    1
   118     4     3    2
   119     3     9   am
   120    76    75    2
   121   193   194    1
   122    22    21    2
   123    21    20    1
   124   166   167    1
   125    39    40    1
   126   109   108    1
   127   109   112    1
   128   168   167   ar
   129   113   112    1
   130   167   169   ar
   131     9    10    1
   132    23    20    1
   133    23    25    1
   134   175   176    2
   135   175   177   am
   136    75    74    1
   137   112   114    1
   138    20    19    1
   139   199   198   ar
   140   194   197    1
   141   194   195    1
   142    79    77    1
   143   198   200   ar
   144   198   197    1
   145    40    43    1
   146    40    41    1
   147    10    11    1
   148    67    66    2
   149   195   196    2
   150    74    77    1
   151    74    73    1
   152    43    44    1
   153    42    41    2
   154    77    78    1
   155    66    73   am
   156    66    65    1
   157    78    80    1
   158    11    12    2
   159    46    45    1
   160    46    47    1
   161    44    45    1
   162    65    68    1
   163    65    64    1
   164    68    69    1
   165    55    54    1
   166    69    70    1
   167    70    71   ar
   168    70    72   ar
   169    59    58    2
   170    54    53    1
   171    48    49    1
   172    58    57    1
   173    53    52    1
   174    17    18    1
   175    17    14    1
   176    52    49    1
   177    49    50    1
   178    60    57    1
   179    60    61    1
   180    60    62    1
   181    57    56    1
   182    51    50    2
   183    15    14    1
   184    15    16    2
   185    63    61    1
   186    14    13    1
