@<TRIPOS>MOLECULE
tmp/5imiA01.pdb
 168 160 0 0 0
SMALL
GASTEIGER

@<TRIPOS>ATOM
      1  N          1.2080  -41.2390   17.5050 N.3    50  VAL50      -0.1245
      2  CA         0.1960  -41.5880   18.4970 C.3    50  VAL50       0.1561
      3  C         -1.0640  -40.7490   18.2860 C.2    50  VAL50       0.2260
      4  O         -2.1780  -41.2150   18.5260 O.2    50  VAL50      -0.2867
      5  CB         0.7180  -41.4090   19.9460 C.3    50  VAL50       0.0252
      6  CG1        1.1080  -39.9660   20.2260 C.3    50  VAL50       0.0019
      7  CG2       -0.3150  -41.8950   20.9550 C.3    50  VAL50       0.0019
      8  N         -4.7320  -41.9880   17.7420 N.3    54  TYR54      -0.1241
      9  CA        -5.8320  -41.5140   18.5730 C.3    54  TYR54       0.1605
     10  C         -7.0150  -41.0740   17.7190 C.2    54  TYR54       0.2264
     11  O         -8.1640  -41.3910   18.0250 O.2    54  TYR54      -0.2867
     12  CB        -5.3710  -40.3590   19.4660 C.3    54  TYR54       0.0534
     13  CG        -5.0540  -40.7650   20.8890 C.ar   54  TYR54      -0.0201
     14  CD1       -5.9250  -40.4620   21.9270 C.ar   54  TYR54      -0.0009
     15  CD2       -3.8870  -41.4530   21.1940 C.ar   54  TYR54      -0.0009
     16  CE1       -5.6410  -40.8290   23.2290 C.ar   54  TYR54       0.0417
     17  CE2       -3.5950  -41.8250   22.4930 C.ar   54  TYR54       0.0417
     18  CZ        -4.4760  -41.5100   23.5060 C.ar   54  TYR54       0.1957
     19  OH        -4.1930  -41.8770   24.8020 O.3    54  TYR54      -0.2866
     20  N         -0.8990  -31.9580   20.8450 N.3    70  LEU70      -0.1245
     21  CA        -0.4410  -33.0490   21.6960 C.3    70  LEU70       0.1561
     22  C          1.0780  -33.0520   21.8300 C.2    70  LEU70       0.2260
     23  O          1.6130  -33.4030   22.8810 O.2    70  LEU70      -0.2867
     24  CB        -0.9260  -34.3960   21.1570 C.3    70  LEU70       0.0270
     25  CG        -2.4400  -34.6230   21.1780 C.3    70  LEU70       0.0019
     26  CD1       -2.7680  -36.0890   20.9240 C.3    70  LEU70       0.0001
     27  CD2       -3.0460  -34.1510   22.4920 C.3    70  LEU70       0.0001
     28  N          2.1260  -30.3430   24.2690 N.3    73  LEU73      -0.1231
     29  CA         1.6810  -30.7540   25.5970 C.3    73  LEU73       0.1693
     30  C          2.5690  -31.8690   26.1350 C.2    73  LEU73       0.2592
     31  O          2.8000  -31.9620   27.3390 O.2    73  LEU73      -0.2718
     32  CB         0.2210  -31.2070   25.5720 C.3    73  LEU73       0.0284
     33  CG        -0.8390  -30.1180   25.3990 C.3    73  LEU73       0.0019
     34  CD1       -2.2360  -30.7020   25.5620 C.3    73  LEU73       0.0001
     35  CD2       -0.6110  -28.9680   26.3730 C.3    73  LEU73       0.0001
     36  N          3.0600  -32.7150   25.2340 N.am   74  PHE74      -0.1976
     37  CA         4.0110  -33.7600   25.5990 C.3    74  PHE74       0.1639
     38  C          5.3220  -33.1520   26.0860 C.2    74  PHE74       0.2290
     39  O          5.8860  -33.5900   27.0880 O.2    74  PHE74      -0.2864
     40  CB         4.2790  -34.6880   24.4120 C.3    74  PHE74       0.0560
     41  CG         3.5200  -35.9840   24.4650 C.ar   74  PHE74      -0.0200
     42  CD1        2.5130  -36.2520   23.5510 C.ar   74  PHE74      -0.0042
     43  CD2        3.8190  -36.9370   25.4240 C.ar   74  PHE74      -0.0042
     44  CE1        1.8180  -37.4450   23.5940 C.ar   74  PHE74      -0.0003
     45  CE2        3.1260  -38.1320   25.4730 C.ar   74  PHE74      -0.0003
     46  CZ         2.1250  -38.3850   24.5560 C.ar   74  PHE74      -0.0000
     47  N          4.7980  -31.5210   29.4080 N.3    77  ASP77      -0.1239
     48  CA         4.6090  -32.5920   30.3830 C.3    77  ASP77       0.1674
     49  C          5.9450  -33.0990   30.9220 C.2    77  ASP77       0.2266
     50  O          6.0520  -33.4700   32.0910 O.2    77  ASP77      -0.2867
     51  CB         3.8180  -33.7440   29.7560 C.3    77  ASP77       0.1410
     52  CG         3.5450  -34.8710   30.7340 C.2    77  ASP77       0.3668
     53  OD1        2.5840  -34.7570   31.5250 O.co2  77  ASP77      -0.2456
     54  OD2        4.2850  -35.8770   30.7050 O.co2  77  ASP77      -0.2456
     55  N         -6.8710  -29.7320   32.4360 N.3   140  PHE140     -0.1241
     56  CA        -5.7860  -30.7040   32.4330 C.3   140  PHE140      0.1605
     57  C         -4.4860  -30.0850   32.9370 C.2   140  PHE140      0.2264
     58  O         -3.7560  -30.7010   33.7140 O.2   140  PHE140     -0.2867
     59  CB        -5.6010  -31.2760   31.0240 C.3   140  PHE140      0.0534
     60  CG        -4.1800  -31.6260   30.6850 C.ar  140  PHE140     -0.0203
     61  CD1       -3.6140  -32.8080   31.1340 C.ar  140  PHE140     -0.0042
     62  CD2       -3.4130  -30.7780   29.9020 C.ar  140  PHE140     -0.0042
     63  CE1       -2.3080  -33.1310   30.8180 C.ar  140  PHE140     -0.0003
     64  CE2       -2.1080  -31.0950   29.5830 C.ar  140  PHE140     -0.0003
     65  CZ        -1.5550  -32.2730   30.0400 C.ar  140  PHE140     -0.0000
     66  N         -7.0130  -38.6780   37.6820 N.3   162  ARG162     -0.1245
     67  CA        -6.2860  -38.8930   36.4370 C.3   162  ARG162      0.1563
     68  C         -7.1160  -38.5710   35.2050 C.2   162  ARG162      0.2260
     69  O         -6.5660  -38.3810   34.1240 O.2   162  ARG162     -0.2867
     70  CB        -5.7830  -40.3310   36.3510 C.3   162  ARG162      0.0307
     71  CG        -4.2800  -40.4460   36.4790 C.3   162  ARG162      0.0489
     72  CD        -3.6240  -40.8970   35.1850 C.3   162  ARG162      0.2205
     73  NE        -2.9630  -39.7970   34.4900 N.pl3 162  ARG162     -0.0865
     74  CZ        -2.0180  -39.9560   33.5700 C.cat 162  ARG162      0.5346
     75  NH1       -1.6110  -41.1740   33.2340 N.pl3 162  ARG162      0.1354
     76  NH2       -1.4740  -38.8960   32.9890 N.pl3 162  ARG162      0.1354
     77  N         -5.8010  -35.3450   34.5950 N.3   165  ASP165     -0.1225
     78  CA        -4.3660  -35.3810   34.3280 C.3   165  ASP165      0.1805
     79  C         -4.0390  -36.0660   33.0000 C.2   165  ASP165      0.2597
     80  O         -3.0390  -35.7430   32.3590 O.2   165  ASP165     -0.2718
     81  CB        -3.6300  -36.0800   35.4730 C.3   165  ASP165      0.1424
     82  CG        -2.1250  -36.0790   35.2830 C.2   165  ASP165      0.3668
     83  OD1       -1.5160  -34.9900   35.3550 O.co2 165  ASP165     -0.2456
     84  OD2       -1.5500  -37.1660   35.0680 O.co2 165  ASP165     -0.2456
     85  N         -4.8790  -37.0120   32.5900 N.am  166  VAL166     -0.1980
     86  CA        -4.6800  -37.6950   31.3150 C.3   166  VAL166      0.1595
     87  C         -5.3140  -36.8850   30.1880 C.2   166  VAL166      0.2287
     88  O         -5.1400  -37.1920   29.0090 O.2   166  VAL166     -0.2864
     89  CB        -5.2680  -39.1240   31.3280 C.3   166  VAL166      0.0276
     90  CG1       -6.7620  -39.0980   31.0240 C.3   166  VAL166      0.0022
     91  CG2       -4.5330  -40.0120   30.3350 C.3   166  VAL166      0.0022
     92  N         -9.9930  -33.0350   27.0040 N.3   170  LEU170     -0.1231
     93  CA        -9.3550  -32.2950   25.9200 C.3   170  LEU170      0.1693
     94  C         -9.1780  -33.1950   24.7020 C.2   170  LEU170      0.2591
     95  O         -9.2960  -32.7400   23.5650 O.2   170  LEU170     -0.2718
     96  CB        -8.0070  -31.7080   26.3680 C.3   170  LEU170      0.0284
     97  CG        -6.7220  -32.5450   26.3990 C.3   170  LEU170      0.0019
     98  CD1       -5.9840  -32.5070   25.0630 C.3   170  LEU170      0.0001
     99  CD2       -5.8100  -32.0690   27.5150 C.3   170  LEU170      0.0001
    100  N         -8.8980  -34.4720   24.9450 N.am  171  LEU171     -0.1980
    101  CA        -8.7330  -35.4390   23.8660 C.3   171  LEU171      0.1596
    102  C        -10.0540  -35.6690   23.1430 C.2   171  LEU171      0.2287
    103  O        -10.0830  -35.8530   21.9260 O.2   171  LEU171     -0.2864
    104  CB        -8.1870  -36.7630   24.4060 C.3   171  LEU171      0.0297
    105  CG        -6.7250  -36.7610   24.8620 C.3   171  LEU171      0.0022
    106  CD1       -6.3790  -38.0630   25.5690 C.3   171  LEU171      0.0001
    107  CD2       -5.7950  -36.5230   23.6840 C.3   171  LEU171      0.0001
    108  N         -7.6430  -45.3270   29.1990 N.3   202  LEU202     -0.1245
    109  CA        -6.5290  -44.5340   28.6900 C.3   202  LEU202      0.1561
    110  C         -5.4780  -44.2930   29.7680 C.2   202  LEU202      0.2260
    111  O         -4.2780  -44.3390   29.4990 O.2   202  LEU202     -0.2867
    112  CB        -7.0310  -43.1940   28.1440 C.3   202  LEU202      0.0270
    113  CG        -7.9250  -43.2450   26.9050 C.3   202  LEU202      0.0019
    114  CD1       -8.4700  -41.8630   26.5800 C.3   202  LEU202      0.0001
    115  CD2       -7.1610  -43.8130   25.7200 C.3   202  LEU202      0.0001
    116  N         -1.6970  -46.3880   29.9050 N.3   206  ASN206     -0.1240
    117  CA        -0.5280  -45.5190   29.8970 C.3   206  ASN206      0.1653
    118  C          0.3520  -45.7550   31.1190 C.2   206  ASN206      0.2266
    119  O          1.5770  -45.7830   31.0170 O.2   206  ASN206     -0.2867
    120  CB        -0.9520  -44.0510   29.8370 C.3   206  ASN206      0.1155
    121  CG         0.2240  -43.1010   29.9590 C.2   206  ASN206      0.2627
    122  OD1        0.6580  -42.7700   31.0630 O.2   206  ASN206     -0.2716
    123  ND2        0.7430  -42.6540   28.8220 N.am  206  ASN206     -0.0877
    124  N         -3.9700  -45.8800   21.8360 N.3   292  ASN292     -0.1240
    125  CA        -3.1140  -45.5790   22.9770 C.3   292  ASN292      0.1653
    126  C         -2.2710  -46.7820   23.3730 C.2   292  ASN292      0.2266
    127  O         -1.0840  -46.6490   23.6660 O.2   292  ASN292     -0.2867
    128  CB        -3.9510  -45.1200   24.1710 C.3   292  ASN292      0.1155
    129  CG        -3.1020  -44.6870   25.3480 C.2   292  ASN292      0.2627
    130  OD1       -2.0850  -44.0150   25.1810 O.2   292  ASN292     -0.2716
    131  ND2       -3.5140  -45.0780   26.5480 N.am  292  ASN292     -0.0877
    132  N          0.5170  -47.7210   20.6000 N.3   295  TRP295     -0.1241
    133  CA         1.6430  -46.8030   20.6880 C.3   295  TRP295      0.1605
    134  C          2.4610  -47.0390   21.9520 C.2   295  TRP295      0.2264
    135  O          3.6880  -47.0990   21.8970 O.2   295  TRP295     -0.2867
    136  CB         1.1540  -45.3580   20.6440 C.3   295  TRP295      0.0550
    137  CG         2.2530  -44.3480   20.7220 C.ar  295  TRP295      0.0003
    138  CD1        3.1140  -43.9960   19.7240 C.ar  295  TRP295      0.0946
    139  CD2        2.6030  -43.5440   21.8560 C.ar  295  TRP295      0.0152
    140  NE1        3.9810  -43.0260   20.1670 N.ar  295  TRP295     -0.2442
    141  CE2        3.6870  -42.7300   21.4720 C.ar  295  TRP295      0.0810
    142  CE3        2.1030  -43.4330   23.1570 C.ar  295  TRP295      0.0012
    143  CZ2        4.2820  -41.8210   22.3430 C.ar  295  TRP295      0.0191
    144  CZ3        2.6950  -42.5290   24.0200 C.ar  295  TRP295      0.0001
    145  CH2        3.7730  -41.7350   23.6090 C.ar  295  TRP295      0.0015
    146  N          9.7100  -43.9400   23.6880 N.3   301  ARG301     -0.1231
    147  CA         9.5010  -43.0970   24.8670 C.3   301  ARG301      0.1694
    148  C          9.3590  -43.9000   26.1600 C.2   301  ARG301      0.2592
    149  O          9.8170  -43.4710   27.2170 O.2   301  ARG301     -0.2718
    150  CB         8.2610  -42.2140   24.6700 C.3   301  ARG301      0.0321
    151  CG         7.9020  -41.3500   25.8800 C.3   301  ARG301      0.0489
    152  CD         6.6750  -40.4880   25.6010 C.3   301  ARG301      0.2205
    153  NE         6.2170  -39.7670   26.7870 N.pl3 301  ARG301     -0.0865
    154  CZ         6.7020  -38.5960   27.1880 C.cat 301  ARG301      0.5346
    155  NH1        7.6730  -38.0080   26.5020 N.pl3 301  ARG301      0.1354
    156  NH2        6.2200  -38.0120   28.2770 N.pl3 301  ARG301      0.1354
    157  N          8.7380  -45.0710   26.0710 N.am  302  TYR302     -0.1976
    158  CA         8.5300  -45.9000   27.2520 C.3   302  TYR302      0.1639
    159  C          9.5100  -47.0720   27.3260 C.2   302  TYR302      0.2290
    160  O          9.6710  -47.6750   28.3870 O.2   302  TYR302     -0.2864
    161  CB         7.0920  -46.4300   27.2900 C.3   302  TYR302      0.0560
    162  CG         6.0310  -45.3500   27.2650 C.ar  302  TYR302     -0.0198
    163  CD1        6.2910  -44.0770   27.7600 C.ar  302  TYR302     -0.0009
    164  CD2        4.7680  -45.6040   26.7490 C.ar  302  TYR302     -0.0009
    165  CE1        5.3230  -43.0890   27.7370 C.ar  302  TYR302      0.0417
    166  CE2        3.7940  -44.6240   26.7220 C.ar  302  TYR302      0.0417
    167  CZ         4.0760  -43.3680   27.2170 C.ar  302  TYR302      0.1957
    168  OH         3.1110  -42.3880   27.1940 O.3   302  TYR302     -0.2866
@<TRIPOS>BOND
     1     1     2    1
     2    10    11    2
     3    10     9    1
     4     8     9    1
     5     3     2    1
     6     3     4    2
     7     2     5    1
     8     9    12    1
     9    12    13    1
    10   138   140   ar
    11   138   137   ar
    12     5     6    1
    13     5     7    1
    14   140   141   ar
    15   132   133    1
    16   136   133    1
    17   136   137    1
    18   133   134    1
    19   137   139   ar
    20    20    21    1
    21    13    15   ar
    22    13    14   ar
    23    26    25    1
    24    24    25    1
    25    24    21    1
    26    25    27    1
    27    15    17   ar
    28   141   139   ar
    29   141   143   ar
    30    21    22    1
    31    22    23    2
    32   124   125    1
    33   139   142   ar
    34   135   134    2
    35   103   102    2
    36    14    16   ar
    37   143   145   ar
    38    17    18   ar
    39   125   126    1
    40   125   128    1
    41   102   101    1
    42   142   144   ar
    43    16    18   ar
    44   126   127    2
    45    18    19    1
    46    42    44   ar
    47    42    41   ar
    48    95    94    2
    49    44    46   ar
    50   145   144   ar
    51   107   105    1
    52   146   147    1
    53   101   104    1
    54   101   100    1
    55   128   129    1
    56    28    29    1
    57   104   105    1
    58    40    41    1
    59    40    37    1
    60    41    43   ar
    61    46    45   ar
    62   150   147    1
    63   150   151    1
    64    94   100   am
    65    94    93    1
    66   105   106    1
    67   147   148    1
    68    98    97    1
    69   130   129    2
    70    36    37    1
    71    36    30   am
    72   129   131   am
    73    33    34    1
    74    33    32    1
    75    33    35    1
    76    43    45   ar
    77    32    29    1
    78    29    30    1
    79    37    38    1
    80   152   151    1
    81   152   153    1
    82   115   113    1
    83    93    96    1
    84    93    92    1
    85   157   148   am
    86   157   158    1
    87    38    39    2
    88    30    31    2
    89   148   149    2
    90    96    97    1
    91    97    99    1
    92   155   154    1
    93   114   113    1
    94   166   164   ar
    95   166   167   ar
    96   164   162   ar
    97   153   154    2
    98   113   112    1
    99   154   156    1
   100   168   167    1
   101   167   165   ar
   102   158   161    1
   103   158   159    1
   104   162   161    1
   105   162   163   ar
   106   159   160    2
   107   165   163   ar
   108   112   109    1
   109   109   108    1
   110   109   110    1
   111   123   121   am
   112    88    87    2
   113    47    48    1
   114   111   110    2
   115    64    62   ar
   116    64    65   ar
   117    51    48    1
   118    51    52    1
   119   120   117    1
   120   120   121    1
   121   117   116    1
   122   117   118    1
   123    62    60   ar
   124   121   122    2
   125    65    63   ar
   126    87    86    1
   127    91    89    1
   128    48    49    1
   129    60    59    1
   130    60    61   ar
   131    54    52   ar
   132    52    53   ar
   133    63    61   ar
   134    49    50    2
   135   119   118    2
   136    59    56    1
   137    90    89    1
   138    86    89    1
   139    86    85    1
   140    80    79    2
   141    56    55    1
   142    56    57    1
   143    85    79   am
   144    57    58    2
   145    76    74    1
   146    79    78    1
   147    75    74    1
   148    74    73    2
   149    69    68    2
   150    78    77    1
   151    78    81    1
   152    73    72    1
   153    84    82   ar
   154    72    71    1
   155    68    67    1
   156    82    83   ar
   157    82    81    1
   158    70    67    1
   159    70    71    1
   160    67    66    1
