@<TRIPOS>MOLECULE
tmp/5imiA00.pdb
 120 113 0 0 0
SMALL
GASTEIGER

@<TRIPOS>ATOM
      1  N          3.0600  -32.7150   25.2340 N.3    74  PHE74      -0.1241
      2  CA         4.0110  -33.7600   25.5990 C.3    74  PHE74       0.1605
      3  C          5.3220  -33.1520   26.0860 C.2    74  PHE74       0.2264
      4  O          5.8860  -33.5900   27.0880 O.2    74  PHE74      -0.2867
      5  CB         4.2790  -34.6880   24.4120 C.3    74  PHE74       0.0534
      6  CG         3.5200  -35.9840   24.4650 C.ar   74  PHE74      -0.0203
      7  CD1        2.5130  -36.2520   23.5510 C.ar   74  PHE74      -0.0042
      8  CD2        3.8190  -36.9370   25.4240 C.ar   74  PHE74      -0.0042
      9  CE1        1.8180  -37.4450   23.5940 C.ar   74  PHE74      -0.0003
     10  CE2        3.1260  -38.1320   25.4730 C.ar   74  PHE74      -0.0003
     11  CZ         2.1250  -38.3850   24.5560 C.ar   74  PHE74      -0.0000
     12  N          4.7980  -31.5210   29.4080 N.3    77  ASP77      -0.1239
     13  CA         4.6090  -32.5920   30.3830 C.3    77  ASP77       0.1674
     14  C          5.9450  -33.0990   30.9220 C.2    77  ASP77       0.2266
     15  O          6.0520  -33.4700   32.0910 O.2    77  ASP77      -0.2867
     16  CB         3.8180  -33.7440   29.7560 C.3    77  ASP77       0.1410
     17  CG         3.5450  -34.8710   30.7340 C.2    77  ASP77       0.3668
     18  OD1        2.5840  -34.7570   31.5250 O.co2  77  ASP77      -0.2456
     19  OD2        4.2850  -35.8770   30.7050 O.co2  77  ASP77      -0.2456
     20  N          8.5320  -31.9820   35.0460 N.3    81  GLU81      -0.1245
     21  CA         9.1520  -32.9770   35.9150 C.3    81  GLU81       0.1567
     22  C         10.3890  -32.4380   36.6300 C.2    81  GLU81       0.2260
     23  O         10.8080  -32.9830   37.6510 O.2    81  GLU81      -0.2867
     24  CB         9.5200  -34.2260   35.1120 C.3    81  GLU81       0.0388
     25  CG         8.3220  -34.9950   34.5830 C.3    81  GLU81       0.1160
     26  CD         8.7200  -36.1840   33.7340 C.2    81  GLU81       0.3649
     27  OE1        9.7910  -36.1290   33.0900 O.co2  81  GLU81      -0.2457
     28  OE2        7.9620  -37.1770   33.7130 O.co2  81  GLU81      -0.2457
     29  N         -6.8710  -29.7320   32.4360 N.3   140  PHE140     -0.1241
     30  CA        -5.7860  -30.7040   32.4330 C.3   140  PHE140      0.1605
     31  C         -4.4860  -30.0850   32.9370 C.2   140  PHE140      0.2264
     32  O         -3.7560  -30.7010   33.7140 O.2   140  PHE140     -0.2867
     33  CB        -5.6010  -31.2760   31.0240 C.3   140  PHE140      0.0534
     34  CG        -4.1800  -31.6260   30.6850 C.ar  140  PHE140     -0.0203
     35  CD1       -3.6140  -32.8080   31.1340 C.ar  140  PHE140     -0.0042
     36  CD2       -3.4130  -30.7780   29.9020 C.ar  140  PHE140     -0.0042
     37  CE1       -2.3080  -33.1310   30.8180 C.ar  140  PHE140     -0.0003
     38  CE2       -2.1080  -31.0950   29.5830 C.ar  140  PHE140     -0.0003
     39  CZ        -1.5550  -32.2730   30.0400 C.ar  140  PHE140     -0.0000
     40  N         -7.0130  -38.6780   37.6820 N.3   162  ARG162     -0.1245
     41  CA        -6.2860  -38.8930   36.4370 C.3   162  ARG162      0.1563
     42  C         -7.1160  -38.5710   35.2050 C.2   162  ARG162      0.2260
     43  O         -6.5660  -38.3810   34.1240 O.2   162  ARG162     -0.2867
     44  CB        -5.7830  -40.3310   36.3510 C.3   162  ARG162      0.0307
     45  CG        -4.2800  -40.4460   36.4790 C.3   162  ARG162      0.0489
     46  CD        -3.6240  -40.8970   35.1850 C.3   162  ARG162      0.2205
     47  NE        -2.9630  -39.7970   34.4900 N.pl3 162  ARG162     -0.0865
     48  CZ        -2.0180  -39.9560   33.5700 C.cat 162  ARG162      0.5346
     49  NH1       -1.6110  -41.1740   33.2340 N.pl3 162  ARG162      0.1354
     50  NH2       -1.4740  -38.8960   32.9890 N.pl3 162  ARG162      0.1354
     51  N         -5.8010  -35.3450   34.5950 N.3   165  ASP165     -0.1225
     52  CA        -4.3660  -35.3810   34.3280 C.3   165  ASP165      0.1805
     53  C         -4.0390  -36.0660   33.0000 C.2   165  ASP165      0.2597
     54  O         -3.0390  -35.7430   32.3590 O.2   165  ASP165     -0.2718
     55  CB        -3.6300  -36.0800   35.4730 C.3   165  ASP165      0.1424
     56  CG        -2.1250  -36.0790   35.2830 C.2   165  ASP165      0.3668
     57  OD1       -1.5160  -34.9900   35.3550 O.co2 165  ASP165     -0.2456
     58  OD2       -1.5500  -37.1660   35.0680 O.co2 165  ASP165     -0.2456
     59  N         -4.8790  -37.0120   32.5900 N.am  166  VAL166     -0.1980
     60  CA        -4.6800  -37.6950   31.3150 C.3   166  VAL166      0.1595
     61  C         -5.3140  -36.8850   30.1880 C.2   166  VAL166      0.2287
     62  O         -5.1400  -37.1920   29.0090 O.2   166  VAL166     -0.2864
     63  CB        -5.2680  -39.1240   31.3280 C.3   166  VAL166      0.0276
     64  CG1       -6.7620  -39.0980   31.0240 C.3   166  VAL166      0.0022
     65  CG2       -4.5330  -40.0120   30.3350 C.3   166  VAL166      0.0022
     66  N         -1.6970  -46.3880   29.9050 N.3   206  ASN206     -0.1240
     67  CA        -0.5280  -45.5190   29.8970 C.3   206  ASN206      0.1653
     68  C          0.3520  -45.7550   31.1190 C.2   206  ASN206      0.2266
     69  O          1.5770  -45.7830   31.0170 O.2   206  ASN206     -0.2867
     70  CB        -0.9520  -44.0510   29.8370 C.3   206  ASN206      0.1155
     71  CG         0.2240  -43.1010   29.9590 C.2   206  ASN206      0.2627
     72  OD1        0.6580  -42.7700   31.0630 O.2   206  ASN206     -0.2716
     73  ND2        0.7430  -42.6540   28.8220 N.am  206  ASN206     -0.0877
     74  N          4.3240  -46.9250   30.8830 N.3   210  SER210     -0.1217
     75  CA         5.2020  -45.7940   31.1640 C.3   210  SER210      0.1889
     76  C          5.7110  -45.7910   32.6010 C.2   210  SER210      0.2288
     77  O          6.2920  -44.8040   33.0510 O.2   210  SER210     -0.2866
     78  CB         4.4810  -44.4770   30.8760 C.3   210  SER210      0.2089
     79  OG         3.4200  -44.2650   31.7900 O.3   210  SER210     -0.2183
     80  N          9.6450  -45.5870   33.0630 N.3   213  LYS213     -0.1231
     81  CA        10.1040  -44.2380   32.7520 C.3   213  LYS213      0.1693
     82  C          9.8160  -43.2870   33.9080 C.2   213  LYS213      0.2591
     83  O         10.6650  -42.4810   34.2910 O.2   213  LYS213     -0.2718
     84  CB         9.4370  -43.7250   31.4730 C.3   213  LYS213      0.0285
     85  CG         9.7870  -42.2870   31.1280 C.3   213  LYS213      0.0035
     86  CD         9.0320  -41.8120   29.8960 C.3   213  LYS213      0.0206
     87  CE         7.5490  -41.6330   30.1810 C.3   213  LYS213      0.1093
     88  NZ         7.2830  -40.4480   31.0440 N.3   213  LYS213     -0.1314
     89  N          8.6130  -43.3910   34.4610 N.am  214  GLU214     -0.1979
     90  CA         8.1880  -42.5170   35.5470 C.3   214  GLU214      0.1602
     91  C          8.8400  -42.9060   36.8720 C.2   214  GLU214      0.2287
     92  O          8.9790  -42.0760   37.7700 O.2   214  GLU214     -0.2864
     93  CB         6.6630  -42.5370   35.6750 C.3   214  GLU214      0.0415
     94  CG         5.9450  -41.9530   34.4660 C.3   214  GLU214      0.1163
     95  CD         4.4460  -42.1750   34.5050 C.2   214  GLU214      0.3649
     96  OE1        3.9650  -42.8650   35.4290 O.co2 214  GLU214     -0.2457
     97  OE2        3.7460  -41.6600   33.6080 O.co2 214  GLU214     -0.2457
     98  N          9.7100  -43.9400   23.6880 N.3   301  ARG301     -0.1231
     99  CA         9.5010  -43.0970   24.8670 C.3   301  ARG301      0.1694
    100  C          9.3590  -43.9000   26.1600 C.2   301  ARG301      0.2592
    101  O          9.8170  -43.4710   27.2170 O.2   301  ARG301     -0.2718
    102  CB         8.2610  -42.2140   24.6700 C.3   301  ARG301      0.0321
    103  CG         7.9020  -41.3500   25.8800 C.3   301  ARG301      0.0489
    104  CD         6.6750  -40.4880   25.6010 C.3   301  ARG301      0.2205
    105  NE         6.2170  -39.7670   26.7870 N.pl3 301  ARG301     -0.0865
    106  CZ         6.7020  -38.5960   27.1880 C.cat 301  ARG301      0.5346
    107  NH1        7.6730  -38.0080   26.5020 N.pl3 301  ARG301      0.1354
    108  NH2        6.2200  -38.0120   28.2770 N.pl3 301  ARG301      0.1354
    109  N          8.7380  -45.0710   26.0710 N.am  302  TYR302     -0.1976
    110  CA         8.5300  -45.9000   27.2520 C.3   302  TYR302      0.1639
    111  C          9.5100  -47.0720   27.3260 C.2   302  TYR302      0.2290
    112  O          9.6710  -47.6750   28.3870 O.2   302  TYR302     -0.2864
    113  CB         7.0920  -46.4300   27.2900 C.3   302  TYR302      0.0560
    114  CG         6.0310  -45.3500   27.2650 C.ar  302  TYR302     -0.0198
    115  CD1        6.2910  -44.0770   27.7600 C.ar  302  TYR302     -0.0009
    116  CD2        4.7680  -45.6040   26.7490 C.ar  302  TYR302     -0.0009
    117  CE1        5.3230  -43.0890   27.7370 C.ar  302  TYR302      0.0417
    118  CE2        3.7940  -44.6240   26.7220 C.ar  302  TYR302      0.0417
    119  CZ         4.0760  -43.3680   27.2170 C.ar  302  TYR302      0.1957
    120  OH         3.1110  -42.3880   27.1940 O.3   302  TYR302     -0.2866
@<TRIPOS>BOND
     1     7     9   ar
     2     7     6   ar
     3     9    11   ar
     4    98    99    1
     5     5     6    1
     6     5     2    1
     7     6     8   ar
     8    11    10   ar
     9   102    99    1
    10   102   103    1
    11    99   100    1
    12     1     2    1
    13     8    10   ar
    14     2     3    1
    15   104   103    1
    16   104   105    1
    17   109   100   am
    18   109   110    1
    19     3     4    2
    20   100   101    2
    21   107   106    1
    22   118   116   ar
    23   118   119   ar
    24   116   114   ar
    25   105   106    2
    26   106   108    1
    27   120   119    1
    28   119   117   ar
    29   110   113    1
    30   110   111    1
    31   114   113    1
    32   114   115   ar
    33   111   112    2
    34   117   115   ar
    35    73    71   am
    36    62    61    2
    37    12    13    1
    38    38    36   ar
    39    38    39   ar
    40    16    13    1
    41    16    17    1
    42    70    67    1
    43    70    71    1
    44    86    87    1
    45    86    85    1
    46    67    66    1
    47    67    68    1
    48    36    34   ar
    49    71    72    2
    50    39    37   ar
    51    87    88    1
    52    61    60    1
    53    65    63    1
    54    13    14    1
    55    34    33    1
    56    34    35   ar
    57    19    17   ar
    58    17    18   ar
    59    37    35   ar
    60    78    75    1
    61    78    79    1
    62    74    75    1
    63    14    15    2
    64    69    68    2
    65    33    30    1
    66    64    63    1
    67    85    84    1
    68    75    76    1
    69    60    63    1
    70    60    59    1
    71    84    81    1
    72    54    53    2
    73    30    29    1
    74    30    31    1
    75    59    53   am
    76    76    77    2
    77    81    80    1
    78    81    82    1
    79    31    32    2
    80    50    48    1
    81    53    52    1
    82    27    26   ar
    83    49    48    1
    84    48    47    2
    85    97    95   ar
    86    28    26   ar
    87    26    25    1
    88    82    83    2
    89    82    89   am
    90    43    42    2
    91    52    51    1
    92    52    55    1
    93    89    90    1
    94    94    95    1
    95    94    93    1
    96    47    46    1
    97    95    96   ar
    98    25    24    1
    99    20    21    1
   100    58    56   ar
   101    24    21    1
   102    46    45    1
   103    42    41    1
   104    56    57   ar
   105    56    55    1
   106    90    93    1
   107    90    91    1
   108    21    22    1
   109    44    41    1
   110    44    45    1
   111    41    40    1
   112    22    23    2
   113    91    92    2
