@<TRIPOS>MOLECULE
tmp/5imtA00.pdb
 103 103 0 0 0
SMALL
GASTEIGER

@<TRIPOS>ATOM
      1  N        104.1630   68.2060  133.1680 N.3   370  TRP370     -0.1241
      2  CA       104.2000   66.7550  133.2770 C.3   370  TRP370      0.1605
      3  C        102.7870   66.2190  133.4460 C.2   370  TRP370      0.2264
      4  O        101.8470   66.9620  133.7430 O.2   370  TRP370     -0.2867
      5  CB       105.0860   66.3000  134.4430 C.3   370  TRP370      0.0550
      6  CG       104.5700   66.6800  135.7990 C.ar  370  TRP370      0.0003
      7  CD1      103.7840   65.9230  136.6190 C.ar  370  TRP370      0.0946
      8  CD2      104.8150   67.9060  136.4970 C.ar  370  TRP370      0.0152
      9  NE1      103.5240   66.6030  137.7840 N.ar  370  TRP370     -0.2442
     10  CE2      104.1460   67.8230  137.7340 C.ar  370  TRP370      0.0810
     11  CE3      105.5360   69.0660  136.1960 C.ar  370  TRP370      0.0012
     12  CZ2      104.1720   68.8560  138.6670 C.ar  370  TRP370      0.0191
     13  CZ3      105.5620   70.0910  137.1250 C.ar  370  TRP370      0.0001
     14  CH2      104.8840   69.9790  138.3460 C.ar  370  TRP370      0.0015
     15  N        100.3770   63.0980  135.3650 N.3   372  GLU372     -0.1245
     16  CA       100.3240   62.5090  136.6980 C.3   372  GLU372      0.1567
     17  C         99.2030   61.4830  136.7520 C.2   372  GLU372      0.2260
     18  O         98.0420   61.8160  136.4960 O.2   372  GLU372     -0.2867
     19  CB       100.1150   63.5970  137.7570 C.3   372  GLU372      0.0388
     20  CG        99.9960   63.0860  139.1820 C.3   372  GLU372      0.1160
     21  CD        99.9330   64.2120  140.1950 C.2   372  GLU372      0.3649
     22  OE1       98.8100   64.5920  140.5940 O.co2 372  GLU372     -0.2457
     23  OE2      101.0060   64.7260  140.5810 O.co2 372  GLU372     -0.2457
     24  N        101.6220   71.5030  136.0200 N.3   387  SER387     -0.1202
     25  CA       102.4950   72.6210  135.7000 C.3   387  SER387      0.2020
     26  C        103.2900   73.0020  136.9370 C.2   387  SER387      0.2619
     27  O        102.7700   72.9610  138.0550 O.2   387  SER387     -0.2717
     28  CB       101.6970   73.8350  135.2080 C.3   387  SER387      0.2103
     29  OG       101.1040   73.5820  133.9480 O.3   387  SER387     -0.2182
     30  N        104.5500   73.3680  136.7310 N.am  388  TRP388     -0.1961
     31  CA       105.3780   73.8690  137.8160 C.3   388  TRP388      0.1771
     32  C        104.9720   75.3020  138.1320 C.2   388  TRP388      0.2620
     33  O        104.8370   76.1320  137.2270 O.2   388  TRP388     -0.2715
     34  CB       106.8560   73.7880  137.4320 C.3   388  TRP388      0.0590
     35  CG       107.8020   74.3560  138.4470 C.ar  388  TRP388      0.0006
     36  CD1      107.8250   74.0980  139.7860 C.ar  388  TRP388      0.0946
     37  CD2      108.8800   75.2660  138.1960 C.ar  388  TRP388      0.0152
     38  NE1      108.8430   74.7980  140.3860 N.ar  388  TRP388     -0.2442
     39  CE2      109.5070   75.5220  139.4310 C.ar  388  TRP388      0.0810
     40  CE3      109.3730   75.8920  137.0470 C.ar  388  TRP388      0.0012
     41  CZ2      110.6000   76.3780  139.5500 C.ar  388  TRP388      0.0191
     42  CZ3      110.4570   76.7410  137.1670 C.ar  388  TRP388      0.0001
     43  CH2      111.0590   76.9770  138.4090 C.ar  388  TRP388      0.0015
     44  N        104.7550   75.5880  139.4170 N.am  389  SER389     -0.1950
     45  CA       104.3370   76.9260  139.8180 C.3   389  SER389      0.1924
     46  C        105.3720   77.9820  139.4610 C.2   389  SER389      0.2314
     47  O        105.0350   79.1700  139.3990 O.2   389  SER389     -0.2863
     48  CB       104.0510   76.9580  141.3210 C.3   389  SER389      0.2116
     49  OG       105.0650   76.2890  142.0480 O.3   389  SER389     -0.2180
     50  N        113.3740   69.7560  141.2430 N.3   403  LEU403     -0.1231
     51  CA       111.9990   69.2810  141.3310 C.3   403  LEU403      0.1693
     52  C        112.0180   67.7750  141.5570 C.2   403  LEU403      0.2592
     53  O        112.5800   67.0290  140.7490 O.2   403  LEU403     -0.2718
     54  CB       111.2130   69.6230  140.0640 C.3   403  LEU403      0.0284
     55  CG       111.1380   71.0930  139.6370 C.3   403  LEU403      0.0019
     56  CD1      109.8830   71.3200  138.8040 C.3   403  LEU403      0.0001
     57  CD2      111.1700   72.0480  140.8250 C.3   403  LEU403      0.0001
     58  N        111.4090   67.3340  142.6520 N.am  404  ARG404     -0.1966
     59  CA       111.3610   65.9220  143.0100 C.3   404  ARG404      0.1729
     60  C        109.9670   65.3800  142.7150 C.2   404  ARG404      0.2616
     61  O        108.9820   65.8300  143.3110 O.2   404  ARG404     -0.2715
     62  CB       111.7200   65.7300  144.4820 C.3   404  ARG404      0.0348
     63  CG       113.0750   66.3140  144.8530 C.3   404  ARG404      0.0492
     64  CD       113.4030   66.1320  146.3270 C.3   404  ARG404      0.2205
     65  NE       114.2270   64.9460  146.5640 N.pl3 404  ARG404     -0.0865
     66  CZ       113.7950   63.8010  147.0870 C.cat 404  ARG404      0.5346
     67  NH1      112.5270   63.6510  147.4520 N.pl3 404  ARG404      0.1354
     68  NH2      114.6440   62.7950  147.2530 N.pl3 404  ARG404      0.1354
     69  N        109.8880   64.4210  141.7950 N.am  405  PHE405     -0.1960
     70  CA       108.6250   63.8280  141.3750 C.3   405  PHE405      0.1771
     71  C        108.4910   62.4180  141.9330 C.2   405  PHE405      0.2619
     72  O        109.4650   61.6600  141.9700 O.2   405  PHE405     -0.2715
     73  CB       108.5190   63.7710  139.8480 C.3   405  PHE405      0.0574
     74  CG       108.6580   65.1040  139.1710 C.ar  405  PHE405     -0.0200
     75  CD1      107.6270   66.0270  139.2070 C.ar  405  PHE405     -0.0042
     76  CD2      109.8130   65.4250  138.4780 C.ar  405  PHE405     -0.0042
     77  CE1      107.7510   67.2510  138.5760 C.ar  405  PHE405     -0.0003
     78  CE2      109.9430   66.6460  137.8440 C.ar  405  PHE405     -0.0003
     79  CZ       108.9110   67.5600  137.8930 C.ar  405  PHE405     -0.0000
     80  N        107.2790   62.0700  142.3590 N.am  406  LYS406     -0.1977
     81  CA       106.9720   60.6900  142.7010 C.3   406  LYS406      0.1596
     82  C        106.9310   59.8310  141.4390 C.2   406  LYS406      0.2287
     83  O        106.7840   60.3280  140.3180 O.2   406  LYS406     -0.2864
     84  CB       105.6300   60.5950  143.4300 C.3   406  LYS406      0.0298
     85  CG       105.6010   61.2020  144.8260 C.3   406  LYS406      0.0038
     86  CD       104.1720   61.2260  145.3620 C.3   406  LYS406      0.0206
     87  CE       104.0760   61.8700  146.7390 C.3   406  LYS406      0.1093
     88  NZ       104.4770   60.9470  147.8370 N.3   406  LYS406     -0.1314
     89  N        104.7660   58.1340  140.0800 N.3   408  ASN408     -0.1225
     90  CA       103.5510   58.1820  139.2750 C.3   408  ASN408      0.1785
     91  C        103.5440   59.3320  138.2720 C.2   408  ASN408      0.2597
     92  O        102.5210   59.5490  137.6130 O.2   408  ASN408     -0.2718
     93  CB       102.3200   58.2800  140.1830 C.3   408  ASN408      0.1169
     94  CG       102.3160   59.5340  141.0320 C.2   408  ASN408      0.2627
     95  OD1      103.3670   60.1030  141.3250 O.2   408  ASN408     -0.2716
     96  ND2      101.1300   59.9680  141.4390 N.am  408  ASN408     -0.0877
     97  N        104.6460   60.0650  138.1380 N.am  409  VAL409     -0.1980
     98  CA       104.7670   61.1300  137.1480 C.3   409  VAL409      0.1595
     99  C        105.4050   60.5580  135.8900 C.2   409  VAL409      0.2287
    100  O        106.2240   59.6340  135.9470 O.2   409  VAL409     -0.2864
    101  CB       105.5810   62.3120  137.7180 C.3   409  VAL409      0.0276
    102  CG1      105.9940   63.2830  136.6130 C.3   409  VAL409      0.0022
    103  CG2      104.7720   63.0360  138.7850 C.3   409  VAL409      0.0022
@<TRIPOS>BOND
     1     1     2    1
     2     2     3    1
     3     2     5    1
     4     3     4    2
     5    29    28    1
     6     5     6    1
     7    28    25    1
     8    15    16    1
     9    25    24    1
    10    25    26    1
    11     6     8   ar
    12     6     7   ar
    13    99   100    2
    14    99    98    1
    15    11     8   ar
    16    11    13   ar
    17    18    17    2
    18     8    10   ar
    19   102   101    1
    20     7     9   ar
    21    16    17    1
    22    16    19    1
    23    30    26   am
    24    30    31    1
    25    26    27    2
    26    40    42   ar
    27    40    37   ar
    28    13    14   ar
    29    98   101    1
    30    98    97    1
    31    42    43   ar
    32    33    32    2
    33    34    31    1
    34    34    35    1
    35    92    91    2
    36   101   103    1
    37    10     9   ar
    38    10    12   ar
    39    19    20    1
    40    31    32    1
    41    78    79   ar
    42    78    76   ar
    43    79    77   ar
    44    32    44   am
    45    97    91   am
    46    37    35   ar
    47    37    39   ar
    48    91    90    1
    49    14    12   ar
    50    43    41   ar
    51    35    36   ar
    52    76    74   ar
    53    77    75   ar
    54    56    55    1
    55    74    75   ar
    56    74    73    1
    57    20    21    1
    58    90    89    1
    59    90    93    1
    60    47    46    2
    61    44    45    1
    62    39    41   ar
    63    39    38   ar
    64    46    45    1
    65    55    54    1
    66    55    57    1
    67    36    38   ar
    68    45    48    1
    69    73    70    1
    70    54    51    1
    71    93    94    1
    72    21    23   ar
    73    21    22   ar
    74    83    82    2
    75    53    52    2
    76    94    95    2
    77    94    96   am
    78    50    51    1
    79    48    49    1
    80    51    52    1
    81    70    69    1
    82    70    71    1
    83    82    81    1
    84    52    58   am
    85    69    60   am
    86    71    72    2
    87    71    80   am
    88    80    81    1
    89    58    59    1
    90    81    84    1
    91    60    59    1
    92    60    61    2
    93    59    62    1
    94    84    85    1
    95    62    63    1
    96    85    86    1
    97    63    64    1
    98    86    87    1
    99    64    65    1
   100    65    66    2
   101    87    88    1
   102    66    68    1
   103    66    67    1
