@<TRIPOS>MOLECULE
tmp/5imxA00.pdb
 187 175 0 0 0
SMALL
GASTEIGER

@<TRIPOS>ATOM
      1  N         28.4760   12.3300   -0.7880 N.3    12  ARG12      -0.1245
      2  CA        27.6600   11.1660   -1.0710 C.3    12  ARG12       0.1563
      3  C         26.2360   11.4560   -0.6060 C.2    12  ARG12       0.2260
      4  O         26.0280   12.1480    0.3820 O.2    12  ARG12      -0.2867
      5  CB        28.2330    9.9600   -0.3340 C.3    12  ARG12       0.0307
      6  CG        27.3960    8.6940   -0.5510 C.3    12  ARG12       0.0489
      7  CD        28.1170    7.4130   -0.3940 C.3    12  ARG12       0.2205
      8  NE        29.1450    7.3990    0.6450 N.pl3  12  ARG12      -0.0865
      9  CZ        28.8380    7.3060    1.9480 C.cat  12  ARG12       0.5346
     10  NH1       27.5750    7.1580    2.3510 N.pl3  12  ARG12       0.1354
     11  NH2       29.8180    7.4240    2.8480 N.pl3  12  ARG12       0.1354
     12  N         22.7670   10.4550    1.1150 N.3    14  LEU14      -0.1231
     13  CA        22.5330    9.5600    2.2650 C.3    14  LEU14       0.1693
     14  C         21.1820    8.9020    2.2020 C.2    14  LEU14       0.2593
     15  O         20.9430    7.8950    2.8410 O.2    14  LEU14      -0.2718
     16  CB        22.6670   10.3180    3.5920 C.3    14  LEU14       0.0284
     17  CG        24.0930   10.5760    4.0800 C.3    14  LEU14       0.0019
     18  CD1       24.1020   11.1960    5.4560 C.3    14  LEU14       0.0001
     19  CD2       24.9250    9.3090    4.1440 C.3    14  LEU14       0.0001
     20  N         20.2810    9.4780    1.4380 N.am   15  GLY15      -0.1942
     21  CA        18.9000    9.0590    1.4790 C.3    15  GLY15       0.2014
     22  C         18.0720   10.3100    1.4930 C.2    15  GLY15       0.2639
     23  O         18.5880   11.4240    1.4750 O.2    15  GLY15      -0.2714
     24  N         16.7790   10.1240    1.5860 N.am   16  HIS16      -0.1959
     25  CA        15.8300   11.1790    1.3360 C.3    16  HIS16       0.1787
     26  C         15.2930   11.5050    2.7230 C.2    16  HIS16       0.2621
     27  O         14.8600   10.6180    3.4420 O.2    16  HIS16      -0.2715
     28  CB        14.7800   10.6330    0.3680 C.3    16  HIS16       0.0785
     29  CG        15.3480    9.6170   -0.5870 C.ar   16  HIS16       0.0821
     30  ND1       15.6450    9.9080   -1.9060 N.ar   16  HIS16      -0.2267
     31  CD2       15.7510    8.3340   -0.3900 C.ar   16  HIS16       0.1154
     32  CE1       16.1730    8.8420   -2.4860 C.ar   16  HIS16       0.1986
     33  NE2       16.2550    7.8760   -1.5860 N.ar   16  HIS16      -0.2212
     34  N         15.4190   12.7610    3.1300 N.am   17  GLY17      -0.1940
     35  CA        14.9850   13.2210    4.4540 C.3    17  GLY17       0.2014
     36  C         13.5790   13.7720    4.4220 C.2    17  GLY17       0.2638
     37  O         12.8080   13.4440    3.5290 O.2    17  GLY17      -0.2714
     38  N         13.2520   14.6160    5.3970 N.am   18  ALA18      -0.1977
     39  CA        11.8900   15.1020    5.5710 C.3    18  ALA18       0.1597
     40  C         11.5100   16.0170    4.4380 C.2    18  ALA18       0.2287
     41  O         10.4470   15.8760    3.8350 O.2    18  ALA18      -0.2864
     42  CB        11.7560   15.8400    6.8900 C.3    18  ALA18       0.0319
     43  N         19.7080   14.0870    1.8530 N.3    22  VAL22      -0.1245
     44  CA        20.7020   14.5010    2.8180 C.3    22  VAL22       0.1561
     45  C         22.0320   13.9650    2.3340 C.2    22  VAL22       0.2260
     46  O         22.0860   12.8710    1.7730 O.2    22  VAL22      -0.2867
     47  CB        20.3040   14.0000    4.2340 C.3    22  VAL22       0.0252
     48  CG1       21.3690   14.3680    5.2770 C.3    22  VAL22       0.0019
     49  CG2       18.9350   14.5680    4.6120 C.3    22  VAL22       0.0019
     50  N         26.2710   13.2270    3.0840 N.3    24  GLU24      -0.1245
     51  CA        27.5020   13.2800    3.8360 C.3    24  GLU24       0.1567
     52  C         28.2820   14.4250    3.2070 C.2    24  GLU24       0.2260
     53  O         28.3090   14.5490    1.9880 O.2    24  GLU24      -0.2867
     54  CB        28.2700   11.9670    3.7140 C.3    24  GLU24       0.0388
     55  CG        29.7840   12.1060    3.8660 C.3    24  GLU24       0.1160
     56  CD        30.4440   10.8630    4.4340 C.2    24  GLU24       0.3649
     57  OE1       31.4580   11.0470    5.1410 O.co2  24  GLU24      -0.2457
     58  OE2       29.9320    9.7240    4.2130 O.co2  24  GLU24      -0.2457
     59  N         26.5070   16.1060    8.0650 N.3    33  ALA33      -0.1245
     60  CA        25.3640   15.7440    7.2660 C.3    33  ALA33       0.1562
     61  C         24.7470   17.0420    6.8340 C.2    33  ALA33       0.2260
     62  O         24.5800   17.9460    7.6530 O.2    33  ALA33      -0.2867
     63  CB        24.3800   14.9270    8.0700 C.3    33  ALA33       0.0290
     64  N         21.5680   18.6650    5.3740 N.3    35  LYS35      -0.1245
     65  CA        20.1520   18.4790    5.1900 C.3    35  LYS35       0.1561
     66  C         19.6160   19.6280    4.3530 C.2    35  LYS35       0.2260
     67  O         20.0200   20.7790    4.5330 O.2    35  LYS35      -0.2867
     68  CB        19.4790   18.4190    6.5390 C.3    35  LYS35       0.0271
     69  CG        18.1660   17.6640    6.5190 C.3    35  LYS35       0.0035
     70  CD        17.6920   17.3750    7.9370 C.3    35  LYS35       0.0206
     71  CE        16.2460   16.9350    7.9470 C.3    35  LYS35       0.1093
     72  NZ        15.6260   17.0590    9.2920 N.3    35  LYS35      -0.1314
     73  N         21.3670   15.3420   18.2640 N.3    56  VAL56      -0.1245
     74  CA        22.3120   15.7110   17.1950 C.3    56  VAL56       0.1561
     75  C         22.7090   17.2330   17.2030 C.2    56  VAL56       0.2260
     76  O         21.8780   18.1380   17.3080 O.2    56  VAL56      -0.2867
     77  CB        21.7650   15.2440   15.8130 C.3    56  VAL56       0.0252
     78  CG1       22.7020   15.6160   14.6840 C.3    56  VAL56       0.0019
     79  CG2       21.6220   13.7440   15.7520 C.3    56  VAL56       0.0019
     80  N         24.4180   19.2800   10.0390 N.3    72  LEU72      -0.1231
     81  CA        24.3090   18.6460   11.3280 C.3    72  LEU72       0.1693
     82  C         25.4940   17.7240   11.5370 C.2    72  LEU72       0.2592
     83  O         26.1790   17.3670   10.5630 O.2    72  LEU72      -0.2718
     84  CB        22.9830   17.8610   11.3860 C.3    72  LEU72       0.0284
     85  CG        21.7530   18.7020   11.0140 C.3    72  LEU72       0.0019
     86  CD1       20.4720   17.9320   10.8170 C.3    72  LEU72       0.0001
     87  CD2       21.5180   19.7640   12.0600 C.3    72  LEU72       0.0001
     88  N         25.7760   17.4040   12.8150 N.am   73  GLU73      -0.1966
     89  CA        26.6040   16.2860   13.1990 C.3    73  GLU73       0.1733
     90  C         26.3360   15.0350   12.3180 C.2    73  GLU73       0.2616
     91  O         25.2070   14.5270   12.2410 O.2    73  GLU73      -0.2715
     92  CB        26.2740   15.9370   14.6680 C.3    73  GLU73       0.0429
     93  CG        27.1580   14.9140   15.3870 C.3    73  GLU73       0.1163
     94  CD        26.6990   14.6700   16.8410 C.2    73  GLU73       0.3649
     95  OE1       25.7600   15.3150   17.3610 O.co2  73  GLU73      -0.2457
     96  OE2       27.2510   13.7850   17.4740 O.co2  73  GLU73      -0.2457
     97  N         27.3800   14.5000   11.7110 N.am   74  LEU74      -0.1963
     98  CA        27.2850   13.2600   10.9220 C.3    74  LEU74       0.1728
     99  C         27.3020   12.0360   11.7880 C.2    74  LEU74       0.2616
    100  O         28.2220   11.8240   12.5780 O.2    74  LEU74      -0.2715
    101  CB        28.4280   13.1700    9.9310 C.3    74  LEU74       0.0311
    102  CG        28.4750   11.9400    9.0090 C.3    74  LEU74       0.0022
    103  CD1       27.1970   11.7890    8.2360 C.3    74  LEU74       0.0001
    104  CD2       29.6710   12.1630    8.1060 C.3    74  LEU74       0.0001
    105  N         26.2570   11.2380   11.6890 N.am   75  MET75      -0.1963
    106  CA        26.1000   10.1180   12.6110 C.3    75  MET75       0.1736
    107  C         26.4680    8.9200   11.7740 C.2    75  MET75       0.2616
    108  O         25.7150    8.5120   10.8660 O.2    75  MET75      -0.2715
    109  CB        24.6530   10.0560   13.0990 C.3    75  MET75       0.0427
    110  CG        24.2680   11.2810   13.9160 C.3    75  MET75       0.0599
    111  SD        25.1290   11.2850   15.4490 S.3    75  MET75      -0.1393
    112  CE        24.2400    9.9970   16.2960 C.3    75  MET75       0.0692
    113  N         27.6490    8.3950   12.0740 N.am   76  ALA76      -0.1963
    114  CA        28.3150    7.4140   11.2540 C.3    76  ALA76       0.1728
    115  C         27.6530    6.0740   11.3560 C.2    76  ALA76       0.2617
    116  O         28.0340    5.1610   10.6450 O.2    76  ALA76      -0.2715
    117  CB        29.7840    7.2860   11.6940 C.3    76  ALA76       0.0334
    118  N         26.7010    5.9160   12.2660 N.am   77  GLY77      -0.1940
    119  CA        26.0240    4.6160   12.3810 C.3    77  GLY77       0.2014
    120  C         24.7250    4.5490   11.6390 C.2    77  GLY77       0.2639
    121  O         24.0160    3.5530   11.7230 O.2    77  GLY77      -0.2714
    122  N         24.3680    5.6500   10.9810 N.am   78  GLY78      -0.1939
    123  CA        23.1070    5.7310   10.3090 C.3    78  GLY78       0.2014
    124  C         21.9470    5.7430   11.2650 C.2    78  GLY78       0.2638
    125  O         22.1260    5.9600   12.4690 O.2    78  GLY78      -0.2714
    126  N         20.7540    5.5400   10.7050 N.am   79  ASP79      -0.1971
    127  CA        19.5030    5.5420   11.4600 C.3    79  ASP79       0.1709
    128  C         19.2680    4.2320   12.2520 C.2    79  ASP79       0.2293
    129  O         19.7700    3.1650   11.8790 O.2    79  ASP79      -0.2864
    130  CB        18.3040    5.8370   10.5370 C.3    79  ASP79       0.1436
    131  CG        17.8180    4.6070    9.8060 C.2    79  ASP79       0.3671
    132  OD1       18.5200    4.2550    8.8480 O.co2  79  ASP79      -0.2456
    133  OD2       16.7840    3.9750   10.2170 O.co2  79  ASP79      -0.2456
    134  N         17.2160    0.9770   10.3830 N.3    82  SER82      -0.1217
    135  CA        18.1910    0.2180    9.5440 C.3    82  SER82       0.1889
    136  C         19.2210   -0.5490   10.3430 C.2    82  SER82       0.2288
    137  O         19.4690   -1.7330   10.1040 O.2    82  SER82      -0.2866
    138  CB        18.9430    1.1590    8.6210 C.3    82  SER82       0.2089
    139  OG        18.0320    2.0780    8.0620 O.3    82  SER82      -0.2183
    140  N         19.5930   -4.5540    9.9060 N.3    86  GLU86      -0.1245
    141  CA        20.8060   -5.1530    9.3440 C.3    86  GLU86       0.1567
    142  C         21.6630   -5.8250   10.3790 C.2    86  GLU86       0.2260
    143  O         22.5520   -6.6060   10.0350 O.2    86  GLU86      -0.2867
    144  CB        21.6140   -4.1160    8.5760 C.3    86  GLU86       0.0388
    145  CG        20.9500   -3.7450    7.2450 C.3    86  GLU86       0.1160
    146  CD        21.2180   -2.3130    6.8010 C.2    86  GLU86       0.3649
    147  OE1       22.2280   -1.7380    7.2450 O.co2  86  GLU86      -0.2457
    148  OE2       20.4260   -1.7600    6.0010 O.co2  86  GLU86      -0.2457
    149  N         12.9780    5.6490   13.0600 N.3   129  ARG129     -0.1231
    150  CA        13.4710    6.3450   11.8580 C.3   129  ARG129      0.1694
    151  C         14.0770    7.7410   12.1920 C.2   129  ARG129      0.2592
    152  O         14.9360    8.2300   11.4350 O.2   129  ARG129     -0.2718
    153  CB        12.3570    6.4890   10.8010 C.3   129  ARG129      0.0321
    154  CG        11.2360    7.4600   11.1780 C.3   129  ARG129      0.0489
    155  CD         9.9790    7.2510   10.3430 C.3   129  ARG129      0.2205
    156  NE         8.7920    7.1770   11.2110 N.pl3 129  ARG129     -0.0865
    157  CZ         8.1560    8.2300   11.7100 C.cat 129  ARG129      0.5346
    158  NH1        8.5650    9.4490   11.3900 N.pl3 129  ARG129      0.1354
    159  NH2        7.1050    8.0740   12.5240 N.pl3 129  ARG129      0.1354
    160  N         13.6420    8.3770   13.2910 N.am  130  ASN130     -0.1974
    161  CA        14.2270    9.6800   13.7070 C.3   130  ASN130      0.1688
    162  C         15.3820    9.6280   14.7150 C.2   130  ASN130      0.2292
    163  O         15.8350   10.6560   15.2550 O.2   130  ASN130     -0.2864
    164  CB        13.1180   10.5790   14.2040 C.3   130  ASN130      0.1181
    165  CG        12.2470   11.0820   13.0650 C.2   130  ASN130      0.2629
    166  OD1       12.7550   11.3290   11.9690 O.2   130  ASN130     -0.2716
    167  ND2       10.9270   11.2450   13.3230 N.am  130  ASN130     -0.0877
    168  N         19.3440    8.3670   15.5510 N.3   132  LEU132     -0.1245
    169  CA        20.5880    8.0280   14.8750 C.3   132  LEU132      0.1561
    170  C         21.6370    7.5030   15.8080 C.2   132  LEU132      0.2260
    171  O         21.6070    7.7240   17.0310 O.2   132  LEU132     -0.2867
    172  CB        21.1180    9.2540   14.1250 C.3   132  LEU132      0.0270
    173  CG        20.1300    9.9120   13.1790 C.3   132  LEU132      0.0019
    174  CD1       20.6060   11.2570   12.6230 C.3   132  LEU132      0.0001
    175  CD2       19.8470    8.9830   12.0120 C.3   132  LEU132      0.0001
    176  N         17.6190   12.7290   15.9990 N.3   145  GLY145     -0.1210
    177  CA        18.1420   13.3800   14.7930 C.3   145  GLY145      0.1956
    178  C         17.2510   14.3140   14.0160 C.2   145  GLY145      0.2611
    179  O         17.7130   15.0390   13.1100 O.2   145  GLY145     -0.2717
    180  N         15.9620   14.2760   14.2990 N.am  146  ASP146     -0.1973
    181  CA        15.0150   15.0650   13.5430 C.3   146  ASP146      0.1709
    182  C         13.9140   15.4300   14.4960 C.2   146  ASP146      0.2293
    183  O         13.5780   14.6620   15.4110 O.2   146  ASP146     -0.2864
    184  CB        14.4570   14.2490   12.3820 C.3   146  ASP146      0.1436
    185  CG        13.7780   15.1140   11.3020 C.2   146  ASP146      0.3671
    186  OD1       13.9860   14.8700   10.1000 O.co2 146  ASP146     -0.2456
    187  OD2       13.0580   16.0630   11.6520 O.co2 146  ASP146     -0.2456
@<TRIPOS>BOND
     1    32    30   ar
     2    32    33   ar
     3    30    29   ar
     4    33    31   ar
     5     2     1    1
     6     2     3    1
     7     2     5    1
     8     3     4    2
     9    29    31   ar
    10    29    28    1
    11     6     7    1
    12     6     5    1
    13     7     8    1
    14    28    25    1
    15     8     9    2
    16    12    13    1
    17    25    24    1
    18    25    26    1
    19    20    21    1
    20    20    14   am
    21    23    22    2
    22    21    22    1
    23    22    24   am
    24    46    45    2
    25    43    44    1
    26     9    10    1
    27     9    11    1
    28    53    52    2
    29    14    13    1
    30    14    15    2
    31    13    16    1
    32    45    44    1
    33    26    34   am
    34    26    27    2
    35    44    47    1
    36    50    51    1
    37    34    35    1
    38    52    51    1
    39    37    36    2
    40    16    17    1
    41    54    51    1
    42    54    55    1
    43    41    40    2
    44    55    56    1
    45    17    19    1
    46    17    18    1
    47    58    56   ar
    48    47    49    1
    49    47    48    1
    50    66    67    2
    51    66    65    1
    52    36    35    1
    53    36    38   am
    54    56    57   ar
    55    40    39    1
    56    65    64    1
    57    65    68    1
    58    38    39    1
    59    39    42    1
    60   148   146   ar
    61    69    68    1
    62    69    70    1
    63   146   147   ar
    64   146   145    1
    65    61    60    1
    66    61    62    2
    67   145   144    1
    68    60    59    1
    69    60    63    1
    70    70    71    1
    71    71    72    1
    72   139   138    1
    73   104   102    1
    74   103   102    1
    75   144   141    1
    76   138   135    1
    77   132   131   ar
    78   102   101    1
    79   141   140    1
    80   141   142    1
    81   135   136    1
    82   135   134    1
    83   131   133   ar
    84   131   130    1
    85   101    98    1
    86   143   142    2
    87    80    81    1
    88   186   185   ar
    89   137   136    2
    90   123   122    1
    91   123   124    1
    92   155   154    1
    93   155   156    1
    94   130   127    1
    95    83    82    2
    96   116   115    2
    97   126   124   am
    98   126   127    1
    99   153   154    1
   100   153   150    1
   101    86    85    1
   102   108   107    2
   103    98    97    1
   104    98    99    1
   105   122   120   am
   106    85    84    1
   107    85    87    1
   108   156   157    2
   109   114   115    1
   110   114   117    1
   111   114   113    1
   112   124   125    2
   113   185   187   ar
   114   185   184    1
   115    81    84    1
   116    81    82    1
   117   115   118   am
   118   158   157    1
   119   152   151    2
   120   127   128    1
   121    82    88   am
   122   120   121    2
   123   120   119    1
   124   105    99   am
   125   105   106    1
   126   157   159    1
   127    97    90   am
   128   107   113   am
   129   107   106    1
   130    99   100    2
   131   150   151    1
   132   150   149    1
   133   129   128    2
   134   166   165    2
   135   175   173    1
   136   151   160   am
   137    91    90    2
   138   118   119    1
   139    90    89    1
   140   184   181    1
   141   106   109    1
   142   174   173    1
   143    88    89    1
   144   165   167   am
   145   165   164    1
   146   109   110    1
   147   179   178    2
   148   173   172    1
   149    89    92    1
   150   160   161    1
   151   181   180    1
   152   181   182    1
   153   161   164    1
   154   161   162    1
   155   110   111    1
   156   178   180   am
   157   178   177    1
   158   172   169    1
   159   182   183    2
   160    92    93    1
   161    78    77    1
   162   162   163    2
   163   177   176    1
   164   169   168    1
   165   169   170    1
   166    93    94    1
   167   111   112    1
   168    79    77    1
   169   170   171    2
   170    77    74    1
   171    94    95   ar
   172    94    96   ar
   173    74    75    1
   174    74    73    1
   175    75    76    2
