@<TRIPOS>MOLECULE
tmp/5in4A03.pdb
 91 85 0 0 0
SMALL
GASTEIGER

@<TRIPOS>ATOM
      1  N        -53.6840   -6.3300   42.2920 N.3    96  HIS96      -0.1241
      2  CA       -54.4660   -6.1800   43.5110 C.3    96  HIS96       0.1621
      3  C        -55.4640   -7.3270   43.6420 C.2    96  HIS96       0.2264
      4  O        -56.2500   -7.5830   42.7190 O.2    96  HIS96      -0.2867
      5  CB       -55.1880   -4.8410   43.5270 C.3    96  HIS96       0.0745
      6  CG       -55.6190   -4.4390   44.8890 C.ar   96  HIS96       0.0817
      7  ND1      -56.7750   -4.9120   45.4740 N.ar   96  HIS96      -0.2268
      8  CD2      -55.0250   -3.6330   45.8040 C.ar   96  HIS96       0.1154
      9  CE1      -56.8860   -4.3980   46.6890 C.ar   96  HIS96       0.1986
     10  NE2      -55.8380   -3.6190   46.9100 N.ar   96  HIS96      -0.2212
     11  N        -59.3530   -6.3400   44.0660 N.3    99  ILE99      -0.1245
     12  CA       -59.8770   -5.8550   42.7910 C.3    99  ILE99       0.1561
     13  C        -60.0560   -7.0060   41.8130 C.2    99  ILE99       0.2260
     14  O        -60.9440   -6.9500   40.9590 O.2    99  ILE99      -0.2867
     15  CB       -58.9710   -4.7340   42.2430 C.3    99  ILE99       0.0252
     16  CG1      -59.1550   -3.5090   43.1550 C.3    99  ILE99       0.0019
     17  CG2      -59.3130   -4.3910   40.7790 C.3    99  ILE99       0.0019
     18  CD1      -58.1860   -2.3310   42.8830 C.3    99  ILE99       0.0001
     19  N        -51.3480    2.4710   47.1710 N.3   199  ALA199     -0.1231
     20  CA       -51.9670    3.0330   48.3700 C.3   199  ALA199      0.1694
     21  C        -53.0840    2.1620   48.9230 C.2   199  ALA199      0.2592
     22  O        -53.4660    2.3390   50.0830 O.2   199  ALA199     -0.2718
     23  CB       -52.5180    4.4300   48.0620 C.3   199  ALA199      0.0304
     24  N        -53.6270    1.2350   48.1330 N.am  200  ASN200     -0.1974
     25  CA       -54.7180    0.4050   48.6200 C.3   200  ASN200      0.1688
     26  C        -54.2920   -1.0060   48.9830 C.2   200  ASN200      0.2292
     27  O        -55.1520   -1.8390   49.2510 O.2   200  ASN200     -0.2864
     28  CB       -55.8650    0.3700   47.6060 C.3   200  ASN200      0.1181
     29  CG       -55.4250   -0.0710   46.2440 C.2   200  ASN200      0.2629
     30  OD1      -54.2750   -0.4580   46.0410 O.2   200  ASN200     -0.2716
     31  ND2      -56.3460   -0.0220   45.2840 N.am  200  ASN200     -0.0877
     32  N        -51.8700    1.4460   53.0260 N.3   205  LYS205     -0.1245
     33  CA       -53.0990    2.0420   53.5200 C.3   205  LYS205      0.1561
     34  C        -52.9540    2.4150   54.9860 C.2   205  LYS205      0.2260
     35  O        -53.3860    3.4890   55.4110 O.2   205  LYS205     -0.2867
     36  CB       -54.2580    1.0720   53.3180 C.3   205  LYS205      0.0271
     37  CG       -55.5710    1.5550   53.9330 C.3   205  LYS205      0.0035
     38  CD       -56.6980    0.6300   53.5270 C.3   205  LYS205      0.0206
     39  CE       -58.0010    1.1270   54.1090 C.3   205  LYS205      0.1093
     40  NZ       -59.1280    0.2450   53.6330 N.3   205  LYS205     -0.1314
     41  N        -50.3630    5.3740   55.3550 N.3   208  ARG208     -0.1231
     42  CA       -50.9640    6.6160   54.8960 C.3   208  ARG208      0.1694
     43  C        -51.9950    7.1090   55.8950 C.2   208  ARG208      0.2592
     44  O        -52.0270    8.2930   56.2180 O.2   208  ARG208     -0.2718
     45  CB       -51.6380    6.4280   53.5280 C.3   208  ARG208      0.0321
     46  CG       -50.7050    6.2420   52.3350 C.3   208  ARG208      0.0489
     47  CD       -51.5280    5.7850   51.1070 C.3   208  ARG208      0.2205
     48  NE       -52.6790    6.6660   50.9650 N.pl3 208  ARG208     -0.0865
     49  CZ       -52.6480    7.8050   50.2950 C.cat 208  ARG208      0.5346
     50  NH1      -51.5480    8.1710   49.6220 N.pl3 208  ARG208      0.1354
     51  NH2      -53.7280    8.5730   50.3010 N.pl3 208  ARG208      0.1354
     52  N        -52.8310    6.2040   56.4070 N.am  209  SER209     -0.1952
     53  CA       -53.9090    6.6220   57.2980 C.3   209  SER209      0.1924
     54  C        -53.3660    7.0870   58.6420 C.2   209  SER209      0.2314
     55  O        -53.8570    8.0710   59.2110 O.2   209  SER209     -0.2863
     56  CB       -54.8780    5.4680   57.4740 C.3   209  SER209      0.2116
     57  OG       -55.3610    5.1190   56.1810 O.3   209  SER209     -0.2180
     58  N        -52.1110   10.4940   58.1220 N.3   212  LYS212     -0.1245
     59  CA       -53.1660   11.4960   58.0500 C.3   212  LYS212      0.1561
     60  C        -53.7610   11.7580   59.4300 C.2   212  LYS212      0.2260
     61  O        -54.1120   12.8990   59.7540 O.2   212  LYS212     -0.2867
     62  CB       -54.2610   11.0760   57.0700 C.3   212  LYS212      0.0271
     63  CG       -53.8280   11.1210   55.6070 C.3   212  LYS212      0.0035
     64  CD       -55.0020   10.7970   54.6840 C.3   212  LYS212      0.0206
     65  CE       -54.5760   10.9430   53.2180 C.3   212  LYS212      0.1093
     66  NZ       -54.4290   12.3750   52.7470 N.3   212  LYS212     -0.1314
     67  N        -64.0360   -4.6220   52.8090 N.3   306  TYR306     -0.1241
     68  CA       -62.6370   -4.8870   52.5170 C.3   306  TYR306      0.1605
     69  C        -62.2620   -6.3500   52.6860 C.2   306  TYR306      0.2264
     70  O        -61.1220   -6.7230   52.3860 O.2   306  TYR306     -0.2867
     71  CB       -61.7240   -3.9990   53.3750 C.3   306  TYR306      0.0534
     72  CG       -61.8580   -2.5330   53.0180 C.ar  306  TYR306     -0.0201
     73  CD1      -61.4130   -2.0590   51.7910 C.ar  306  TYR306     -0.0009
     74  CD2      -62.4620   -1.6350   53.8890 C.ar  306  TYR306     -0.0009
     75  CE1      -61.5380   -0.7140   51.4410 C.ar  306  TYR306      0.0417
     76  CE2      -62.5980   -0.2960   53.5490 C.ar  306  TYR306      0.0417
     77  CZ       -62.1310    0.1550   52.3240 C.ar  306  TYR306      0.1957
     78  OH       -62.2570    1.4900   51.9820 O.3   306  TYR306     -0.2866
     79  N        -53.9770   16.3100   50.1710 N.3   354  ASN354     -0.1225
     80  CA       -54.8320   15.5460   49.2820 C.3   354  ASN354      0.1785
     81  C        -54.1220   14.3260   48.7180 C.2   354  ASN354      0.2597
     82  O        -54.6970   13.6180   47.8880 O.2   354  ASN354     -0.2718
     83  CB       -55.3480   16.4480   48.1530 C.3   354  ASN354      0.1169
     84  CG       -56.1380   17.6420   48.6840 C.2   354  ASN354      0.2627
     85  OD1      -56.9600   17.5090   49.5950 O.2   354  ASN354     -0.2716
     86  ND2      -55.8710   18.8140   48.1290 N.am  354  ASN354     -0.0877
     87  N        -52.9010   14.0500   49.1710 N.am  355  ALA355     -0.1979
     88  CA       -52.1190   12.9600   48.5930 C.3   355  ALA355      0.1597
     89  C        -52.6740   11.6150   49.0340 C.2   355  ALA355      0.2287
     90  O        -53.3780   11.5290   50.0640 O.2   355  ALA355     -0.2864
     91  CB       -50.6440   13.0870   48.9720 C.3   355  ALA355      0.0319
@<TRIPOS>BOND
     1    17    15    1
     2    14    13    2
     3    13    12    1
     4    15    12    1
     5    15    16    1
     6     1     2    1
     7     4     3    2
     8    12    11    1
     9    18    16    1
    10     2     5    1
    11     2     3    1
    12     5     6    1
    13     6     7   ar
    14     6     8   ar
    15    31    29   am
    16     7     9   ar
    17     8    10   ar
    18    30    29    2
    19    29    28    1
    20     9    10   ar
    21    19    20    1
    22    28    25    1
    23    82    81    2
    24    23    20    1
    25    86    84   am
    26    24    25    1
    27    24    21   am
    28    83    84    1
    29    83    80    1
    30    20    21    1
    31    88    91    1
    32    88    89    1
    33    88    87    1
    34    25    26    1
    35    84    85    2
    36    81    87   am
    37    81    80    1
    38    21    22    2
    39    26    27    2
    40    89    90    2
    41    80    79    1
    42    50    49    1
    43    49    51    1
    44    49    48    2
    45    48    47    1
    46    47    46    1
    47    75    73   ar
    48    75    77   ar
    49    73    72   ar
    50    78    77    1
    51    77    76   ar
    52    46    45    1
    53    70    69    2
    54    68    69    1
    55    68    67    1
    56    68    71    1
    57    66    65    1
    58    72    71    1
    59    72    74   ar
    60    32    33    1
    61    65    64    1
    62    36    33    1
    63    36    37    1
    64    33    34    1
    65    38    37    1
    66    38    39    1
    67    45    42    1
    68    76    74   ar
    69    40    39    1
    70    64    63    1
    71    42    41    1
    72    42    43    1
    73    34    35    2
    74    63    62    1
    75    43    44    2
    76    43    52   am
    77    57    56    1
    78    52    53    1
    79    62    59    1
    80    53    56    1
    81    53    54    1
    82    59    58    1
    83    59    60    1
    84    54    55    2
    85    60    61    2
