@<TRIPOS>MOLECULE
tmp/5in4A01.pdb
 224 216 0 0 0
SMALL
GASTEIGER

@<TRIPOS>ATOM
      1  N        -52.3020   -6.1750   39.9140 N.3    95  SER95      -0.1202
      2  CA       -51.6530   -6.8730   41.0140 C.3    95  SER95       0.2020
      3  C        -52.4630   -6.8600   42.3110 C.2    95  SER95       0.2619
      4  O        -51.9840   -7.3680   43.3360 O.2    95  SER95      -0.2717
      5  CB       -50.2710   -6.2650   41.2550 C.3    95  SER95       0.2103
      6  OG       -50.4190   -5.0050   41.8830 O.3    95  SER95      -0.2182
      7  N        -53.6840   -6.3300   42.2920 N.am   96  HIS96      -0.1961
      8  CA       -54.4660   -6.1800   43.5110 C.3    96  HIS96       0.1787
      9  C        -55.4640   -7.3270   43.6420 C.2    96  HIS96       0.2620
     10  O        -56.2500   -7.5830   42.7190 O.2    96  HIS96      -0.2715
     11  CB       -55.1880   -4.8410   43.5270 C.3    96  HIS96       0.0785
     12  CG       -55.6190   -4.4390   44.8890 C.ar   96  HIS96       0.0821
     13  ND1      -56.7750   -4.9120   45.4740 N.ar   96  HIS96      -0.2267
     14  CD2      -55.0250   -3.6330   45.8040 C.ar   96  HIS96       0.1154
     15  CE1      -56.8860   -4.3980   46.6890 C.ar   96  HIS96       0.1986
     16  NE2      -55.8380   -3.6190   46.9100 N.ar   96  HIS96      -0.2212
     17  N        -55.4070   -8.0350   44.7740 N.am   97  VAL97      -0.1963
     18  CA       -56.1970   -9.2570   44.9440 C.3    97  VAL97       0.1727
     19  C        -57.6800   -8.9420   45.0750 C.2    97  VAL97       0.2616
     20  O        -58.5250   -9.5960   44.4530 O.2    97  VAL97      -0.2715
     21  CB       -55.6980  -10.0600   46.1560 C.3    97  VAL97       0.0290
     22  CG1      -56.6830  -11.1780   46.4890 C.3    97  VAL97       0.0023
     23  CG2      -54.2980  -10.6460   45.8670 C.3    97  VAL97       0.0023
     24  N        -58.0300   -7.9640   45.9140 N.am   98  LYS98      -0.1977
     25  CA       -59.4480   -7.6730   46.0920 C.3    98  LYS98       0.1596
     26  C        -60.0660   -7.2030   44.7840 C.2    98  LYS98       0.2287
     27  O        -61.1640   -7.6350   44.4000 O.2    98  LYS98      -0.2864
     28  CB       -59.6330   -6.6280   47.1950 C.3    98  LYS98       0.0298
     29  CG       -61.0580   -6.1200   47.3580 C.3    98  LYS98       0.0038
     30  CD       -62.0090   -7.1930   47.8510 C.3    98  LYS98       0.0206
     31  CE       -63.3300   -6.5310   48.2630 C.3    98  LYS98       0.1093
     32  NZ       -64.4520   -7.4920   48.4280 N.3    98  LYS98      -0.1314
     33  N        -49.2210  -15.5310   46.7910 N.3   140  GLU140     -0.1245
     34  CA       -50.6580  -15.7680   46.6620 C.3   140  GLU140      0.1567
     35  C        -50.9450  -17.1290   46.0470 C.2   140  GLU140      0.2260
     36  O        -52.0410  -17.6570   46.2300 O.2   140  GLU140     -0.2867
     37  CB       -51.3260  -14.6730   45.8250 C.3   140  GLU140      0.0388
     38  CG       -51.4000  -13.2970   46.5000 C.3   140  GLU140      0.1160
     39  CD       -52.1170  -13.3270   47.8500 C.2   140  GLU140      0.3649
     40  OE1      -51.4680  -13.0280   48.8770 O.co2 140  GLU140     -0.2457
     41  OE2      -53.3280  -13.6420   47.8970 O.co2 140  GLU140     -0.2457
     42  N        -56.8450  -13.4380   40.9190 N.3   162  TYR162     -0.1241
     43  CA       -55.4460  -13.0670   40.7590 C.3   162  TYR162      0.1605
     44  C        -54.5460  -14.2780   40.9200 C.2   162  TYR162      0.2264
     45  O        -53.6510  -14.5130   40.1010 O.2   162  TYR162     -0.2867
     46  CB       -55.0790  -11.9930   41.7710 C.3   162  TYR162      0.0534
     47  CG       -53.6040  -11.7310   41.9050 C.ar  162  TYR162     -0.0201
     48  CD1      -52.9470  -10.8940   41.0170 C.ar  162  TYR162     -0.0009
     49  CD2      -52.8670  -12.3150   42.9490 C.ar  162  TYR162     -0.0009
     50  CE1      -51.5950  -10.6320   41.1470 C.ar  162  TYR162      0.0417
     51  CE2      -51.5150  -12.0510   43.1070 C.ar  162  TYR162      0.0417
     52  CZ       -50.8880  -11.2080   42.2000 C.ar  162  TYR162      0.1957
     53  OH       -49.5510  -10.9540   42.3450 O.3   162  TYR162     -0.2866
     54  N        -44.9110  -11.1000   50.1010 N.3   191  ASN191     -0.1240
     55  CA       -45.2960   -9.6960   50.0640 C.3   191  ASN191      0.1653
     56  C        -44.0930   -8.8000   50.3120 C.2   191  ASN191      0.2266
     57  O        -43.2850   -9.0280   51.2250 O.2   191  ASN191     -0.2867
     58  CB       -46.3510   -9.3820   51.1210 C.3   191  ASN191      0.1155
     59  CG       -47.6550  -10.0740   50.8780 C.2   191  ASN191      0.2627
     60  OD1      -47.7050  -11.2920   50.7700 O.2   191  ASN191     -0.2716
     61  ND2      -48.7350   -9.3040   50.8490 N.am  191  ASN191     -0.0877
     62  N        -43.0290   -4.4880   50.3620 N.3   193  GLU193     -0.1245
     63  CA       -43.6180   -3.1800   50.5380 C.3   193  GLU193      0.1567
     64  C        -42.5160   -2.1340   50.5020 C.2   193  GLU193      0.2260
     65  O        -41.3340   -2.4540   50.4480 O.2   193  GLU193     -0.2867
     66  CB       -44.3620   -3.0900   51.8710 C.3   193  GLU193      0.0388
     67  CG       -44.9570   -4.4230   52.3330 C.3   193  GLU193      0.1160
     68  CD       -46.1860   -4.8510   51.5230 C.2   193  GLU193      0.3649
     69  OE1      -46.2580   -6.0120   51.0830 O.co2 193  GLU193     -0.2457
     70  OE2      -47.1170   -4.0550   51.3280 O.co2 193  GLU193     -0.2457
     71  N        -45.2370    1.6010   47.4990 N.3   197  ARG197     -0.1245
     72  CA       -46.3210    0.6250   47.4290 C.3   197  ARG197      0.1563
     73  C        -47.6490    1.2810   47.0610 C.2   197  ARG197      0.2260
     74  O        -47.9700    2.3710   47.5310 O.2   197  ARG197     -0.2867
     75  CB       -46.4300   -0.0570   48.8030 C.3   197  ARG197      0.0307
     76  CG       -47.4920   -1.1620   48.9270 C.3   197  ARG197      0.0489
     77  CD       -47.1440   -2.3330   48.0450 C.3   197  ARG197      0.2205
     78  NE       -47.5900   -3.6070   48.6080 N.pl3 197  ARG197     -0.0865
     79  CZ       -48.0310   -4.6170   47.8790 C.cat 197  ARG197      0.5346
     80  NH1      -48.1300   -4.4870   46.5620 N.pl3 197  ARG197      0.1354
     81  NH2      -48.3870   -5.7490   48.4710 N.pl3 197  ARG197      0.1354
     82  N        -53.6270    1.2350   48.1330 N.3   200  ASN200     -0.1225
     83  CA       -54.7180    0.4050   48.6200 C.3   200  ASN200      0.1785
     84  C        -54.2920   -1.0060   48.9830 C.2   200  ASN200      0.2597
     85  O        -55.1520   -1.8390   49.2510 O.2   200  ASN200     -0.2718
     86  CB       -55.8650    0.3700   47.6060 C.3   200  ASN200      0.1169
     87  CG       -55.4250   -0.0710   46.2440 C.2   200  ASN200      0.2627
     88  OD1      -54.2750   -0.4580   46.0410 O.2   200  ASN200     -0.2716
     89  ND2      -56.3460   -0.0220   45.2840 N.am  200  ASN200     -0.0877
     90  N        -52.9970   -1.2910   49.0250 N.am  201  PHE201     -0.1962
     91  CA       -52.5100   -2.4780   49.7010 C.3   201  PHE201      0.1771
     92  C        -52.4500   -2.1890   51.1920 C.2   201  PHE201      0.2619
     93  O        -52.4310   -1.0370   51.6020 O.2   201  PHE201     -0.2715
     94  CB       -51.1420   -2.8720   49.1490 C.3   201  PHE201      0.0574
     95  CG       -51.1980   -3.2970   47.6980 C.ar  201  PHE201     -0.0200
     96  CD1      -51.4950   -4.6090   47.3630 C.ar  201  PHE201     -0.0042
     97  CD2      -50.9790   -2.3740   46.6920 C.ar  201  PHE201     -0.0042
     98  CE1      -51.5600   -5.0030   46.0320 C.ar  201  PHE201     -0.0003
     99  CE2      -51.0330   -2.7630   45.3380 C.ar  201  PHE201     -0.0003
    100  CZ       -51.3330   -4.0660   45.0240 C.ar  201  PHE201     -0.0000
    101  N        -52.4830   -3.2340   52.0130 N.am  202  VAL202     -0.1963
    102  CA       -52.8600   -2.9920   53.4110 C.3   202  VAL202      0.1727
    103  C        -51.7940   -2.1790   54.1420 C.2   202  VAL202      0.2616
    104  O        -52.1230   -1.2800   54.9290 O.2   202  VAL202     -0.2715
    105  CB       -53.1720   -4.3090   54.1480 C.3   202  VAL202      0.0290
    106  CG1      -51.9020   -5.0720   54.5430 C.3   202  VAL202      0.0023
    107  CG2      -54.0000   -4.0060   55.3840 C.3   202  VAL202      0.0023
    108  N        -50.5130   -2.4620   53.8850 N.am  203  THR203     -0.1951
    109  CA       -49.4250   -1.7920   54.6030 C.3   203  THR203      0.1897
    110  C        -49.4110   -0.3030   54.3000 C.2   203  THR203      0.2313
    111  O        -49.2870    0.5370   55.1980 O.2   203  THR203     -0.2863
    112  CB       -48.0720   -2.3960   54.2100 C.3   203  THR203      0.1794
    113  OG1      -47.9290   -2.3080   52.7890 O.3   203  THR203     -0.2208
    114  CG2      -47.9820   -3.8700   54.6380 C.3   203  THR203      0.0378
    115  N        -51.8700    1.4460   53.0260 N.3   205  LYS205     -0.1245
    116  CA       -53.0990    2.0420   53.5200 C.3   205  LYS205      0.1561
    117  C        -52.9540    2.4150   54.9860 C.2   205  LYS205      0.2260
    118  O        -53.3860    3.4890   55.4110 O.2   205  LYS205     -0.2867
    119  CB       -54.2580    1.0720   53.3180 C.3   205  LYS205      0.0271
    120  CG       -55.5710    1.5550   53.9330 C.3   205  LYS205      0.0035
    121  CD       -56.6980    0.6300   53.5270 C.3   205  LYS205      0.0206
    122  CE       -58.0010    1.1270   54.1090 C.3   205  LYS205      0.1093
    123  NZ       -59.1280    0.2450   53.6330 N.3   205  LYS205     -0.1314
    124  N        -60.4010   -1.0470   58.0210 N.3   223  LEU223     -0.1231
    125  CA       -59.6900   -2.1850   57.4740 C.3   223  LEU223      0.1693
    126  C        -60.6880   -3.3080   57.2830 C.2   223  LEU223      0.2593
    127  O        -61.8560   -3.1790   57.6270 O.2   223  LEU223     -0.2718
    128  CB       -58.5600   -2.6180   58.4070 C.3   223  LEU223      0.0284
    129  CG       -57.4140   -1.6060   58.4040 C.3   223  LEU223      0.0019
    130  CD1      -56.4200   -1.8800   59.5260 C.3   223  LEU223      0.0001
    131  CD2      -56.7160   -1.5830   57.0310 C.3   223  LEU223      0.0001
    132  N        -60.2130   -4.4010   56.7080 N.am  224  GLY224     -0.1942
    133  CA       -60.9880   -5.6230   56.6400 C.3   224  GLY224      0.2014
    134  C        -60.5270   -6.5860   57.7070 C.2   224  GLY224      0.2638
    135  O        -60.7720   -6.3730   58.8990 O.2   224  GLY224     -0.2714
    136  N        -59.8040   -7.6240   57.3010 N.am  225  ASN225     -0.1972
    137  CA       -59.4430   -8.7330   58.1770 C.3   225  ASN225      0.1688
    138  C        -58.2020   -8.3900   58.9910 C.2   225  ASN225      0.2292
    139  O        -57.0750   -8.4640   58.4990 O.2   225  ASN225     -0.2864
    140  CB       -59.2360   -9.9840   57.3300 C.3   225  ASN225      0.1181
    141  CG       -58.8240  -11.1790   58.1490 C.2   225  ASN225      0.2629
    142  OD1      -58.9480  -11.1990   59.3760 O.2   225  ASN225     -0.2716
    143  ND2      -58.3130  -12.1750   57.4760 N.am  225  ASN225     -0.0877
    144  N        -55.2820  -11.3320   59.4190 N.3   228  ALA228     -0.1245
    145  CA       -54.4490  -11.8720   58.3540 C.3   228  ALA228      0.1562
    146  C        -52.9820  -11.7570   58.7370 C.2   228  ALA228      0.2260
    147  O        -52.5520  -10.7440   59.2960 O.2   228  ALA228     -0.2867
    148  CB       -54.7050  -11.1140   57.0520 C.3   228  ALA228      0.0290
    149  N        -48.8800  -12.1730   57.5290 N.3   230  ARG230     -0.1245
    150  CA       -48.1000  -12.0260   56.3120 C.3   230  ARG230      0.1563
    151  C        -46.6110  -12.0190   56.6230 C.2   230  ARG230      0.2260
    152  O        -46.1660  -11.5860   57.6860 O.2   230  ARG230     -0.2867
    153  CB       -48.4640  -10.7250   55.5430 C.3   230  ARG230      0.0307
    154  CG       -49.8430  -10.6950   54.8690 C.3   230  ARG230      0.0489
    155  CD       -49.9230  -11.7120   53.7760 C.3   230  ARG230      0.2205
    156  NE       -51.1970  -11.7120   53.0570 N.pl3 230  ARG230     -0.0865
    157  CZ       -52.2600  -12.4320   53.4130 C.cat 230  ARG230      0.5346
    158  NH1      -53.3600  -12.3740   52.6790 N.pl3 230  ARG230      0.1354
    159  NH2      -52.2320  -13.2000   54.5030 N.pl3 230  ARG230      0.1354
    160  N        -43.6600   -9.9790   55.4130 N.3   232  TRP232     -0.1241
    161  CA       -43.4770   -8.6840   54.7520 C.3   232  TRP232      0.1605
    162  C        -42.0000   -8.3060   54.6650 C.2   232  TRP232      0.2264
    163  O        -41.3200   -8.1770   55.6990 O.2   232  TRP232     -0.2867
    164  CB       -44.2380   -7.5750   55.4780 C.3   232  TRP232      0.0550
    165  CG       -45.7280   -7.4910   55.2230 C.ar  232  TRP232      0.0003
    166  CD1      -46.3700   -7.3160   54.0050 C.ar  232  TRP232      0.0946
    167  CD2      -46.7650   -7.5050   56.2170 C.ar  232  TRP232      0.0152
    168  NE1      -47.7270   -7.2390   54.2020 N.ar  232  TRP232     -0.2442
    169  CE2      -47.9930   -7.3720   55.5440 C.ar  232  TRP232      0.0810
    170  CE3      -46.7680   -7.6540   57.6140 C.ar  232  TRP232      0.0012
    171  CZ2      -49.2110   -7.3510   56.2140 C.ar  232  TRP232      0.0191
    172  CZ3      -47.9840   -7.6460   58.2820 C.ar  232  TRP232      0.0001
    173  CH2      -49.1890   -7.4860   57.5810 C.ar  232  TRP232      0.0015
    174  N        -51.8480   -8.1410   60.4020 N.3   264  VAL264     -0.1245
    175  CA       -52.2810   -6.7920   60.0660 C.3   264  VAL264      0.1561
    176  C        -52.4450   -5.9770   61.3380 C.2   264  VAL264      0.2260
    177  O        -52.0660   -4.8010   61.3990 O.2   264  VAL264     -0.2867
    178  CB       -53.5860   -6.8480   59.2720 C.3   264  VAL264      0.0252
    179  CG1      -54.2110   -5.4460   59.1360 C.3   264  VAL264      0.0019
    180  CG2      -53.3580   -7.5340   57.9190 C.3   264  VAL264      0.0019
    181  N        -64.0360   -4.6220   52.8090 N.3   306  TYR306     -0.1227
    182  CA       -62.6370   -4.8870   52.5170 C.3   306  TYR306      0.1736
    183  C        -62.2620   -6.3500   52.6860 C.2   306  TYR306      0.2595
    184  O        -61.1220   -6.7230   52.3860 O.2   306  TYR306     -0.2718
    185  CB       -61.7240   -3.9990   53.3750 C.3   306  TYR306      0.0548
    186  CG       -61.8580   -2.5330   53.0180 C.ar  306  TYR306     -0.0200
    187  CD1      -61.4130   -2.0590   51.7910 C.ar  306  TYR306     -0.0009
    188  CD2      -62.4620   -1.6350   53.8890 C.ar  306  TYR306     -0.0009
    189  CE1      -61.5380   -0.7140   51.4410 C.ar  306  TYR306      0.0417
    190  CE2      -62.5980   -0.2960   53.5490 C.ar  306  TYR306      0.0417
    191  CZ       -62.1310    0.1550   52.3240 C.ar  306  TYR306      0.1957
    192  OH       -62.2570    1.4900   51.9820 O.3   306  TYR306     -0.2866
    193  N        -63.1800   -7.1930   53.1490 N.am  307  TYR307     -0.1962
    194  CA       -62.8810   -8.6090   53.2220 C.3   307  TYR307      0.1771
    195  C        -62.8160   -9.1930   51.8220 C.2   307  TYR307      0.2619
    196  O        -63.4260   -8.6790   50.8900 O.2   307  TYR307     -0.2715
    197  CB       -63.9430   -9.3390   54.0390 C.3   307  TYR307      0.0574
    198  CG       -63.6610   -9.3700   55.5280 C.ar  307  TYR307     -0.0198
    199  CD1      -63.7780   -8.2220   56.3060 C.ar  307  TYR307     -0.0009
    200  CD2      -63.2730  -10.5540   56.1580 C.ar  307  TYR307     -0.0009
    201  CE1      -63.5280   -8.2510   57.6710 C.ar  307  TYR307      0.0417
    202  CE2      -63.0170  -10.5920   57.5250 C.ar  307  TYR307      0.0417
    203  CZ       -63.1470   -9.4390   58.2750 C.ar  307  TYR307      0.1957
    204  OH       -62.8930   -9.4800   59.6330 O.3   307  TYR307     -0.2866
    205  N        -62.0230  -10.2530   51.6790 N.am  308  ARG308     -0.1977
    206  CA       -62.0680  -11.0060   50.4380 C.3   308  ARG308      0.1597
    207  C        -62.9970  -12.1950   50.6030 C.2   308  ARG308      0.2287
    208  O        -63.0690  -12.7780   51.6850 O.2   308  ARG308     -0.2864
    209  CB       -60.6780  -11.5190   50.0390 C.3   308  ARG308      0.0334
    210  CG       -59.7450  -10.4100   49.4760 C.3   308  ARG308      0.0492
    211  CD       -59.0280   -9.7040   50.6230 C.3   308  ARG308      0.2205
    212  NE       -58.3340   -8.4860   50.2090 N.pl3 308  ARG308     -0.0865
    213  CZ       -57.0630   -8.3930   49.8400 C.cat 308  ARG308      0.5346
    214  NH1      -56.5860   -7.1970   49.5110 N.pl3 308  ARG308      0.1354
    215  NH2      -56.2630   -9.4600   49.7880 N.pl3 308  ARG308      0.1354
    216  N        -60.3490  -15.6430   51.7850 N.3   311  GLU311     -0.1245
    217  CA       -59.1850  -15.0100   52.3620 C.3   311  GLU311      0.1567
    218  C        -57.9870  -15.9450   52.3070 C.2   311  GLU311      0.2260
    219  O        -58.1290  -17.1700   52.2780 O.2   311  GLU311     -0.2867
    220  CB       -59.4850  -14.6170   53.8100 C.3   311  GLU311      0.0388
    221  CG       -58.3150  -14.0530   54.5540 C.3   311  GLU311      0.1160
    222  CD       -57.8600  -12.7270   53.9940 C.2   311  GLU311      0.3649
    223  OE1      -57.0620  -12.7030   53.0070 O.co2 311  GLU311     -0.2457
    224  OE2      -58.3200  -11.7140   54.5560 O.co2 311  GLU311     -0.2457
@<TRIPOS>BOND
     1     1     2    1
     2    45    44    2
     3    43    42    1
     4    43    44    1
     5    43    46    1
     6     2     5    1
     7     2     3    1
     8    48    50   ar
     9    48    47   ar
    10    50    52   ar
    11     5     6    1
    12    46    47    1
    13    47    49   ar
    14    52    53    1
    15    52    51   ar
    16     7     3   am
    17     7     8    1
    18     3     4    2
    19    10     9    2
    20    49    51   ar
    21     8    11    1
    22     8     9    1
    23    11    12    1
    24     9    17   am
    25    27    26    2
    26    20    19    2
    27    17    18    1
    28    26    25    1
    29    12    13   ar
    30    12    14   ar
    31    18    19    1
    32    18    21    1
    33   100    99   ar
    34   100    98   ar
    35    19    24   am
    36    89    87   am
    37    99    97   ar
    38    13    15   ar
    39    14    16   ar
    40    37    38    1
    41    37    34    1
    42    23    21    1
    43    24    25    1
    44    98    96   ar
    45    88    87    2
    46    35    36    2
    47    35    34    1
    48    25    28    1
    49    21    22    1
    50    87    86    1
    51    38    39    1
    52    80    79    1
    53    34    33    1
    54    15    16   ar
    55    97    95   ar
    56    73    72    1
    57    73    74    2
    58    28    29    1
    59    29    30    1
    60    96    95   ar
    61    72    71    1
    62    72    75    1
    63    86    83    1
    64    95    94    1
    65    39    41   ar
    66    39    40   ar
    67    30    31    1
    68    79    81    1
    69    79    78    2
    70    77    78    1
    71    77    76    1
    72    82    83    1
    73    31    32    1
    74    83    84    1
    75    75    76    1
    76    84    90   am
    77    84    85    2
    78    90    91    1
    79    94    91    1
    80   210   209    1
    81   210   211    1
    82   214   213    1
    83    91    92    1
    84   215   213    1
    85   213   212    2
    86   209   206    1
    87    55    54    1
    88    55    56    1
    89    55    58    1
    90   212   211    1
    91    56    57    2
    92    62    63    1
    93   206   207    1
    94   206   205    1
    95    65    64    2
    96    64    63    1
    97    63    66    1
    98   207   208    2
    99    60    59    2
   100    61    59   am
   101    59    58    1
   102   196   195    2
   103    69    68   ar
   104    92    93    2
   105    92   101   am
   106    70    68   ar
   107   189   187   ar
   108   189   191   ar
   109    68    67    1
   110   205   195   am
   111   216   217    1
   112   187   186   ar
   113   195   194    1
   114    66    67    1
   115   192   191    1
   116   101   102    1
   117   219   218    2
   118   218   217    1
   119   191   190   ar
   120   217   220    1
   121   184   183    2
   122   182   183    1
   123   182   181    1
   124   182   185    1
   125   158   157    1
   126   183   193   am
   127   113   112    1
   128   223   222   ar
   129   186   185    1
   130   186   188   ar
   131   115   116    1
   132   156   157    2
   133   156   155    1
   134   193   194    1
   135   194   197    1
   136   119   116    1
   137   119   120    1
   138   102   103    1
   139   102   105    1
   140   157   159    1
   141   116   117    1
   142   121   120    1
   143   121   122    1
   144   190   188   ar
   145   123   122    1
   146   155   154    1
   147   220   221    1
   148   108   103   am
   149   108   109    1
   150   222   221    1
   151   222   224   ar
   152   166   168   ar
   153   166   165   ar
   154   197   198    1
   155   103   104    2
   156   105   106    1
   157   105   107    1
   158   168   169   ar
   159   112   109    1
   160   112   114    1
   161   110   109    1
   162   110   111    2
   163   162   161    1
   164   162   163    2
   165   161   160    1
   166   161   164    1
   167   154   153    1
   168   117   118    2
   169   165   164    1
   170   165   167   ar
   171   198   200   ar
   172   198   199   ar
   173   153   150    1
   174   169   171   ar
   175   169   167   ar
   176   200   202   ar
   177   171   173   ar
   178   167   170   ar
   179   199   201   ar
   180   150   151    1
   181   150   149    1
   182   151   152    2
   183   133   132    1
   184   133   134    1
   185   132   126   am
   186   131   129    1
   187   148   145    1
   188   126   125    1
   189   126   127    2
   190   136   134   am
   191   136   137    1
   192   140   141    1
   193   140   137    1
   194   125   124    1
   195   125   128    1
   196   143   141   am
   197   202   203   ar
   198   173   172   ar
   199   170   172   ar
   200   201   203   ar
   201   134   135    2
   202   180   178    1
   203   141   142    2
   204   137   138    1
   205   203   204    1
   206   145   146    1
   207   145   144    1
   208   129   128    1
   209   129   130    1
   210   139   138    2
   211   146   147    2
   212   179   178    1
   213   178   175    1
   214   175   174    1
   215   175   176    1
   216   176   177    2
