@<TRIPOS>MOLECULE
tmp/5in4A02.pdb
 109 106 0 0 0
SMALL
GASTEIGER

@<TRIPOS>ATOM
      1  N        -44.7750    1.0020   29.0670 N.3    37  VAL37      -0.1245
      2  CA       -45.6420    1.8820   29.8390 C.3    37  VAL37       0.1561
      3  C        -47.0140    1.8660   29.1830 C.2    37  VAL37       0.2260
      4  O        -47.1220    1.9890   27.9560 O.2    37  VAL37      -0.2867
      5  CB       -45.0580    3.3080   29.8890 C.3    37  VAL37       0.0252
      6  CG1      -46.0160    4.2900   30.5280 C.3    37  VAL37       0.0019
      7  CG2      -43.7490    3.2840   30.6400 C.3    37  VAL37       0.0019
      8  N        -49.8020   11.1610   32.8320 N.3    43  PHE43      -0.1241
      9  CA       -48.6280   10.2990   32.8790 C.3    43  PHE43       0.1605
     10  C        -48.6210    9.4750   34.1650 C.2    43  PHE43       0.2264
     11  O        -49.0120    9.9380   35.2380 O.2    43  PHE43      -0.2867
     12  CB       -47.3230   11.1000   32.6990 C.3    43  PHE43       0.0534
     13  CG       -46.9960   11.3710   31.2380 C.ar   43  PHE43      -0.0203
     14  CD1      -46.4650   10.3690   30.4160 C.ar   43  PHE43      -0.0042
     15  CD2      -47.2690   12.6090   30.6760 C.ar   43  PHE43      -0.0042
     16  CE1      -46.2100   10.6070   29.0680 C.ar   43  PHE43      -0.0003
     17  CE2      -47.0100   12.8470   29.3270 C.ar   43  PHE43      -0.0003
     18  CZ       -46.4890   11.8540   28.5240 C.ar   43  PHE43      -0.0000
     19  N        -45.8670    7.7970   35.1760 N.3    45  THR45      -0.1218
     20  CA       -44.4420    7.5670   35.3300 C.3    45  THR45       0.1862
     21  C        -43.8910    8.1920   36.6000 C.2    45  THR45       0.2287
     22  O        -42.6860    8.3340   36.7190 O.2    45  THR45      -0.2866
     23  CB       -43.7070    8.1460   34.1300 C.3    45  THR45       0.1770
     24  OG1      -44.2210    9.4680   33.9140 O.3    45  THR45      -0.2211
     25  CG2      -43.9240    7.2990   32.8880 C.3    45  THR45       0.0375
     26  N        -39.7940    9.0170   37.0450 N.3    49  GLU49      -0.1245
     27  CA       -39.4620   10.2250   36.2810 C.3    49  GLU49       0.1567
     28  C        -38.1000   10.7770   36.6850 C.2    49  GLU49       0.2260
     29  O        -37.4490   11.4650   35.8810 O.2    49  GLU49      -0.2867
     30  CB       -40.5570   11.2920   36.4480 C.3    49  GLU49       0.0388
     31  CG       -40.7740   11.7470   37.8790 C.3    49  GLU49       0.1160
     32  CD       -41.8370   12.8310   38.0200 C.2    49  GLU49       0.3649
     33  OE1      -42.8850   12.7410   37.3390 O.co2  49  GLU49      -0.2457
     34  OE2      -41.6170   13.7700   38.8250 O.co2  49  GLU49      -0.2457
     35  N        -35.2750    9.9790   34.1900 N.3    52  TYR52      -0.1241
     36  CA       -34.9980   10.6410   32.9250 C.3    52  TYR52       0.1605
     37  C        -33.6220   11.2880   33.0020 C.2    52  TYR52       0.2264
     38  O        -33.1600   11.6670   34.0770 O.2    52  TYR52      -0.2867
     39  CB       -36.0340   11.7250   32.6050 C.3    52  TYR52       0.0534
     40  CG       -37.3740   11.2050   32.1150 C.ar   52  TYR52      -0.0201
     41  CD1      -37.4670   10.4750   30.9400 C.ar   52  TYR52      -0.0009
     42  CD2      -38.5400   11.4760   32.8270 C.ar   52  TYR52      -0.0009
     43  CE1      -38.6880   10.0080   30.4810 C.ar   52  TYR52       0.0417
     44  CE2      -39.7700   11.0140   32.3780 C.ar   52  TYR52       0.0417
     45  CZ       -39.8320   10.2680   31.2150 C.ar   52  TYR52       0.1957
     46  OH       -41.0390    9.7860   30.7570 O.3    52  TYR52      -0.2866
     47  N        -36.8140   17.6180   33.7330 N.3    56  GLN56      -0.1231
     48  CA       -37.6660   18.7630   33.4300 C.3    56  GLN56       0.1698
     49  C        -38.2410   18.6880   32.0290 C.2    56  GLN56       0.2592
     50  O        -39.3510   19.1750   31.7920 O.2    56  GLN56      -0.2718
     51  CB       -36.8710   20.0610   33.5780 C.3    56  GLN56       0.0381
     52  CG       -36.2580   20.1940   34.9510 C.3    56  GLN56       0.0905
     53  CD       -35.6000   21.5420   35.1820 C.2    56  GLN56       0.2608
     54  OE1      -35.4860   22.3750   34.2680 O.2    56  GLN56      -0.2717
     55  NE2      -35.1720   21.7710   36.4120 N.am   56  GLN56      -0.0878
     56  N        -37.4820   18.1350   31.0880 N.am   57  ALA57      -0.1966
     57  CA       -37.9250   17.9920   29.7100 C.3    57  ALA57       0.1728
     58  C        -38.4560   16.5950   29.4130 C.2    57  ALA57       0.2616
     59  O        -38.9720   16.3670   28.3170 O.2    57  ALA57      -0.2715
     60  CB       -36.7710   18.3160   28.7550 C.3    57  ALA57       0.0334
     61  N        -38.3410   15.6710   30.3710 N.am   58  HIS58      -0.1973
     62  CA       -38.6640   14.2520   30.1820 C.3    58  HIS58       0.1656
     63  C        -37.9220   13.6670   28.9760 C.2    58  HIS58       0.2291
     64  O        -38.4870   13.0060   28.1010 O.2    58  HIS58      -0.2864
     65  CB       -40.1830   14.0850   30.1180 C.3    58  HIS58       0.0771
     66  CG       -40.8590   14.8240   31.2290 C.ar   58  HIS58       0.0820
     67  ND1      -41.4180   16.0740   31.0520 N.ar   58  HIS58      -0.2267
     68  CD2      -40.9190   14.5700   32.5590 C.ar   58  HIS58       0.1154
     69  CE1      -41.8600   16.5220   32.2150 C.ar   58  HIS58       0.1986
     70  NE2      -41.5670   15.6310   33.1470 N.ar   58  HIS58      -0.2212
     71  N        -35.0030   11.0970   27.6820 N.3    60  GLU60      -0.1245
     72  CA       -34.4560    9.8320   28.1460 C.3    60  GLU60       0.1567
     73  C        -32.9510    9.7300   27.9600 C.2    60  GLU60       0.2260
     74  O        -32.3810   10.2150   26.9760 O.2    60  GLU60      -0.2867
     75  CB       -35.1080    8.6770   27.4050 C.3    60  GLU60       0.0388
     76  CG       -36.5690    8.5450   27.6830 C.3    60  GLU60       0.1160
     77  CD       -37.2370    7.5570   26.7500 C.2    60  GLU60       0.3649
     78  OE1      -36.6080    7.1290   25.7560 O.co2  60  GLU60      -0.2457
     79  OE2      -38.4070    7.2060   27.0040 O.co2  60  GLU60      -0.2457
     80  N        -38.4660    4.3450   27.4910 N.3    65  LEU65      -0.1231
     81  CA       -39.8270    3.8810   27.7210 C.3    65  LEU65       0.1693
     82  C        -40.5660    3.7180   26.3990 C.2    65  LEU65       0.2592
     83  O        -40.3240    4.4500   25.4280 O.2    65  LEU65      -0.2718
     84  CB       -40.5630    4.8550   28.6450 C.3    65  LEU65       0.0284
     85  CG       -39.8430    5.0480   29.9930 C.3    65  LEU65       0.0019
     86  CD1      -40.5170    6.1160   30.8500 C.3    65  LEU65       0.0001
     87  CD2      -39.7250    3.6930   30.7620 C.3    65  LEU65       0.0001
     88  N        -41.4880    2.7540   26.3700 N.am   66  HIS66      -0.1962
     89  CA       -42.2160    2.4240   25.1530 C.3    66  HIS66       0.1787
     90  C        -43.6710    2.2060   25.5080 C.2    66  HIS66       0.2620
     91  O        -43.9590    1.4750   26.4590 O.2    66  HIS66      -0.2715
     92  CB       -41.7030    1.1430   24.5120 C.3    66  HIS66       0.0785
     93  CG       -40.2270    1.1110   24.3140 C.ar   66  HIS66       0.0821
     94  ND1      -39.6440    1.3790   23.0940 N.ar   66  HIS66      -0.2267
     95  CD2      -39.2180    0.7960   25.1590 C.ar   66  HIS66       0.1154
     96  CE1      -38.3340    1.2440   23.2010 C.ar   66  HIS66       0.1986
     97  NE2      -38.0500    0.8890   24.4430 N.ar   66  HIS66      -0.2212
     98  N        -44.5850    2.8160   24.7530 N.am   67  TYR67      -0.1974
     99  CA       -45.9920    2.5070   24.9900 C.3    67  TYR67       0.1639
    100  C        -46.2980    1.0660   24.5950 C.2    67  TYR67       0.2290
    101  O        -45.8970    0.5880   23.5260 O.2    67  TYR67      -0.2864
    102  CB       -46.9030    3.4700   24.2160 C.3    67  TYR67       0.0560
    103  CG       -46.9100    4.8740   24.7900 C.ar   67  TYR67      -0.0198
    104  CD1      -47.4820    5.1380   26.0370 C.ar   67  TYR67      -0.0009
    105  CD2      -46.3650    5.9390   24.0770 C.ar   67  TYR67      -0.0009
    106  CE1      -47.5050    6.4160   26.5650 C.ar   67  TYR67       0.0417
    107  CE2      -46.3850    7.2350   24.6060 C.ar   67  TYR67       0.0417
    108  CZ       -46.9430    7.4620   25.8390 C.ar   67  TYR67       0.1957
    109  OH       -46.9660    8.7380   26.3800 O.3    67  TYR67      -0.2866
@<TRIPOS>BOND
     1    94    96   ar
     2    94    93   ar
     3    96    97   ar
     4   101   100    2
     5   105   107   ar
     6   105   103   ar
     7   102   103    1
     8   102    99    1
     9    93    92    1
    10    93    95   ar
    11    97    95   ar
    12    92    89    1
    13   100    99    1
    14   107   108   ar
    15    98    99    1
    16    98    90   am
    17   103   104   ar
    18    89    90    1
    19    89    88    1
    20    83    82    2
    21    90    91    2
    22    78    77   ar
    23   108   109    1
    24   108   106   ar
    25   104   106   ar
    26    88    82   am
    27    82    81    1
    28    77    79   ar
    29    77    76    1
    30    74    73    2
    31    75    76    1
    32    75    72    1
    33    80    81    1
    34    71    72    1
    35    81    84    1
    36     4     3    2
    37    73    72    1
    38    64    63    2
    39    59    58    2
    40    18    16   ar
    41    18    17   ar
    42    84    85    1
    43    60    57    1
    44    63    62    1
    45     1     2    1
    46    16    14   ar
    47     3     2    1
    48    17    15   ar
    49    58    57    1
    50    58    61   am
    51    57    56    1
    52     2     5    1
    53     5     6    1
    54     5     7    1
    55    85    87    1
    56    85    86    1
    57    65    62    1
    58    65    66    1
    59    62    61    1
    60    14    13   ar
    61    43    41   ar
    62    43    45   ar
    63    15    13   ar
    64    46    45    1
    65    41    40   ar
    66    67    66   ar
    67    67    69   ar
    68    56    49   am
    69    45    44   ar
    70    66    68   ar
    71    13    12    1
    72    50    49    2
    73    49    48    1
    74    40    39    1
    75    40    42   ar
    76    69    70   ar
    77    44    42   ar
    78    68    70   ar
    79    39    36    1
    80    12     9    1
    81     8     9    1
    82     9    10    1
    83    25    23    1
    84    36    37    1
    85    36    35    1
    86    37    38    2
    87    48    51    1
    88    48    47    1
    89    51    52    1
    90    24    23    1
    91    23    20    1
    92    10    11    2
    93    54    53    2
    94    52    53    1
    95    19    20    1
    96    53    55   am
    97    20    21    1
    98    29    28    2
    99    27    30    1
   100    27    28    1
   101    27    26    1
   102    30    31    1
   103    21    22    2
   104    33    32   ar
   105    31    32    1
   106    32    34   ar
