@<TRIPOS>MOLECULE
tmp/5in9A01.pdb
 187 173 0 0 0
SMALL
GASTEIGER

@<TRIPOS>ATOM
      1  N         54.1280 -120.5370  117.9720 N.3     9  VAL9       -0.1245
      2  CA        53.6040 -120.9870  116.6890 C.3     9  VAL9        0.1561
      3  C         52.5850 -122.1160  116.9070 C.2     9  VAL9        0.2260
      4  O         51.5620 -122.2050  116.2060 O.2     9  VAL9       -0.2867
      5  CB        54.7510 -121.4300  115.7710 C.3     9  VAL9        0.0252
      6  CG1       54.2340 -121.9170  114.4030 C.3     9  VAL9        0.0019
      7  CG2       55.7360 -120.2810  115.6150 C.3     9  VAL9        0.0019
      8  N         49.6650 -120.1970  118.1180 N.3    12  MET12      -0.1245
      9  CA        49.0920 -119.5250  116.9640 C.3    12  MET12       0.1570
     10  C         48.2680 -120.5030  116.1330 C.2    12  MET12       0.2261
     11  O         47.1610 -120.1930  115.6940 O.2    12  MET12      -0.2867
     12  CB        50.1880 -118.8990  116.1200 C.3    12  MET12       0.0387
     13  CG        49.6680 -118.0360  114.9830 C.3    12  MET12       0.0595
     14  SD        50.9960 -117.0810  114.2320 S.3    12  MET12      -0.1393
     15  CE        51.8780 -118.3350  113.3040 C.3    12  MET12       0.0692
     16  N         46.4780 -118.2760  101.0000 N.3    31  LEU31      -0.1245
     17  CA        47.5060 -118.8970  100.1680 C.3    31  LEU31       0.1561
     18  C         47.6790 -118.0840   98.9040 C.2    31  LEU31       0.2260
     19  O         48.7970 -117.8910   98.4320 O.2    31  LEU31      -0.2867
     20  CB        47.1740 -120.3660   99.8130 C.3    31  LEU31       0.0270
     21  CG        47.1850 -121.3700  100.9680 C.3    31  LEU31       0.0019
     22  CD1       47.1050 -122.8210  100.4850 C.3    31  LEU31       0.0001
     23  CD2       48.3960 -121.1370  101.8650 C.3    31  LEU31       0.0001
     24  N         49.4790 -114.9110   99.8810 N.3    34  ASN34      -0.1225
     25  CA        50.8800 -115.1660  100.1770 C.3    34  ASN34       0.1785
     26  C         51.6810 -115.4430   98.9080 C.2    34  ASN34       0.2597
     27  O         52.8440 -115.0880   98.8260 O.2    34  ASN34      -0.2718
     28  CB        51.0150 -116.3310  101.1690 C.3    34  ASN34       0.1169
     29  CG        51.1150 -115.8600  102.6000 C.2    34  ASN34       0.2627
     30  OD1       51.1430 -114.6610  102.8710 O.2    34  ASN34      -0.2716
     31  ND2       51.1750 -116.7970  103.5240 N.am   34  ASN34      -0.0877
     32  N         51.0450 -116.0680   97.9230 N.am   35  ALA35      -0.1979
     33  CA        51.6750 -116.3500   96.6420 C.3    35  ALA35       0.1597
     34  C         51.9950 -115.0310   95.9420 C.2    35  ALA35       0.2287
     35  O         53.1130 -114.8130   95.4780 O.2    35  ALA35      -0.2864
     36  CB        50.7750 -117.2070   95.7890 C.3    35  ALA35       0.0319
     37  N         55.0810 -113.3080   97.3640 N.3    38  ALA38      -0.1245
     38  CA        56.3110 -113.9360   96.8910 C.3    38  ALA38       0.1562
     39  C         56.6770 -113.4380   95.4850 C.2    38  ALA38       0.2260
     40  O         57.8340 -113.1310   95.1950 O.2    38  ALA38      -0.2867
     41  CB        56.1610 -115.4840   96.9180 C.3    38  ALA38       0.0290
     42  N         58.0280 -110.0400   95.6710 N.3    41  LYS41      -0.1245
     43  CA        59.3820 -109.9180   96.1870 C.3    41  LYS41       0.1561
     44  C         60.3730 -110.1840   95.0870 C.2    41  LYS41       0.2260
     45  O         61.3790 -109.4880   94.9900 O.2    41  LYS41      -0.2867
     46  CB        59.6270 -110.8490   97.3840 C.3    41  LYS41       0.0271
     47  CG        58.5940 -110.6990   98.4890 C.3    41  LYS41       0.0035
     48  CD        58.8880 -111.5230   99.7530 C.3    41  LYS41       0.0206
     49  CE        57.5900 -111.7830  100.5410 C.3    41  LYS41       0.1093
     50  NZ        57.7610 -112.6430  101.7420 N.3    41  LYS41      -0.1314
     51  N         48.8720 -125.3130   95.4240 N.3    74  VAL74      -0.1245
     52  CA        48.9620 -123.8900   95.0940 C.3    74  VAL74       0.1561
     53  C         50.4090 -123.5190   94.8000 C.2    74  VAL74       0.2260
     54  O         51.2500 -123.5380   95.6850 O.2    74  VAL74      -0.2867
     55  CB        48.4080 -123.0180   96.2200 C.3    74  VAL74       0.0252
     56  CG1       48.6080 -121.5310   95.8910 C.3    74  VAL74       0.0019
     57  CG2       46.9260 -123.3280   96.4020 C.3    74  VAL74       0.0019
     58  N         53.3240 -120.9330   93.0990 N.3    76  ASP76      -0.1239
     59  CA        53.7320 -119.6210   92.6020 C.3    76  ASP76       0.1674
     60  C         55.1730 -119.6680   92.1150 C.2    76  ASP76       0.2266
     61  O         55.9760 -120.4960   92.5700 O.2    76  ASP76      -0.2867
     62  CB        53.5730 -118.5260   93.6750 C.3    76  ASP76       0.1410
     63  CG        54.4740 -118.7430   94.8780 C.2    76  ASP76       0.3668
     64  OD1       55.7010 -118.5300   94.7930 O.co2  76  ASP76      -0.2456
     65  OD2       53.9550 -119.1200   95.9330 O.co2  76  ASP76      -0.2456
     66  N         59.6480 -115.6550   94.6870 N.3    79  VAL79      -0.1231
     67  CA        61.0360 -115.6760   95.1180 C.3    79  VAL79       0.1692
     68  C         61.5030 -117.0570   95.6550 C.2    79  VAL79       0.2593
     69  O         62.6950 -117.3860   95.6090 O.2    79  VAL79      -0.2718
     70  CB        61.2400 -114.5700   96.1980 C.3    79  VAL79       0.0266
     71  CG1       60.3840 -114.8620   97.4420 C.3    79  VAL79       0.0020
     72  CG2       62.7060 -114.3800   96.5680 C.3    79  VAL79       0.0020
     73  N         60.5640 -117.8600   96.1570 N.am   80  GLY80      -0.1942
     74  CA        60.8810 -119.1570   96.7330 C.3    80  GLY80       0.2014
     75  C         61.5420 -119.0360   98.0920 C.2    80  GLY80       0.2638
     76  O         61.7450 -117.9310   98.6010 O.2    80  GLY80      -0.2714
     77  N         61.8970 -120.1710   98.6840 N.am   81  MET81      -0.1976
     78  CA        62.5420 -120.1620   99.9990 C.3    81  MET81       0.1605
     79  C         63.7350 -121.0870  100.0570 C.2    81  MET81       0.2287
     80  O         63.6820 -122.1700   99.5090 O.2    81  MET81      -0.2864
     81  CB        61.5560 -120.5610  101.0910 C.3    81  MET81       0.0413
     82  CG        60.8350 -119.3980  101.7070 C.3    81  MET81       0.0598
     83  SD        59.5350 -120.0040  102.7970 S.3    81  MET81      -0.1393
     84  CE        58.4940 -120.8010  101.5610 C.3    81  MET81       0.0692
     85  N         63.4930 -121.4650  109.4590 N.3    88  LYS88      -0.1231
     86  CA        63.2600 -120.2650  110.2730 C.3    88  LYS88       0.1693
     87  C         61.8450 -119.7000  110.1070 C.2    88  LYS88       0.2592
     88  O         61.1380 -119.4600  111.0960 O.2    88  LYS88      -0.2718
     89  CB        64.2940 -119.1770  109.9410 C.3    88  LYS88       0.0285
     90  CG        65.7310 -119.5210  110.3510 C.3    88  LYS88       0.0035
     91  CD        66.6740 -118.3440  110.1470 C.3    88  LYS88       0.0206
     92  CE        68.1360 -118.7300  110.3410 C.3    88  LYS88       0.1093
     93  NZ        68.5490 -118.6560  111.7670 N.3    88  LYS88      -0.1314
     94  N         61.4240 -119.5110  108.8610 N.am   89  ASN89      -0.1960
     95  CA        60.1890 -118.7890  108.5810 C.3    89  ASN89       0.1819
     96  C         58.9410 -119.6060  108.8110 C.2    89  ASN89       0.2621
     97  O         57.8560 -119.0530  108.9890 O.2    89  ASN89      -0.2715
     98  CB        60.1790 -118.2800  107.1390 C.3    89  ASN89       0.1195
     99  CG        61.2190 -117.1980  106.8850 C.2    89  ASN89       0.2630
    100  OD1       62.0390 -116.8870  107.7480 O.2    89  ASN89      -0.2716
    101  ND2       61.1890 -116.6250  105.6880 N.am   89  ASN89      -0.0877
    102  N         59.0820 -120.9250  108.7830 N.am   90  LEU90      -0.1977
    103  CA        57.9190 -121.7910  108.8810 C.3    90  LEU90       0.1596
    104  C         57.8630 -122.5920  110.1660 C.2    90  LEU90       0.2287
    105  O         57.2830 -123.6700  110.1850 O.2    90  LEU90      -0.2864
    106  CB        57.8700 -122.7580  107.7070 C.3    90  LEU90       0.0297
    107  CG        57.4210 -122.3120  106.3220 C.3    90  LEU90       0.0022
    108  CD1       57.1110 -123.5580  105.4910 C.3    90  LEU90       0.0001
    109  CD2       56.2300 -121.3350  106.3520 C.3    90  LEU90       0.0001
    110  N         61.1430 -119.9360  114.3260 N.3    93  ILE93      -0.1231
    111  CA        61.1090 -118.5770  114.8770 C.3    93  ILE93       0.1692
    112  C         59.7670 -117.9130  114.6080 C.2    93  ILE93       0.2592
    113  O         59.0710 -118.2580  113.6560 O.2    93  ILE93      -0.2718
    114  CB        62.2490 -117.6800  114.3020 C.3    93  ILE93       0.0266
    115  CG1       63.5790 -118.4400  114.2820 C.3    93  ILE93       0.0019
    116  CG2       62.3890 -116.3870  115.1100 C.3    93  ILE93       0.0020
    117  CD1       64.8070 -117.5650  114.2950 C.3    93  ILE93       0.0001
    118  N         59.3940 -116.9750  115.4640 N.am   94  ALA94      -0.1966
    119  CA        58.2060 -116.1750  115.2280 C.3    94  ALA94       0.1728
    120  C         58.6190 -114.7430  114.9080 C.2    94  ALA94       0.2616
    121  O         59.6870 -114.2960  115.3210 O.2    94  ALA94      -0.2715
    122  CB        57.2910 -116.2220  116.4320 C.3    94  ALA94       0.0334
    123  N         57.7880 -114.0340  114.1500 N.am   95  LYS95      -0.1977
    124  CA        58.0580 -112.6380  113.8220 C.3    95  LYS95       0.1596
    125  C         58.0150 -111.8320  115.0960 C.2    95  LYS95       0.2287
    126  O         57.3860 -112.2560  116.0640 O.2    95  LYS95      -0.2864
    127  CB        57.0250 -112.0750  112.8480 C.3    95  LYS95       0.0298
    128  CG        56.3230 -113.1050  112.0020 C.3    95  LYS95       0.0038
    129  CD        55.2460 -112.4740  111.1470 C.3    95  LYS95       0.0206
    130  CE        55.8590 -111.9300  109.8810 C.3    95  LYS95       0.1093
    131  NZ        55.2070 -112.5110  108.6760 N.3    95  LYS95      -0.1314
    132  N         54.7440 -111.3890  117.5080 N.3    98  THR98      -0.1218
    133  CA        53.9670 -112.6190  117.6510 C.3    98  THR98       0.1862
    134  C         53.5540 -112.8150  119.0800 C.2    98  THR98       0.2287
    135  O         52.3780 -113.0150  119.3730 O.2    98  THR98      -0.2866
    136  CB        54.7310 -113.9010  117.2500 C.3    98  THR98       0.1770
    137  OG1       55.0150 -113.8890  115.8470 O.3    98  THR98      -0.2211
    138  CG2       53.8590 -115.1230  117.5640 C.3    98  THR98       0.0375
    139  N         50.3840 -111.4310  108.5370 N.3   118  GLY118     -0.1210
    140  CA        51.0600 -112.2210  107.5260 C.3   118  GLY118      0.1956
    141  C         51.2590 -113.6590  107.9500 C.2   118  GLY118      0.2611
    142  O         52.2350 -114.2820  107.5610 O.2   118  GLY118     -0.2717
    143  N         50.3250 -114.1840  108.7390 N.am  119  VAL119     -0.1979
    144  CA        50.4540 -115.5300  109.2910 C.3   119  VAL119      0.1595
    145  C         49.4180 -116.5320  108.7500 C.2   119  VAL119      0.2287
    146  O         49.2200 -117.5980  109.3290 O.2   119  VAL119     -0.2864
    147  CB        50.3550 -115.4970  110.8390 C.3   119  VAL119      0.0276
    148  CG1       51.6560 -115.0060  111.4340 C.3   119  VAL119      0.0022
    149  CG2       49.1700 -114.6350  111.2950 C.3   119  VAL119      0.0022
    150  N         49.4380 -118.6780  106.4180 N.3   121  PHE121     -0.1227
    151  CA        49.9290 -119.9990  106.0090 C.3   121  PHE121      0.1736
    152  C         49.3530 -121.0700  106.9230 C.2   121  PHE121      0.2595
    153  O         48.9050 -122.1140  106.4670 O.2   121  PHE121     -0.2718
    154  CB        51.4640 -120.0430  106.0280 C.3   121  PHE121      0.0547
    155  CG        52.0490 -121.4310  105.8700 C.ar  121  PHE121     -0.0202
    156  CD1       52.0660 -122.0630  104.6360 C.ar  121  PHE121     -0.0042
    157  CD2       52.5940 -122.0980  106.9600 C.ar  121  PHE121     -0.0042
    158  CE1       52.6010 -123.3240  104.4930 C.ar  121  PHE121     -0.0003
    159  CE2       53.1230 -123.3700  106.8210 C.ar  121  PHE121     -0.0003
    160  CZ        53.1330 -123.9840  105.5850 C.ar  121  PHE121     -0.0000
    161  N         49.3200 -120.7700  108.2160 N.am  122  TYR122     -0.1976
    162  CA        48.8820 -121.7320  109.2220 C.3   122  TYR122      0.1639
    163  C         47.3910 -122.0650  109.1880 C.2   122  TYR122      0.2290
    164  O         46.9660 -123.0730  109.7490 O.2   122  TYR122     -0.2864
    165  CB        49.2980 -121.2170  110.5910 C.3   122  TYR122      0.0560
    166  CG        50.7950 -121.2260  110.6740 C.ar  122  TYR122     -0.0198
    167  CD1       51.4720 -122.3850  111.0160 C.ar  122  TYR122     -0.0009
    168  CD2       51.5420 -120.1000  110.3210 C.ar  122  TYR122     -0.0009
    169  CE1       52.8550 -122.4210  111.0460 C.ar  122  TYR122      0.0417
    170  CE2       52.9370 -120.1230  110.3530 C.ar  122  TYR122      0.0417
    171  CZ        53.5860 -121.2870  110.7160 C.ar  122  TYR122      0.1957
    172  OH        54.9650 -121.3280  110.7550 O.3   122  TYR122     -0.2866
    173  N         57.3670 -121.8140   94.7390 N.3   167  THR167     -0.1218
    174  CA        56.8080 -122.5860   95.8370 C.3   167  THR167      0.1862
    175  C         55.4750 -123.2560   95.5060 C.2   167  THR167      0.2287
    176  O         54.5630 -122.6290   94.9600 O.2   167  THR167     -0.2866
    177  CB        56.5910 -121.7160   97.0820 C.3   167  THR167      0.1770
    178  OG1       57.8430 -121.1870   97.5240 O.3   167  THR167     -0.2211
    179  CG2       55.9660 -122.5490   98.2070 C.3   167  THR167      0.0375
    180  N         52.5060 -125.2900   97.5730 N.3   169  ILE169     -0.1245
    181  CA        51.9080 -125.6940   98.8180 C.3   169  ILE169      0.1561
    182  C         50.9640 -126.8090   98.4600 C.2   169  ILE169      0.2260
    183  O         50.1000 -126.6370   97.6020 O.2   169  ILE169     -0.2867
    184  CB        51.1400 -124.5480   99.4940 C.3   169  ILE169      0.0252
    185  CG1       51.9930 -123.2810   99.5560 C.3   169  ILE169      0.0019
    186  CG2       50.6560 -124.9750  100.8800 C.3   169  ILE169      0.0019
    187  CD1       52.8530 -123.1950  100.7800 C.3   169  ILE169      0.0001
@<TRIPOS>BOND
     1    60    61    2
     2    60    59    1
     3    59    58    1
     4    59    62    1
     5    62    63    1
     6    66    67    1
     7   173   174    1
     8    64    63   ar
     9    53    52    1
    10    53    54    2
    11    63    65   ar
    12   176   175    2
    13    45    44    2
    14    44    43    1
    15    52    51    1
    16    52    55    1
    17    67    68    1
    18    67    70    1
    19    40    39    2
    20    35    34    2
    21    39    38    1
    22   175   174    1
    23    69    68    2
    24    68    73   am
    25    42    43    1
    26    36    33    1
    27   174   177    1
    28    56    55    1
    29    34    33    1
    30    73    74    1
    31    43    46    1
    32    70    72    1
    33    70    71    1
    34    55    57    1
    35    33    32    1
    36    74    75    1
    37    38    41    1
    38    38    37    1
    39   177   178    1
    40   177   179    1
    41    46    47    1
    42   180   181    1
    43   183   182    2
    44    32    26   am
    45    75    76    2
    46    75    77   am
    47    19    18    2
    48   182   181    1
    49    47    48    1
    50    77    78    1
    51   181   184    1
    52    27    26    2
    53    18    17    1
    54    26    25    1
    55   184   185    1
    56   184   186    1
    57    80    79    2
    58   185   187    1
    59    48    49    1
    60    20    17    1
    61    20    21    1
    62    24    25    1
    63    78    79    1
    64    78    81    1
    65    17    16    1
    66    25    28    1
    67    22    21    1
    68    49    50    1
    69    21    23    1
    70    81    82    1
    71    28    29    1
    72    84    83    1
    73    82    83    1
    74    29    30    2
    75    29    31   am
    76   158   156   ar
    77   158   160   ar
    78   156   155   ar
    79   108   107    1
    80   160   159   ar
    81   101    99   am
    82   155   154    1
    83   155   157   ar
    84   151   154    1
    85   151   150    1
    86   151   152    1
    87   107   109    1
    88   107   106    1
    89   153   152    2
    90   159   157   ar
    91    99    98    1
    92    99   100    2
    93   152   161   am
    94    98    95    1
    95   140   141    1
    96   140   139    1
    97   142   141    2
    98   106   103    1
    99   141   143   am
   100   161   162    1
   101    95    96    1
   102    95    94    1
   103   131   130    1
   104   143   144    1
   105   145   144    1
   106   145   146    2
   107   102    96   am
   108   102   103    1
   109    96    97    2
   110    94    87   am
   111   103   104    1
   112   163   162    1
   113   163   164    2
   114   162   165    1
   115   144   147    1
   116    85    86    1
   117   130   129    1
   118    89    86    1
   119    89    90    1
   120    87    86    1
   121    87    88    2
   122    91    92    1
   123    91    90    1
   124   104   105    2
   125   168   170   ar
   126   168   166   ar
   127    92    93    1
   128   170   171   ar
   129   165   166    1
   130   166   167   ar
   131   171   172    1
   132   171   169   ar
   133   147   149    1
   134   147   148    1
   135   167   169   ar
   136   129   128    1
   137   128   127    1
   138   127   124    1
   139    15    14    1
   140   113   112    2
   141   124   123    1
   142   124   125    1
   143   123   120   am
   144    14    13    1
   145   115   117    1
   146   115   114    1
   147   114   111    1
   148   114   116    1
   149   110   111    1
   150     6     5    1
   151   112   111    1
   152   112   118   am
   153   120   119    1
   154   120   121    2
   155    13    12    1
   156   125   126    2
   157   119   118    1
   158   119   122    1
   159     7     5    1
   160    11    10    2
   161     5     2    1
   162   137   136    1
   163    12     9    1
   164    10     9    1
   165     4     3    2
   166     2     3    1
   167     2     1    1
   168     9     8    1
   169   136   138    1
   170   136   133    1
   171   132   133    1
   172   133   134    1
   173   134   135    2
