@<TRIPOS>MOLECULE
tmp/5inbA00.pdb
 115 111 0 0 0
SMALL
GASTEIGER

@<TRIPOS>ATOM
      1  N         18.2260   61.7940   97.7130 N.3    58  ASP58      -0.1239
      2  CA        19.3710   61.2740   98.4760 C.3    58  ASP58       0.1674
      3  C         19.1970   59.8290   98.9080 C.2    58  ASP58       0.2266
      4  O         18.1060   59.4280   99.3200 O.2    58  ASP58      -0.2867
      5  CB        19.5660   62.0710   99.7600 C.3    58  ASP58       0.1410
      6  CG        20.0710   63.4630   99.5260 C.2    58  ASP58       0.3668
      7  OD1       19.6400   64.1570   98.5820 O.co2  58  ASP58      -0.2456
      8  OD2       20.9130   63.8940  100.3450 O.co2  58  ASP58      -0.2456
      9  N         22.3920   58.2600  100.5770 N.3    60  HIS60      -0.1241
     10  CA        23.2540   58.3350  101.7680 C.3    60  HIS60       0.1621
     11  C         23.5860   56.9690  102.3520 C.2    60  HIS60       0.2264
     12  O         23.4580   56.7320  103.5560 O.2    60  HIS60      -0.2867
     13  CB        22.6260   59.2340  102.8330 C.3    60  HIS60       0.0745
     14  CG        22.9170   60.6930  102.6490 C.ar   60  HIS60       0.0817
     15  ND1       24.2000   61.1850  102.5340 N.ar   60  HIS60      -0.2268
     16  CD2       22.0980   61.7740  102.6430 C.ar   60  HIS60       0.1154
     17  CE1       24.1610   62.5070  102.4640 C.ar   60  HIS60       0.1986
     18  NE2       22.8960   62.8920  102.5450 N.ar   60  HIS60      -0.2212
     19  N         24.2990   62.4200   96.3360 N.3    86  ASP86      -0.1239
     20  CA        24.3500   61.9940   97.7380 C.3    86  ASP86       0.1674
     21  C         24.1420   60.4890   97.8770 C.2    86  ASP86       0.2266
     22  O         23.1590   60.0180   98.4760 O.2    86  ASP86      -0.2867
     23  CB        23.3840   62.7850   98.6310 C.3    86  ASP86       0.1410
     24  CG        23.8890   64.1750   98.9590 C.2    86  ASP86       0.3668
     25  OD1       24.9710   64.5470   98.4610 O.co2  86  ASP86      -0.2456
     26  OD2       23.2000   64.8900   99.7420 O.co2  86  ASP86      -0.2456
     27  N         26.8210   59.1880  105.9550 N.3    90  ARG90      -0.1245
     28  CA        25.7210   59.1020  106.9270 C.3    90  ARG90       0.1563
     29  C         25.2160   57.6830  107.1780 C.2    90  ARG90       0.2260
     30  O         25.1200   57.2510  108.3420 O.2    90  ARG90      -0.2867
     31  CB        24.5820   60.1010  106.6260 C.3    90  ARG90       0.0307
     32  CG        25.0870   61.5200  106.3980 C.3    90  ARG90       0.0489
     33  CD        25.6660   62.1120  107.6450 C.3    90  ARG90       0.2205
     34  NE        24.6010   62.3880  108.5920 N.pl3  90  ARG90      -0.0865
     35  CZ        24.6010   61.9950  109.8600 C.cat  90  ARG90       0.5346
     36  NH1       25.6260   61.3050  110.3540 N.pl3  90  ARG90       0.1354
     37  NH2       23.5720   62.2960  110.6360 N.pl3  90  ARG90       0.1354
     38  N         26.3330   67.1660   96.9920 N.3   118  ASN118     -0.1225
     39  CA        27.3500   67.8430   97.7930 C.3   118  ASN118      0.1785
     40  C         28.2280   66.8680   98.5810 C.2   118  ASN118      0.2597
     41  O         29.3290   67.2330   98.9890 O.2   118  ASN118     -0.2718
     42  CB        26.7500   68.9460   98.6820 C.3   118  ASN118      0.1169
     43  CG        25.7450   68.4120   99.7020 C.2   118  ASN118      0.2627
     44  OD1       24.8400   67.6430   99.3540 O.2   118  ASN118     -0.2716
     45  ND2       25.8840   68.8310  100.9660 N.am  118  ASN118     -0.0877
     46  N         27.7620   65.6270   98.7640 N.am  119  HIS119     -0.1975
     47  CA        28.5820   64.6040   99.4270 C.3   119  HIS119      0.1656
     48  C         29.5350   63.8640   98.5000 C.2   119  HIS119      0.2291
     49  O         30.3980   63.1160   98.9760 O.2   119  HIS119     -0.2864
     50  CB        27.7000   63.6200  100.2110 C.3   119  HIS119      0.0771
     51  CG        27.0930   64.2530  101.4190 C.ar  119  HIS119      0.0820
     52  ND1       27.5460   64.0100  102.6960 N.ar  119  HIS119     -0.2267
     53  CD2       26.1210   65.1890  101.5320 C.ar  119  HIS119      0.1154
     54  CE1       26.8690   64.7590  103.5480 C.ar  119  HIS119      0.1986
     55  NE2       25.9890   65.4770  102.8680 N.ar  119  HIS119     -0.2212
     56  N         23.7660   76.8130  106.2560 N.3   215  ARG215     -0.1245
     57  CA        24.7580   75.7540  106.0690 C.3   215  ARG215      0.1563
     58  C         26.1800   76.3230  106.0870 C.2   215  ARG215      0.2260
     59  O         27.1390   75.5630  106.2590 O.2   215  ARG215     -0.2867
     60  CB        24.5620   75.0320  104.7360 C.3   215  ARG215      0.0307
     61  CG        23.2660   74.2680  104.6220 C.3   215  ARG215      0.0489
     62  CD        23.1500   73.6980  103.2230 C.3   215  ARG215      0.2205
     63  NE        21.8690   73.0670  102.9250 N.pl3 215  ARG215     -0.0865
     64  CZ        21.5900   71.7890  103.1240 C.cat 215  ARG215      0.5346
     65  NH1       22.4860   70.9750  103.6920 N.pl3 215  ARG215      0.1354
     66  NH2       20.3940   71.3360  102.7540 N.pl3 215  ARG215      0.1354
     67  N         18.5130   67.1140   98.6310 N.3   242  HIS242     -0.1226
     68  CA        19.3820   67.9060   99.5470 C.3   242  HIS242      0.1752
     69  C         18.7910   68.2400  100.9210 C.2   242  HIS242      0.2596
     70  O         19.5360   68.6760  101.7880 O.2   242  HIS242     -0.2718
     71  CB        19.8260   69.1830   98.7830 C.3   242  HIS242      0.0759
     72  CG        20.8750   70.0390   99.4340 C.ar  242  HIS242      0.0818
     73  ND1       21.9640   69.5410  100.1230 N.ar  242  HIS242     -0.2268
     74  CD2       21.0560   71.3850   99.3720 C.ar  242  HIS242      0.1154
     75  CE1       22.7540   70.5410  100.4800 C.ar  242  HIS242      0.1986
     76  NE2       22.2300   71.6700  100.0290 N.ar  242  HIS242     -0.2212
     77  N         17.4850   68.0520  101.1250 N.am  243  GLN243     -0.1965
     78  CA        16.8520   68.3000  102.4330 C.3   243  GLN243      0.1733
     79  C         15.8800   67.1900  102.7620 C.2   243  GLN243      0.2616
     80  O         15.1390   66.7240  101.8960 O.2   243  GLN243     -0.2715
     81  CB        16.0950   69.6370  102.4300 C.3   243  GLN243      0.0408
     82  CG        17.0230   70.8570  102.3880 C.3   243  GLN243      0.0908
     83  CD        16.2530   72.1550  102.3300 C.2   243  GLN243      0.2608
     84  OE1       15.4790   72.3960  101.3940 O.2   243  GLN243     -0.2717
     85  NE2       16.4280   72.9970  103.3530 N.am  243  GLN243     -0.0878
     86  N         15.8770   66.7570  104.0190 N.am  244  VAL244     -0.1977
     87  CA        14.9180   65.7620  104.4710 C.3   244  VAL244      0.1596
     88  C         13.5240   66.3550  104.4380 C.2   244  VAL244      0.2287
     89  O         13.2980   67.4610  104.9450 O.2   244  VAL244     -0.2864
     90  CB        15.2110   65.3390  105.9200 C.3   244  VAL244      0.0276
     91  CG1       14.1710   64.3060  106.4010 C.3   244  VAL244      0.0022
     92  CG2       16.6250   64.7750  106.0300 C.3   244  VAL244      0.0022
     93  N         13.6160   63.2810   98.6720 N.3   261  PHE261     -0.1241
     94  CA        14.6110   62.7100   99.5610 C.3   261  PHE261      0.1605
     95  C         14.2460   61.2410   99.6520 C.2   261  PHE261      0.2264
     96  O         13.1010   60.8940   99.9990 O.2   261  PHE261     -0.2867
     97  CB        14.5970   63.4070  100.9310 C.3   261  PHE261      0.0534
     98  CG        15.8150   63.1190  101.7660 C.ar  261  PHE261     -0.0203
     99  CD1       15.8330   62.0280  102.6350 C.ar  261  PHE261     -0.0042
    100  CD2       16.9380   63.9370  101.6940 C.ar  261  PHE261     -0.0042
    101  CE1       16.9500   61.7470  103.4200 C.ar  261  PHE261     -0.0003
    102  CE2       18.0690   63.6690  102.4800 C.ar  261  PHE261     -0.0003
    103  CZ        18.0680   62.5670  103.3440 C.ar  261  PHE261     -0.0000
    104  N         15.7150   58.6570  107.9050 N.3   266  TYR266     -0.1241
    105  CA        17.0930   59.0050  107.6400 C.3   266  TYR266      0.1605
    106  C         17.9440   58.9420  108.8960 C.2   266  TYR266      0.2264
    107  O         17.6030   59.5540  109.9140 O.2   266  TYR266     -0.2867
    108  CB        17.1230   60.3960  107.0450 C.3   266  TYR266      0.0534
    109  CG        18.4800   60.9350  106.7130 C.ar  266  TYR266     -0.0201
    110  CD1       19.3910   60.1840  105.9720 C.ar  266  TYR266     -0.0009
    111  CD2       18.8390   62.2220  107.0930 C.ar  266  TYR266     -0.0009
    112  CE1       20.6380   60.6980  105.6470 C.ar  266  TYR266      0.0417
    113  CE2       20.0640   62.7520  106.7520 C.ar  266  TYR266      0.0417
    114  CZ        20.9510   61.9910  106.0250 C.ar  266  TYR266      0.1957
    115  OH        22.1730   62.5290  105.7010 O.3   266  TYR266     -0.2866
@<TRIPOS>BOND
     1    19    20    1
     2    38    39    1
     3     1     2    1
     4    20    21    1
     5    20    23    1
     6    39    40    1
     7    39    42    1
     8    21    22    2
     9    25    24   ar
    10     2     3    1
    11     2     5    1
    12    48    49    2
    13    48    47    1
    14    40    46   am
    15    40    41    2
    16     7     6   ar
    17    23    24    1
    18    67    68    1
    19    93    94    1
    20    42    43    1
    21    46    47    1
    22    71    72    1
    23    71    68    1
    24     3     4    2
    25    24    26   ar
    26    44    43    2
    27    74    72   ar
    28    74    76   ar
    29    47    50    1
    30    72    73   ar
    31     6     5    1
    32     6     8   ar
    33    68    69    1
    34    94    95    1
    35    94    97    1
    36    95    96    2
    37    43    45   am
    38    76    75   ar
    39    73    75   ar
    40    50    51    1
    41     9    10    1
    42    69    77   am
    43    69    70    2
    44    97    98    1
    45    77    78    1
    46    84    83    2
    47    51    53   ar
    48    51    52   ar
    49    53    55   ar
    50   100    98   ar
    51   100   102   ar
    52    98    99   ar
    53    10    11    1
    54    10    13    1
    55    80    79    2
    56    83    82    1
    57    83    85   am
    58    11    12    2
    59    82    81    1
    60    81    78    1
    61    78    79    1
    62    17    15   ar
    63    17    18   ar
    64   102   103   ar
    65    15    14   ar
    66    18    16   ar
    67    99   101   ar
    68    16    14   ar
    69    14    13    1
    70    52    54   ar
    71    66    64    1
    72    79    86   am
    73    55    54   ar
    74    63    64    2
    75    63    62    1
    76    64    65    1
    77    62    61    1
    78   103   101   ar
    79    86    87    1
    80    88    87    1
    81    88    89    2
    82    87    90    1
    83    61    60    1
    84    60    57    1
    85   112   110   ar
    86   112   114   ar
    87   115   114    1
    88    90    92    1
    89    90    91    1
    90    27    28    1
    91   110   109   ar
    92   114   113   ar
    93    57    58    1
    94    57    56    1
    95    58    59    2
    96    32    31    1
    97    32    33    1
    98    31    28    1
    99   109   108    1
   100   109   111   ar
   101   113   111   ar
   102    28    29    1
   103   108   105    1
   104    29    30    2
   105   105   104    1
   106   105   106    1
   107    33    34    1
   108    34    35    2
   109   106   107    2
   110    35    36    1
   111    35    37    1
