@<TRIPOS>MOLECULE
tmp/5inhA06.pdb
 102 98 0 0 0
SMALL
GASTEIGER

@<TRIPOS>ATOM
      1  N          7.9680   22.5670   37.7470 N.3   119  ASP119     -0.1239
      2  CA         6.7500   22.1270   37.1140 C.3   119  ASP119      0.1674
      3  C          5.8890   23.3150   36.7700 C.2   119  ASP119      0.2266
      4  O          5.6250   24.1650   37.6130 O.2   119  ASP119     -0.2867
      5  CB         6.0310   21.1610   38.0530 C.3   119  ASP119      0.1410
      6  CG         5.0790   20.2490   37.3220 C.2   119  ASP119      0.3668
      7  OD1        4.2500   20.7790   36.5620 O.co2 119  ASP119     -0.2456
      8  OD2        5.1880   19.0210   37.4880 O.co2 119  ASP119     -0.2456
      9  N          2.6900   16.7780   32.5790 N.3   157  THR157     -0.1203
     10  CA         3.8680   16.4660   33.3780 C.3   157  THR157      0.1994
     11  C          4.5590   15.1610   33.0530 C.2   157  THR157      0.2617
     12  O          5.7330   15.1680   32.7920 O.2   157  THR157     -0.2717
     13  CB         3.5250   16.4560   34.8800 C.3   157  THR157      0.1784
     14  OG1        2.9850   17.7090   35.2280 O.3   157  THR157     -0.2211
     15  CG2        4.7660   16.1960   35.7480 C.3   157  THR157      0.0376
     16  N          3.8590   14.0400   33.1370 N.am  158  PHE158     -0.1975
     17  CA         4.5150   12.7450   32.9750 C.3   158  PHE158      0.1639
     18  C          5.1460   12.5800   31.5680 C.2   158  PHE158      0.2290
     19  O          6.3230   12.2110   31.4530 O.2   158  PHE158     -0.2864
     20  CB         3.5860   11.6040   33.3440 C.3   158  PHE158      0.0560
     21  CG         3.5370   11.3270   34.8420 C.ar  158  PHE158     -0.0200
     22  CD1        2.8330   12.1560   35.6940 C.ar  158  PHE158     -0.0042
     23  CD2        4.2030   10.2390   35.3910 C.ar  158  PHE158     -0.0042
     24  CE1        2.7860   11.9160   37.0670 C.ar  158  PHE158     -0.0003
     25  CE2        4.1550    9.9850   36.7570 C.ar  158  PHE158     -0.0003
     26  CZ         3.4570   10.8350   37.5950 C.ar  158  PHE158     -0.0000
     27  N         -0.8960   11.7190   31.3480 N.3   178  ASN178     -0.1240
     28  CA        -0.8860   11.5400   32.7880 C.3   178  ASN178      0.1653
     29  C         -1.7460   10.3740   33.2100 C.2   178  ASN178      0.2266
     30  O         -1.5800    9.8730   34.3000 O.2   178  ASN178     -0.2867
     31  CB        -1.3600   12.7930   33.5310 C.3   178  ASN178      0.1155
     32  CG        -0.3020   13.8660   33.5670 C.2   178  ASN178      0.2627
     33  OD1        0.8820   13.5990   33.3890 O.2   178  ASN178     -0.2716
     34  ND2       -0.7260   15.0800   33.8060 N.am  178  ASN178     -0.0877
     35  N         -1.8390    8.8200   38.1450 N.3   191  LEU191     -0.1245
     36  CA        -1.1330    9.4040   39.2990 C.3   191  LEU191      0.1561
     37  C         -1.4800    8.7430   40.6470 C.2   191  LEU191      0.2260
     38  O         -0.6190    8.6210   41.5190 O.2   191  LEU191     -0.2867
     39  CB        -1.4360   10.9050   39.3820 C.3   191  LEU191      0.0270
     40  CG        -1.0070   11.6330   40.6710 C.3   191  LEU191      0.0019
     41  CD1        0.5140   11.8160   40.7360 C.3   191  LEU191      0.0001
     42  CD2       -1.7370   12.9640   40.8020 C.3   191  LEU191      0.0001
     43  N         13.4340   18.3830   41.9590 N.3   254  TYR254     -0.1241
     44  CA        12.1220   18.6900   41.3400 C.3   254  TYR254      0.1605
     45  C         11.3030   19.5560   42.2890 C.2   254  TYR254      0.2264
     46  O         11.2590   19.3020   43.4990 O.2   254  TYR254     -0.2867
     47  CB        11.3560   17.4040   41.0420 C.3   254  TYR254      0.0534
     48  CG         9.8980   17.5970   40.6700 C.ar  254  TYR254     -0.0201
     49  CD1        9.5120   17.9810   39.3760 C.ar  254  TYR254     -0.0009
     50  CD2        8.9070   17.3920   41.6130 C.ar  254  TYR254     -0.0009
     51  CE1        8.1730   18.1460   39.0470 C.ar  254  TYR254      0.0417
     52  CE2        7.5770   17.5670   41.3020 C.ar  254  TYR254      0.0417
     53  CZ         7.2120   17.9350   40.0300 C.ar  254  TYR254      0.1957
     54  OH         5.8840   18.1040   39.7930 O.3   254  TYR254     -0.2866
     55  N          7.3600   20.9900   42.5840 N.3   256  GLU256     -0.1245
     56  CA         5.9640   20.9450   42.2020 C.3   256  GLU256      0.1567
     57  C          5.4660   22.3520   41.7910 C.2   256  GLU256      0.2260
     58  O          4.4520   22.4990   41.1140 O.2   256  GLU256     -0.2867
     59  CB         5.1500   20.4090   43.4030 C.3   256  GLU256      0.0388
     60  CG         5.5110   18.9930   43.9090 C.3   256  GLU256      0.1160
     61  CD         6.7870   18.8970   44.7910 C.2   256  GLU256      0.3649
     62  OE1        7.2990   19.9410   45.2850 O.co2 256  GLU256     -0.2457
     63  OE2        7.2780   17.7540   44.9970 O.co2 256  GLU256     -0.2457
     64  N          3.4890   25.0650   39.2340 N.3   259  ASP259     -0.1225
     65  CA         2.3100   24.4480   38.6040 C.3   259  ASP259      0.1805
     66  C          1.0940   24.5520   39.5280 C.2   259  ASP259      0.2597
     67  O          0.0160   24.9400   39.1130 O.2   259  ASP259     -0.2718
     68  CB         2.5970   22.9700   38.2580 C.3   259  ASP259      0.1424
     69  CG         1.5570   22.3660   37.3140 C.2   259  ASP259      0.3668
     70  OD1        1.3720   22.8920   36.2090 O.co2 259  ASP259     -0.2456
     71  OD2        0.9510   21.3390   37.6950 O.co2 259  ASP259     -0.2456
     72  N          1.2810   24.2560   40.8030 N.am  260  PHE260     -0.1976
     73  CA         0.1350   24.1460   41.6920 C.3   260  PHE260      0.1639
     74  C         -0.5490   25.4850   41.7510 C.2   260  PHE260      0.2290
     75  O         -1.7570   25.5890   41.5270 O.2   260  PHE260     -0.2864
     76  CB         0.5400   23.6730   43.0970 C.3   260  PHE260      0.0560
     77  CG        -0.6020   23.6820   44.0940 C.ar  260  PHE260     -0.0200
     78  CD1       -1.8560   23.1590   43.7590 C.ar  260  PHE260     -0.0042
     79  CD2       -0.4310   24.2150   45.3690 C.ar  260  PHE260     -0.0042
     80  CE1       -2.9090   23.1690   44.6720 C.ar  260  PHE260     -0.0003
     81  CE2       -1.4770   24.2210   46.2880 C.ar  260  PHE260     -0.0003
     82  CZ        -2.7210   23.7000   45.9340 C.ar  260  PHE260     -0.0000
     83  N         -2.3780   26.5330   38.4840 N.3   263  HIS263     -0.1241
     84  CA        -3.7180   25.9110   38.3630 C.3   263  HIS263      0.1621
     85  C         -4.7500   26.6570   39.2030 C.2   263  HIS263      0.2264
     86  O         -5.8480   26.9420   38.7430 O.2   263  HIS263     -0.2867
     87  CB        -3.6840   24.4310   38.7810 C.3   263  HIS263      0.0745
     88  CG        -3.0510   23.5300   37.7620 C.ar  263  HIS263      0.0817
     89  ND1       -3.6200   23.2810   36.5300 N.ar  263  HIS263     -0.2268
     90  CD2       -1.9260   22.7850   37.8080 C.ar  263  HIS263      0.1154
     91  CE1       -2.8610   22.4420   35.8580 C.ar  263  HIS263      0.1986
     92  NE2       -1.8230   22.1250   36.6050 N.ar  263  HIS263     -0.2212
     93  N         -2.9800   23.2820   31.4520 N.3   422  HIS422     -0.1241
     94  CA        -2.0190   23.0700   30.3780 C.3   422  HIS422      0.1621
     95  C         -2.3210   21.7020   29.8200 C.2   422  HIS422      0.2264
     96  O         -3.0810   20.9470   30.4170 O.2   422  HIS422     -0.2867
     97  CB        -0.5820   23.1000   30.9300 C.3   422  HIS422      0.0745
     98  CG        -0.3940   22.1930   32.1020 C.ar  422  HIS422      0.0817
     99  ND1        0.0270   20.8970   31.9650 N.ar  422  HIS422     -0.2268
    100  CD2       -0.6040   22.3850   33.4280 C.ar  422  HIS422      0.1154
    101  CE1        0.0530   20.3140   33.1510 C.ar  422  HIS422      0.1986
    102  NE2       -0.2820   21.2090   34.0590 N.ar  422  HIS422     -0.2212
@<TRIPOS>BOND
     1    95    94    1
     2    95    96    2
     3    94    97    1
     4    94    93    1
     5    97    98    1
     6    27    28    1
     7    19    18    2
     8    18    17    1
     9    99    98   ar
    10    99   101   ar
    11    98   100   ar
    12     9    10    1
    13    28    29    1
    14    28    31    1
    15    12    11    2
    16    17    16    1
    17    17    20    1
    18    11    16   am
    19    11    10    1
    20   101   102   ar
    21    29    30    2
    22    20    21    1
    23    10    13    1
    24    33    32    2
    25   100   102   ar
    26    31    32    1
    27    32    34   am
    28    21    23   ar
    29    21    22   ar
    30    13    14    1
    31    13    15    1
    32    23    25   ar
    33    22    24   ar
    34    91    89   ar
    35    91    92   ar
    36    70    69   ar
    37    89    88   ar
    38     7     6   ar
    39    92    90   ar
    40    25    26   ar
    41     3     2    1
    42     3     4    2
    43    24    26   ar
    44     2     1    1
    45     2     5    1
    46    69    71   ar
    47    69    68    1
    48     6     8   ar
    49     6     5    1
    50    88    90   ar
    51    88    87    1
    52    35    36    1
    53    68    65    1
    54    84    83    1
    55    84    87    1
    56    84    85    1
    57    65    64    1
    58    65    66    1
    59    86    85    2
    60    51    49   ar
    61    51    53   ar
    62    67    66    2
    63    36    39    1
    64    36    37    1
    65    49    48   ar
    66    39    40    1
    67    66    72   am
    68    54    53    1
    69    53    52   ar
    70    37    38    2
    71    48    47    1
    72    48    50   ar
    73    40    41    1
    74    40    42    1
    75    72    73    1
    76    47    44    1
    77    58    57    2
    78    52    50   ar
    79    44    43    1
    80    44    45    1
    81    75    74    2
    82    73    74    1
    83    73    76    1
    84    57    56    1
    85    56    55    1
    86    56    59    1
    87    45    46    2
    88    76    77    1
    89    59    60    1
    90    78    77   ar
    91    78    80   ar
    92    60    61    1
    93    77    79   ar
    94    80    82   ar
    95    61    63   ar
    96    61    62   ar
    97    79    81   ar
    98    82    81   ar
