@<TRIPOS>MOLECULE
tmp/5iniF00.pdb
 99 94 0 0 0
SMALL
GASTEIGER

@<TRIPOS>ATOM
      1  N         35.8740  -14.5910  -48.8580 N.3   375  ILE375     -0.1245
      2  CA        37.0880  -14.4760  -48.0560 C.3   375  ILE375      0.1561
      3  C         36.7870  -14.2720  -46.5810 C.2   375  ILE375      0.2260
      4  O         37.7060  -14.3490  -45.7530 O.2   375  ILE375     -0.2867
      5  CB        37.9680  -13.3350  -48.5990 C.3   375  ILE375      0.0252
      6  CG1       39.4430  -13.6980  -48.4460 C.3   375  ILE375      0.0019
      7  CG2       37.6370  -12.0160  -47.9110 C.3   375  ILE375      0.0019
      8  CD1       39.8190  -14.9590  -49.1960 C.3   375  ILE375      0.0001
      9  N         37.9030  -17.2650  -44.7680 N.3   378  PHE378     -0.1241
     10  CA        39.3340  -17.2030  -44.4950 C.3   378  PHE378      0.1605
     11  C         39.6060  -16.3890  -43.2350 C.2   378  PHE378      0.2264
     12  O         40.3110  -16.8460  -42.3270 O.2   378  PHE378     -0.2867
     13  CB        40.0780  -16.6100  -45.6930 C.3   378  PHE378      0.0534
     14  CG        41.5790  -16.6690  -45.5660 C.ar  378  PHE378     -0.0203
     15  CD1       42.2600  -15.7720  -44.7550 C.ar  378  PHE378     -0.0042
     16  CD2       42.3080  -17.6210  -46.2580 C.ar  378  PHE378     -0.0042
     17  CE1       43.6320  -15.8290  -44.6310 C.ar  378  PHE378     -0.0003
     18  CE2       43.6850  -17.6800  -46.1390 C.ar  378  PHE378     -0.0003
     19  CZ        44.3470  -16.7820  -45.3240 C.ar  378  PHE378     -0.0000
     20  N         43.4350  -25.5720  -54.0400 N.3   398  GLY398     -0.1210
     21  CA        43.4940  -24.1210  -54.1000 C.3   398  GLY398      0.1956
     22  C         42.9670  -23.4470  -52.8530 C.2   398  GLY398      0.2612
     23  O         43.2790  -23.8350  -51.7200 O.2   398  GLY398     -0.2717
     24  N         42.1570  -22.4070  -53.0690 N.am  399  GLY399     -0.1956
     25  CA        41.5920  -21.6640  -51.9560 C.3   399  GLY399      0.1869
     26  C         40.7260  -22.5150  -51.0530 C.2   399  GLY399      0.2309
     27  O         40.5920  -22.2220  -49.8620 O.2   399  GLY399     -0.2863
     28  N         43.2150  -24.0300  -48.6670 N.3   402  ALA402     -0.1231
     29  CA        43.7490  -22.9900  -47.7920 C.3   402  ALA402      0.1694
     30  C         42.7480  -22.6130  -46.7080 C.2   402  ALA402      0.2591
     31  O         43.0840  -22.5710  -45.5180 O.2   402  ALA402     -0.2718
     32  CB        44.1300  -21.7600  -48.6160 C.3   402  ALA402      0.0304
     33  N         41.5020  -22.3590  -47.1050 N.am  403  VAL403     -0.1980
     34  CA        40.5150  -21.8030  -46.1870 C.3   403  VAL403      0.1595
     35  C         40.0300  -22.8550  -45.1960 C.2   403  VAL403      0.2287
     36  O         39.9090  -22.5840  -43.9960 O.2   403  VAL403     -0.2864
     37  CB        39.3540  -21.1940  -46.9910 C.3   403  VAL403      0.0276
     38  CG1       38.1860  -20.9260  -46.0950 C.3   403  VAL403      0.0022
     39  CG2       39.8080  -19.9140  -47.6760 C.3   403  VAL403      0.0022
     40  N         47.0950  -27.1270  -56.4180 N.3   424  VAL424     -0.1231
     41  CA        46.5210  -25.8220  -56.7300 C.3   424  VAL424      0.1692
     42  C         45.2390  -25.9820  -57.5470 C.2   424  VAL424      0.2591
     43  O         44.2570  -25.2640  -57.3250 O.2   424  VAL424     -0.2718
     44  CB        47.5590  -24.9320  -57.4390 C.3   424  VAL424      0.0266
     45  CG1       46.9450  -23.5950  -57.8150 C.3   424  VAL424      0.0020
     46  CG2       48.7700  -24.7090  -56.5400 C.3   424  VAL424      0.0020
     47  N         45.2190  -26.9300  -58.4830 N.am  425  MET425     -0.1979
     48  CA        44.0250  -27.2600  -59.2710 C.3   425  MET425      0.1605
     49  C         44.2140  -28.6670  -59.8520 C.2   425  MET425      0.2287
     50  O         45.0310  -29.4440  -59.3440 O.2   425  MET425     -0.2864
     51  CB        43.7620  -26.1710  -60.3270 C.3   425  MET425      0.0413
     52  CG        44.9870  -25.7390  -61.1060 C.3   425  MET425      0.0598
     53  SD        44.7090  -24.3580  -62.2330 S.3   425  MET425     -0.1393
     54  CE        44.8340  -22.9860  -61.0910 C.3   425  MET425      0.0692
     55  N         47.3250  -24.0320  -68.2550 N.3   432  PRO432     -0.2102
     56  CA        48.1950  -22.8910  -67.9310 C.3   432  PRO432      0.1504
     57  C         49.6480  -23.2810  -67.6590 C.2   432  PRO432      0.2576
     58  O         50.4740  -23.0010  -68.5290 O.2   432  PRO432     -0.2718
     59  CB        47.4920  -22.2520  -66.6970 C.3   432  PRO432      0.0282
     60  CG        46.1110  -22.7020  -66.8310 C.3   432  PRO432      0.0208
     61  CD        46.2500  -24.0780  -67.2120 C.3   432  PRO432      0.0893
     62  N         50.0150  -23.8810  -66.5210 N.am  433  ILE433     -0.1966
     63  CA        51.4430  -24.2060  -66.3290 C.3   433  ILE433      0.1727
     64  C         51.9100  -25.4730  -67.0180 C.2   433  ILE433      0.2616
     65  O         51.3740  -26.5650  -66.8290 O.2   433  ILE433     -0.2715
     66  CB        51.8730  -24.3330  -64.8390 C.3   433  ILE433      0.0290
     67  CG1       51.2590  -25.5610  -64.1540 C.3   433  ILE433      0.0022
     68  CG2       51.5880  -23.0850  -64.1010 C.3   433  ILE433      0.0023
     69  CD1       52.2680  -26.6760  -63.8500 C.3   433  ILE433      0.0001
     70  N         52.9020  -25.3200  -67.8690 N.am  434  LEU434     -0.1977
     71  CA        53.1320  -24.1090  -68.6110 C.3   434  LEU434      0.1596
     72  C         53.2000  -24.8220  -69.8970 C.2   434  LEU434      0.2287
     73  O         54.2680  -25.0020  -70.4190 O.2   434  LEU434     -0.2864
     74  CB        54.4370  -23.4010  -68.2690 C.3   434  LEU434      0.0297
     75  CG        54.6960  -21.9670  -68.7040 C.3   434  LEU434      0.0022
     76  CD1       54.1380  -21.1540  -67.6150 C.3   434  LEU434      0.0001
     77  CD2       56.1810  -21.7190  -68.7920 C.3   434  LEU434      0.0001
     78  N         50.8340  -24.7090  -72.6660 N.3   436  ARG436     -0.1231
     79  CA        50.2530  -24.2180  -73.9060 C.3   436  ARG436      0.1694
     80  C         51.3500  -23.7540  -74.8610 C.2   436  ARG436      0.2591
     81  O         51.3620  -24.1380  -76.0360 O.2   436  ARG436     -0.2718
     82  CB        49.2320  -23.1150  -73.6140 C.3   436  ARG436      0.0321
     83  CG        49.7550  -21.6990  -73.5350 C.3   436  ARG436      0.0489
     84  CD        48.6720  -20.7600  -73.9950 C.3   436  ARG436      0.2205
     85  NE        47.4310  -21.0260  -73.2800 N.pl3 436  ARG436     -0.0865
     86  CZ        47.0990  -20.4400  -72.1360 C.cat 436  ARG436      0.5346
     87  NH1       47.9160  -19.5500  -71.5880 N.pl3 436  ARG436      0.1354
     88  NH2       45.9530  -20.7380  -71.5420 N.pl3 436  ARG436      0.1354
     89  N         52.3100  -22.9690  -74.3610 N.am  437  ARG437     -0.1980
     90  CA        53.4510  -22.5820  -75.1820 C.3   437  ARG437      0.1597
     91  C         54.2740  -23.8030  -75.5690 C.2   437  ARG437      0.2287
     92  O         54.8070  -23.8690  -76.6840 O.2   437  ARG437     -0.2864
     93  CB        54.3040  -21.5560  -74.4280 C.3   437  ARG437      0.0334
     94  CG        55.3540  -20.8390  -75.2660 C.3   437  ARG437      0.0492
     95  CD        55.9190  -19.6360  -74.5170 C.3   437  ARG437      0.2205
     96  NE        54.8890  -18.6350  -74.2500 N.pl3 437  ARG437     -0.0865
     97  CZ        54.4380  -17.7690  -75.1520 C.cat 437  ARG437      0.5346
     98  NH1       54.9260  -17.7800  -76.3860 N.pl3 437  ARG437      0.1354
     99  NH2       53.4980  -16.8930  -74.8240 N.pl3 437  ARG437      0.1354
@<TRIPOS>BOND
     1    92    91    2
     2    98    97    1
     3    81    80    2
     4    91    90    1
     5    94    95    1
     6    94    93    1
     7    90    93    1
     8    90    89    1
     9    97    99    1
    10    97    96    2
    11    80    89   am
    12    80    79    1
    13    95    96    1
    14    84    83    1
    15    84    85    1
    16    79    82    1
    17    79    78    1
    18    82    83    1
    19    85    86    2
    20    86    87    1
    21    86    88    1
    22    73    72    2
    23    72    71    1
    24    77    75    1
    25    75    74    1
    26    75    76    1
    27    71    74    1
    28    71    70    1
    29    58    57    2
    30    55    56    1
    31    55    61    1
    32    56    57    1
    33    56    59    1
    34    70    64   am
    35    57    62   am
    36    61    60    1
    37    64    65    2
    38    64    63    1
    39    60    59    1
    40    62    63    1
    41    63    66    1
    42    66    67    1
    43    66    68    1
    44    67    69    1
    45    53    52    1
    46    53    54    1
    47    52    51    1
    48    51    48    1
    49    49    50    2
    50    49    48    1
    51    48    47    1
    52    47    42   am
    53    45    44    1
    54    42    43    2
    55    42    41    1
    56    44    41    1
    57    44    46    1
    58    41    40    1
    59    21    20    1
    60    21    22    1
    61    24    22   am
    62    24    25    1
    63    22    23    2
    64    25    26    1
    65    26    27    2
    66     8     6    1
    67     1     2    1
    68    28    29    1
    69    32    29    1
    70     5     6    1
    71     5     2    1
    72     5     7    1
    73     2     3    1
    74    29    30    1
    75    39    37    1
    76    33    30   am
    77    33    34    1
    78    37    34    1
    79    37    38    1
    80    30    31    2
    81     3     4    2
    82    16    18   ar
    83    16    14   ar
    84    34    35    1
    85    18    19   ar
    86    13    14    1
    87    13    10    1
    88    14    15   ar
    89    19    17   ar
    90    35    36    2
    91     9    10    1
    92    15    17   ar
    93    10    11    1
    94    11    12    2
