@<TRIPOS>MOLECULE
tmp/5iniF01.pdb
 208 201 0 0 0
SMALL
GASTEIGER

@<TRIPOS>ATOM
      1  N         -5.4190  -17.8810  -33.6810 N.3    31  LYS31      -0.1245
      2  CA        -4.4390  -17.7750  -34.7530 C.3    31  LYS31       0.1561
      3  C         -3.4330  -18.9190  -34.7380 C.2    31  LYS31       0.2260
      4  O         -2.4030  -18.8350  -35.4160 O.2    31  LYS31      -0.2867
      5  CB        -3.7190  -16.4270  -34.6750 C.3    31  LYS31       0.0271
      6  CG        -4.6560  -15.2470  -34.8640 C.3    31  LYS31       0.0035
      7  CD        -3.9380  -13.9070  -34.8500 C.3    31  LYS31       0.0206
      8  CE        -4.9580  -12.7830  -35.0060 C.3    31  LYS31       0.1093
      9  NZ        -4.3610  -11.4210  -35.0670 N.3    31  LYS31      -0.1314
     10  N          1.7310  -10.4570  -28.2950 N.3    86  PHE86      -0.1241
     11  CA         1.1790   -9.8690  -29.5120 C.3    86  PHE86       0.1605
     12  C         -0.2360   -9.3400  -29.3150 C.2    86  PHE86       0.2264
     13  O         -0.7000   -8.5330  -30.1260 O.2    86  PHE86      -0.2867
     14  CB         1.1960  -10.8990  -30.6470 C.3    86  PHE86       0.0534
     15  CG         0.8360  -10.3320  -31.9970 C.ar   86  PHE86      -0.0203
     16  CD1        1.7870   -9.6770  -32.7650 C.ar   86  PHE86      -0.0042
     17  CD2       -0.4510  -10.4620  -32.5040 C.ar   86  PHE86      -0.0042
     18  CE1        1.4600   -9.1560  -34.0090 C.ar   86  PHE86      -0.0003
     19  CE2       -0.7830   -9.9420  -33.7450 C.ar   86  PHE86      -0.0003
     20  CZ         0.1740   -9.2890  -34.4980 C.ar   86  PHE86      -0.0000
     21  N         -1.4990   -4.3710  -28.1100 N.3    89  LEU89      -0.1231
     22  CA        -1.0750   -3.3810  -29.1100 C.3    89  LEU89       0.1693
     23  C         -0.1030   -3.9750  -30.1280 C.2    89  LEU89       0.2592
     24  O          0.8630   -3.3340  -30.5490 O.2    89  LEU89      -0.2718
     25  CB        -0.4780   -2.1380  -28.4440 C.3    89  LEU89       0.0284
     26  CG        -1.3550   -1.4870  -27.3670 C.3    89  LEU89       0.0019
     27  CD1       -0.8730   -1.8340  -26.0200 C.3    89  LEU89       0.0001
     28  CD2       -1.3600    0.0050  -27.4490 C.3    89  LEU89       0.0001
     29  N         -0.3740   -5.2130  -30.5370 N.am   90  GLY90      -0.1957
     30  CA         0.4450   -5.8680  -31.5390 C.3    90  GLY90       0.1869
     31  C          1.8100   -6.2930  -31.0580 C.2    90  GLY90       0.2309
     32  O          2.6870   -6.5680  -31.8820 O.2    90  GLY90      -0.2863
     33  N          3.8870   -4.3290  -29.7220 N.3    92  SER92      -0.1217
     34  CA         4.7690   -3.2400  -30.1080 C.3    92  SER92       0.1889
     35  C          5.4650   -2.6500  -28.8910 C.2    92  SER92       0.2288
     36  O          4.9250   -2.6350  -27.7820 O.2    92  SER92      -0.2866
     37  CB         3.9800   -2.1510  -30.8280 C.3    92  SER92       0.2089
     38  OG         2.9390   -1.6710  -29.9970 O.3    92  SER92      -0.2183
     39  N          4.4970   -6.4140  -33.6460 N.3   122  GLY122     -0.1210
     40  CA         4.2860   -5.4520  -34.7050 C.3   122  GLY122      0.1956
     41  C          5.3260   -4.3590  -34.8250 C.2   122  GLY122      0.2612
     42  O          5.1140   -3.4040  -35.5760 O.2   122  GLY122     -0.2717
     43  N          6.4340   -4.4510  -34.1030 N.am  123  GLY123     -0.1942
     44  CA         7.5600   -3.5530  -34.3090 C.3   123  GLY123      0.2014
     45  C          7.6500   -2.4830  -33.2280 C.2   123  GLY123      0.2639
     46  O          7.6560   -2.7920  -32.0370 O.2   123  GLY123     -0.2714
     47  N          7.7370   -1.2250  -33.6540 N.am  124  ALA124     -0.1963
     48  CA         7.8820   -0.0860  -32.7590 C.3   124  ALA124      0.1728
     49  C          6.5640    0.6670  -32.6910 C.2   124  ALA124      0.2616
     50  O          5.9690    0.9840  -33.7280 O.2   124  ALA124     -0.2715
     51  CB         9.0020    0.8440  -33.2270 C.3   124  ALA124      0.0334
     52  N          6.1190    0.9640  -31.4750 N.am  125  ARG125     -0.1963
     53  CA         4.7760    1.4920  -31.2850 C.3   125  ARG125      0.1729
     54  C          4.6880    2.9520  -31.7160 C.2   125  ARG125      0.2616
     55  O          5.3870    3.8180  -31.1770 O.2   125  ARG125     -0.2715
     56  CB         4.3440    1.3540  -29.8380 C.3   125  ARG125      0.0348
     57  CG         3.2020    2.2710  -29.5910 C.3   125  ARG125      0.0492
     58  CD         2.5810    2.0580  -28.2780 C.3   125  ARG125      0.2205
     59  NE         3.4980    1.4560  -27.3120 N.pl3 125  ARG125     -0.0865
     60  CZ         3.1860    0.4040  -26.5740 C.cat 125  ARG125      0.5346
     61  NH1        1.9990   -0.1320  -26.7190 N.pl3 125  ARG125      0.1354
     62  NH2        4.0310   -0.1100  -25.6900 N.pl3 125  ARG125      0.1354
     63  N          3.7690    3.2280  -32.6430 N.am  126  ILE126     -0.1963
     64  CA         3.7520    4.5050  -33.3500 C.3   126  ILE126      0.1727
     65  C          3.2110    5.6260  -32.4630 C.2   126  ILE126      0.2616
     66  O          3.6710    6.7720  -32.5440 O.2   126  ILE126     -0.2715
     67  CB         2.9470    4.3430  -34.6530 C.3   126  ILE126      0.0290
     68  CG1        3.6610    3.3390  -35.5630 C.3   126  ILE126      0.0022
     69  CG2        2.7460    5.6780  -35.3520 C.3   126  ILE126      0.0023
     70  CD1        2.7990    2.7640  -36.6490 C.3   126  ILE126      0.0001
     71  N          2.2490    5.3150  -31.5870 N.am  127  GLN127     -0.1977
     72  CA         1.6490    6.3430  -30.7370 C.3   127  GLN127      0.1601
     73  C          2.6570    6.9990  -29.8010 C.2   127  GLN127      0.2287
     74  O          2.4280    8.1320  -29.3630 O.2   127  GLN127     -0.2864
     75  CB         0.5050    5.7580  -29.9040 C.3   127  GLN127      0.0394
     76  CG        -0.5750    5.0280  -30.6910 C.3   127  GLN127      0.0908
     77  CD        -0.2240    3.5810  -30.9730 C.2   127  GLN127      0.2608
     78  OE1        0.9320    3.2500  -31.2130 O.2   127  GLN127     -0.2717
     79  NE2       -1.2240    2.7120  -30.9450 N.am  127  GLN127     -0.0878
     80  N         11.4210    4.3910  -31.0650 N.3   133  ILE133     -0.1245
     81  CA        12.6720    4.2700  -31.8170 C.3   133  ILE133      0.1561
     82  C         13.8530    4.2220  -30.8640 C.2   133  ILE133      0.2260
     83  O         14.7060    3.3300  -30.9410 O.2   133  ILE133     -0.2867
     84  CB        12.8340    5.4360  -32.8060 C.3   133  ILE133      0.0252
     85  CG1       11.6230    5.5390  -33.7100 C.3   133  ILE133      0.0019
     86  CG2       14.0890    5.2330  -33.6440 C.3   133  ILE133      0.0019
     87  CD1       11.4330    4.3060  -34.4780 C.3   133  ILE133      0.0001
     88  N         14.2200    0.8700  -29.0070 N.3   136  TYR136     -0.1227
     89  CA        14.7260   -0.2100  -29.8500 C.3   136  TYR136      0.1736
     90  C         16.2200   -0.0610  -30.0890 C.2   136  TYR136      0.2596
     91  O         16.9630   -1.0500  -30.0600 O.2   136  TYR136     -0.2718
     92  CB        13.9780   -0.2620  -31.1800 C.3   136  TYR136      0.0548
     93  CG        12.9330   -1.3430  -31.2010 C.ar  136  TYR136     -0.0200
     94  CD1       13.2760   -2.6650  -30.9450 C.ar  136  TYR136     -0.0009
     95  CD2       11.6050   -1.0480  -31.4670 C.ar  136  TYR136     -0.0009
     96  CE1       12.3240   -3.6620  -30.9530 C.ar  136  TYR136      0.0417
     97  CE2       10.6470   -2.0390  -31.4790 C.ar  136  TYR136      0.0417
     98  CZ        11.0110   -3.3440  -31.2210 C.ar  136  TYR136      0.1957
     99  OH        10.0600   -4.3380  -31.2310 O.3   136  TYR136     -0.2866
    100  N         16.6800    1.1680  -30.3220 N.am  137  THR137     -0.1953
    101  CA        18.1130    1.3950  -30.4470 C.3   137  THR137      0.1897
    102  C         18.8370    0.9570  -29.1800 C.2   137  THR137      0.2313
    103  O         19.8490    0.2510  -29.2450 O.2   137  THR137     -0.2863
    104  CB        18.3930    2.8640  -30.7540 C.3   137  THR137      0.1794
    105  OG1       17.6870    3.2480  -31.9410 O.3   137  THR137     -0.2208
    106  CG2       19.8770    3.0710  -30.9750 C.3   137  THR137      0.0378
    107  N         19.0910   -2.7290  -29.2030 N.3   140  GLY140     -0.1225
    108  CA        20.0770   -3.1530  -30.1850 C.3   140  GLY140      0.1811
    109  C         21.4960   -2.8850  -29.7270 C.2   140  GLY140      0.2280
    110  O         22.3770   -3.7400  -29.8610 O.2   140  GLY140     -0.2866
    111  N          4.2490  -12.5100  -36.4120 N.3   159  PRO159     -0.2116
    112  CA         4.6770  -11.4590  -37.3420 C.3   159  PRO159      0.1372
    113  C          5.7130  -10.5790  -36.6660 C.2   159  PRO159      0.2244
    114  O          5.5580  -10.1900  -35.5080 O.2   159  PRO159     -0.2868
    115  CB         3.3850  -10.6870  -37.6420 C.3   159  PRO159      0.0268
    116  CG         2.2720  -11.4930  -37.0390 C.3   159  PRO159      0.0207
    117  CD         2.8770  -12.2910  -35.9320 C.3   159  PRO159      0.0892
    118  N          8.3430   -7.2350  -37.5080 N.3   161  ALA161     -0.1231
    119  CA         8.5800   -6.1680  -38.4640 C.3   161  ALA161      0.1694
    120  C          9.5160   -5.1340  -37.8640 C.2   161  ALA161      0.2593
    121  O          9.7170   -5.0790  -36.6490 O.2   161  ALA161     -0.2718
    122  CB         7.2730   -5.4930  -38.8810 C.3   161  ALA161      0.0304
    123  N         10.0760   -4.3050  -38.7450 N.am  162  GLY162     -0.1942
    124  CA        10.9330   -3.2030  -38.3530 C.3   162  GLY162      0.2014
    125  C         11.9130   -3.5470  -37.2520 C.2   162  GLY162      0.2639
    126  O         12.6390   -4.5330  -37.3560 O.2   162  GLY162     -0.2714
    127  N         11.9210   -2.7650  -36.1710 N.am  163  GLY163     -0.1954
    128  CA        12.8450   -3.0320  -35.0800 C.3   163  GLY163      0.1869
    129  C         12.7430   -4.4320  -34.5090 C.2   163  GLY163      0.2309
    130  O         13.7190   -4.9350  -33.9410 O.2   163  GLY163     -0.2863
    131  N         15.2900   -6.3830  -36.1150 N.3   166  TYR166     -0.1227
    132  CA        16.6600   -5.8860  -36.0920 C.3   166  TYR166      0.1736
    133  C         17.4420   -6.4180  -34.9000 C.2   166  TYR166      0.2596
    134  O         18.6280   -6.7380  -35.0330 O.2   166  TYR166     -0.2718
    135  CB        16.6530   -4.3630  -36.1330 C.3   166  TYR166      0.0548
    136  CG        16.1720   -3.8730  -37.4720 C.ar  166  TYR166     -0.0200
    137  CD1       15.6580   -2.5980  -37.6370 C.ar  166  TYR166     -0.0009
    138  CD2       16.2200   -4.7090  -38.5770 C.ar  166  TYR166     -0.0009
    139  CE1       15.2170   -2.1710  -38.8660 C.ar  166  TYR166      0.0417
    140  CE2       15.7820   -4.2920  -39.7990 C.ar  166  TYR166      0.0417
    141  CZ        15.2830   -3.0250  -39.9390 C.ar  166  TYR166      0.1957
    142  OH        14.8500   -2.6070  -41.1660 O.3   166  TYR166     -0.2866
    143  N         16.8080   -6.5390  -33.7370 N.am  167  SER167     -0.1952
    144  CA        17.4720   -7.2400  -32.6400 C.3   167  SER167      0.1924
    145  C         17.7310   -8.7010  -32.9800 C.2   167  SER167      0.2314
    146  O         18.8920   -9.1360  -32.8690 O.2   167  SER167     -0.2863
    147  CB        16.6670   -7.0830  -31.3460 C.3   167  SER167      0.2116
    148  OG        16.5670   -5.7210  -30.9800 O.3   167  SER167     -0.2180
    149  N         20.7480   -9.1300  -34.8160 N.3   170  LEU170     -0.1245
    150  CA        22.0000   -8.9330  -34.1010 C.3   170  LEU170      0.1561
    151  C         22.3590  -10.0790  -33.1680 C.2   170  LEU170      0.2260
    152  O         23.5180  -10.1720  -32.7500 O.2   170  LEU170     -0.2867
    153  CB        21.9440   -7.6270  -33.3060 C.3   170  LEU170      0.0270
    154  CG        22.0740   -6.3980  -34.2050 C.3   170  LEU170      0.0019
    155  CD1       21.6610   -5.1260  -33.4860 C.3   170  LEU170      0.0001
    156  CD2       23.5040   -6.2940  -34.7080 C.3   170  LEU170      0.0001
    157  N         10.0950   -9.2850  -41.8090 N.3   184  PHE184     -0.1227
    158  CA        10.1840   -8.2830  -42.8610 C.3   184  PHE184      0.1736
    159  C         10.7770   -7.0250  -42.2680 C.2   184  PHE184      0.2595
    160  O         10.8140   -6.8520  -41.0490 O.2   184  PHE184     -0.2718
    161  CB         8.8220   -7.9000  -43.4270 C.3   184  PHE184      0.0547
    162  CG         7.8130   -8.9790  -43.3400 C.ar  184  PHE184     -0.0202
    163  CD1        7.8790  -10.0440  -44.2180 C.ar  184  PHE184     -0.0042
    164  CD2        6.8090   -8.9430  -42.3780 C.ar  184  PHE184     -0.0042
    165  CE1        6.9720  -11.0560  -44.1600 C.ar  184  PHE184     -0.0003
    166  CE2        5.8870   -9.9560  -42.3070 C.ar  184  PHE184     -0.0003
    167  CZ         5.9520  -10.9990  -43.2290 C.ar  184  PHE184     -0.0000
    168  N         11.1700   -6.1080  -43.1410 N.am  185  VAL185     -0.1966
    169  CA        11.4060   -4.7480  -42.6850 C.3   185  VAL185      0.1727
    170  C         10.0810   -4.0160  -42.5210 C.2   185  VAL185      0.2617
    171  O          9.7300   -3.5610  -41.4260 O.2   185  VAL185     -0.2715
    172  CB        12.3590   -4.0180  -43.6430 C.3   185  VAL185      0.0290
    173  CG1       12.6270   -2.6170  -43.1340 C.3   185  VAL185      0.0023
    174  CG2       13.6570   -4.8080  -43.7640 C.3   185  VAL185      0.0023
    175  N          9.3080   -3.9400  -43.5970 N.am  186  THR186     -0.1937
    176  CA         7.9370   -3.4590  -43.5680 C.3   186  THR186      0.2028
    177  C          7.0340   -4.5310  -44.1640 C.2   186  THR186      0.2643
    178  O          7.4740   -5.3650  -44.9630 O.2   186  THR186     -0.2714
    179  CB         7.7950   -2.1730  -44.3590 C.3   186  THR186      0.1808
    180  OG1        6.4230   -1.7880  -44.4150 O.3   186  THR186     -0.2208
    181  CG2        8.1690   -2.4540  -45.7040 C.3   186  THR186      0.0379
    182  N          5.7640   -4.4990  -43.7770 N.am  187  GLY187     -0.1940
    183  CA         4.8280   -5.5270  -44.1630 C.3   187  GLY187      0.1999
    184  C          4.4800   -5.5170  -45.6380 C.2   187  GLY187      0.2481
    185  O          4.7400   -4.5490  -46.3600 O.2   187  GLY187     -0.2729
    186  N          3.8620   -6.6070  -46.1080 N.am  188  PRO188     -0.2715
    187  CA         3.5020   -6.6910  -47.5360 C.3   188  PRO188      0.1536
    188  C          2.5360   -5.6090  -47.9890 C.2   188  PRO188      0.2598
    189  O          2.6740   -5.0950  -49.1070 O.2   188  PRO188     -0.2715
    190  CB         2.8840   -8.0930  -47.6540 C.3   188  PRO188      0.0310
    191  CG         2.4800   -8.4610  -46.2540 C.3   188  PRO188      0.0237
    192  CD         3.4910   -7.8200  -45.3630 C.3   188  PRO188      0.0939
    193  N          1.5540   -5.2520  -47.1560 N.am  189  GLU189     -0.1964
    194  CA         0.6280   -4.1840  -47.5220 C.3   189  GLU189      0.1733
    195  C          1.3650   -2.8630  -47.7080 C.2   189  GLU189      0.2616
    196  O          1.1370   -2.1440  -48.6870 O.2   189  GLU189     -0.2715
    197  CB        -0.4710   -4.0460  -46.4650 C.3   189  GLU189      0.0429
    198  CG        -1.7760   -4.7820  -46.7780 C.3   189  GLU189      0.1163
    199  CD        -2.2340   -4.6170  -48.2190 C.2   189  GLU189      0.3649
    200  OE1       -2.0520   -5.5630  -49.0130 O.co2 189  GLU189     -0.2457
    201  OE2       -2.7770   -3.5440  -48.5610 O.co2 189  GLU189     -0.2457
    202  N          2.2670   -2.5300  -46.7800 N.am  190  VAL190     -0.1977
    203  CA         3.0510   -1.3080  -46.9280 C.3   190  VAL190      0.1596
    204  C          4.0590   -1.4450  -48.0680 C.2   190  VAL190      0.2287
    205  O          4.3680   -0.4590  -48.7480 O.2   190  VAL190     -0.2864
    206  CB         3.7410   -0.9420  -45.5990 C.3   190  VAL190      0.0276
    207  CG1        4.4610    0.3970  -45.7160 C.3   190  VAL190      0.0022
    208  CG2        2.7360   -0.9110  -44.4530 C.3   190  VAL190      0.0022
@<TRIPOS>BOND
     1   189   188    2
     2   200   199   ar
     3   205   204    2
     4   196   195    2
     5   201   199   ar
     6   199   198    1
     7   204   203    1
     8   188   187    1
     9   188   193   am
    10   195   194    1
    11   195   202   am
    12   190   187    1
    13   190   191    1
    14   187   186    1
    15   194   193    1
    16   194   197    1
    17   203   202    1
    18   203   206    1
    19   198   197    1
    20   185   184    2
    21   191   192    1
    22   186   184   am
    23   186   192    1
    24   207   206    1
    25   181   179    1
    26   184   183    1
    27   206   208    1
    28   178   177    2
    29   180   179    1
    30   179   176    1
    31   163   165   ar
    32   163   162   ar
    33   177   182   am
    34   177   176    1
    35   183   182    1
    36   165   167   ar
    37   174   172    1
    38   172   173    1
    39   172   169    1
    40   175   176    1
    41   175   170   am
    42   161   162    1
    43   161   158    1
    44   162   164   ar
    45   167   166   ar
    46   168   169    1
    47   168   159   am
    48   158   159    1
    49   158   157    1
    50   169   170    1
    51   170   171    2
    52   164   166   ar
    53   159   160    2
    54   142   141    1
    55   141   140   ar
    56   141   139   ar
    57   140   138   ar
    58   122   119    1
    59   139   137   ar
    60   123   124    1
    61   123   120   am
    62   138   136   ar
    63   119   120    1
    64   119   118    1
    65   124   125    1
    66   120   121    2
    67   115   112    1
    68   115   116    1
    69   137   136   ar
    70   136   135    1
    71   126   125    2
    72   112   113    1
    73   112   111    1
    74   125   127   am
    75   116   117    1
    76   113   114    2
    77    70    68    1
    78   111   117    1
    79   127   128    1
    80   135   132    1
    81   131   132    1
    82   132   133    1
    83    42    41    2
    84    68    67    1
    85     4     3    2
    86    69    67    1
    87   128   129    1
    88     9     8    1
    89   134   133    2
    90     8     7    1
    91   133   143   am
    92     6     7    1
    93     6     5    1
    94    41    40    1
    95    41    43   am
    96   149   150    1
    97     2     3    1
    98     2     5    1
    99     2     1    1
   100   156   154    1
   101    40    39    1
   102    67    64    1
   103   129   130    2
   104    20    18   ar
   105    20    19   ar
   106    87    85    1
   107    44    43    1
   108    44    45    1
   109   154   155    1
   110   154   153    1
   111   150   153    1
   112   150   151    1
   113    18    16   ar
   114    19    17   ar
   115   143   144    1
   116    50    49    2
   117    85    84    1
   118    47    45   am
   119    47    48    1
   120    86    84    1
   121    64    63    1
   122    64    65    1
   123    45    46    2
   124    51    48    1
   125   151   152    2
   126   145   146    2
   127   145   144    1
   128    84    81    1
   129    16    15   ar
   130    48    49    1
   131    49    52   am
   132    63    54   am
   133   144   147    1
   134    66    65    2
   135    17    15   ar
   136    65    71   am
   137    15    14    1
   138   105   104    1
   139    32    31    2
   140    81    80    1
   141    81    82    1
   142    54    53    1
   143    54    55    2
   144    71    72    1
   145    30    31    1
   146    30    29    1
   147    97    95   ar
   148    97    98   ar
   149    52    53    1
   150    95    93   ar
   151   147   148    1
   152    53    56    1
   153    99    98    1
   154    98    96   ar
   155    78    77    2
   156    93    92    1
   157    93    94   ar
   158    92    89    1
   159   106   104    1
   160    77    79   am
   161    77    76    1
   162    96    94   ar
   163    83    82    2
   164    37    34    1
   165    37    38    1
   166   104   101    1
   167    72    75    1
   168    72    73    1
   169    76    75    1
   170    14    11    1
   171    24    23    2
   172    29    23   am
   173   101   100    1
   174   101   102    1
   175   100    90   am
   176   108   109    1
   177   108   107    1
   178    23    22    1
   179    13    12    2
   180    34    33    1
   181    34    35    1
   182    90    91    2
   183    90    89    1
   184   110   109    2
   185    89    88    1
   186    56    57    1
   187    73    74    2
   188    57    58    1
   189    11    12    1
   190    11    10    1
   191   103   102    2
   192    22    25    1
   193    22    21    1
   194    35    36    2
   195    25    26    1
   196    58    59    1
   197    28    26    1
   198    26    27    1
   199    59    60    2
   200    61    60    1
   201    60    62    1
