@<TRIPOS>MOLECULE
tmp/5injA02.pdb
 176 165 0 0 0
SMALL
GASTEIGER

@<TRIPOS>ATOM
      1  N        -26.1240   25.8820    9.0830 N.3    62  GLU62      -0.1245
      2  CA       -25.1660   25.0120    9.7710 C.3    62  GLU62       0.1567
      3  C        -24.4050   24.2890    8.6970 C.2    62  GLU62       0.2260
      4  O        -25.0110   23.9160    7.7120 O.2    62  GLU62      -0.2867
      5  CB       -25.8310   23.9960   10.7050 C.3    62  GLU62       0.0388
      6  CG       -24.8420   23.0810   11.5390 C.3    62  GLU62       0.1160
      7  CD       -25.5850   21.9970   12.2910 C.2    62  GLU62       0.3649
      8  OE1      -25.9970   21.0350   11.5770 O.co2  62  GLU62      -0.2457
      9  OE2      -25.8130   22.1120   13.5050 O.co2  62  GLU62      -0.2457
     10  N        -21.4630   20.1700    2.9260 N.3    76  ARG76      -0.1245
     11  CA       -22.8900   20.3190    2.8680 C.3    76  ARG76       0.1563
     12  C        -23.2520   21.5020    3.7650 C.2    76  ARG76       0.2260
     13  O        -22.4720   21.9360    4.6140 O.2    76  ARG76      -0.2867
     14  CB       -23.6570   19.1380    3.3070 C.3    76  ARG76       0.0307
     15  CG       -23.0980   17.8200    2.6320 C.3    76  ARG76       0.0489
     16  CD       -21.9630   17.0470    3.3760 C.3    76  ARG76       0.2205
     17  NE       -22.5190   16.6680    4.6490 N.pl3  76  ARG76      -0.0865
     18  CZ       -23.4710   15.7370    4.8290 C.cat  76  ARG76       0.5346
     19  NH1      -23.6730   14.8210    3.8910 N.pl3  76  ARG76       0.1354
     20  NH2      -24.1640   15.6680    5.9760 N.pl3  76  ARG76       0.1354
     21  N        -26.8290   23.3210    5.6300 N.3    78  LEU78      -0.1245
     22  CA       -28.1910   23.1990    6.0630 C.3    78  LEU78       0.1561
     23  C        -28.7040   24.5930    6.3450 C.2    78  LEU78       0.2260
     24  O        -28.0540   25.3820    7.0140 O.2    78  LEU78      -0.2867
     25  CB       -28.2100   22.3760    7.3130 C.3    78  LEU78       0.0270
     26  CG       -29.5240   22.1490    7.9920 C.3    78  LEU78       0.0019
     27  CD1      -30.4980   21.3570    7.1930 C.3    78  LEU78       0.0001
     28  CD2      -29.2450   21.5770    9.4220 C.3    78  LEU78       0.0001
     29  N        -36.5400   22.6470    6.6940 N.3   133  TRP133     -0.1241
     30  CA       -35.1490   23.0030    6.4500 C.3   133  TRP133      0.1605
     31  C        -34.7240   22.3250    5.1400 C.2   133  TRP133      0.2264
     32  O        -35.3320   21.3520    4.6950 O.2   133  TRP133     -0.2867
     33  CB       -34.1470   22.5410    7.5210 C.3   133  TRP133      0.0550
     34  CG       -34.5150   23.0410    8.8970 C.ar  133  TRP133      0.0003
     35  CD1      -35.1970   24.1890    9.2120 C.ar  133  TRP133      0.0946
     36  CD2      -34.2290   22.4000   10.1330 C.ar  133  TRP133      0.0152
     37  NE1      -35.3470   24.3090   10.5840 N.ar  133  TRP133     -0.2442
     38  CE2      -34.7460   23.2200   11.1860 C.ar  133  TRP133      0.0810
     39  CE3      -33.5680   21.2290   10.4520 C.ar  133  TRP133      0.0012
     40  CZ2      -34.6900   22.8530   12.5270 C.ar  133  TRP133      0.0191
     41  CZ3      -33.4590   20.8760   11.7570 C.ar  133  TRP133      0.0001
     42  CH2      -34.0230   21.6730   12.8050 C.ar  133  TRP133      0.0015
     43  N        -25.9580   19.4500   -0.7830 N.3   137  GLU137     -0.1245
     44  CA       -24.6820   18.7570   -0.9140 C.3   137  GLU137      0.1567
     45  C        -23.9200   19.4170   -2.0390 C.2   137  GLU137      0.2260
     46  O        -24.3420   19.3390   -3.2120 O.2   137  GLU137     -0.2867
     47  CB       -24.9060   17.2610   -1.1370 C.3   137  GLU137      0.0388
     48  CG       -25.6380   16.5860    0.0520 C.3   137  GLU137      0.1160
     49  CD       -25.1020   15.1970    0.3150 C.2   137  GLU137      0.3649
     50  OE1      -24.1600   14.7590   -0.3980 O.co2 137  GLU137     -0.2457
     51  OE2      -25.6320   14.5330    1.2120 O.co2 137  GLU137     -0.2457
     52  N        -31.7650   18.0620   -0.1060 N.3   147  LYS147     -0.1245
     53  CA       -32.4380   17.2500    0.8830 C.3   147  LYS147      0.1561
     54  C        -33.3750   18.1800    1.6330 C.2   147  LYS147      0.2260
     55  O        -33.0120   19.3530    1.8570 O.2   147  LYS147     -0.2867
     56  CB       -31.3830   16.7050    1.8760 C.3   147  LYS147      0.0271
     57  CG       -30.2910   15.8120    1.1760 C.3   147  LYS147      0.0035
     58  CD       -29.2430   15.2280    2.1680 C.3   147  LYS147      0.0206
     59  CE       -28.3120   16.2220    2.7370 C.3   147  LYS147      0.1093
     60  NZ       -27.1120   15.5710    3.4110 N.3   147  LYS147     -0.1314
     61  N        -36.0450   18.5690    5.0660 N.3   149  TYR149     -0.1241
     62  CA       -36.3350   18.0800    6.4070 C.3   149  TYR149      0.1605
     63  C        -37.6660   18.6480    6.8470 C.2   149  TYR149      0.2264
     64  O        -37.9030   19.8730    6.7910 O.2   149  TYR149     -0.2867
     65  CB       -35.2240   18.5010    7.3930 C.3   149  TYR149      0.0534
     66  CG       -33.8470   18.0880    6.9830 C.ar  149  TYR149     -0.0201
     67  CD1      -33.1640   18.8210    6.0060 C.ar  149  TYR149     -0.0009
     68  CD2      -33.2390   16.9530    7.5000 C.ar  149  TYR149     -0.0009
     69  CE1      -31.8710   18.4970    5.5910 C.ar  149  TYR149      0.0417
     70  CE2      -31.9630   16.5720    7.0350 C.ar  149  TYR149      0.0417
     71  CZ       -31.2950   17.3620    6.0840 C.ar  149  TYR149      0.1957
     72  OH       -29.9960   17.1040    5.6230 O.3   149  TYR149     -0.2866
     73  N        -37.6230   14.1960   13.0770 N.3   188  PHE188     -0.1241
     74  CA       -37.4770   14.6350   11.7000 C.3   188  PHE188      0.1605
     75  C        -37.8350   13.5260   10.7480 C.2   188  PHE188      0.2264
     76  O        -37.6380   12.3400   11.0380 O.2   188  PHE188     -0.2867
     77  CB       -36.0600   15.0800   11.3470 C.3   188  PHE188      0.0534
     78  CG       -35.4210   16.0080   12.3770 C.ar  188  PHE188     -0.0203
     79  CD1      -35.8040   17.3690   12.4650 C.ar  188  PHE188     -0.0042
     80  CD2      -34.4990   15.5320   13.2970 C.ar  188  PHE188     -0.0042
     81  CE1      -35.2080   18.1750   13.4320 C.ar  188  PHE188     -0.0003
     82  CE2      -33.9350   16.3790   14.2050 C.ar  188  PHE188     -0.0003
     83  CZ       -34.3230   17.6730   14.2910 C.ar  188  PHE188     -0.0000
     84  N        -33.1220    8.4210   -0.6180 N.3   200  ARG200     -0.1245
     85  CA       -33.6320    7.8610    0.6320 C.3   200  ARG200      0.1563
     86  C        -34.8340    8.6330    1.1530 C.2   200  ARG200      0.2260
     87  O        -34.9810    9.8530    0.9200 O.2   200  ARG200     -0.2867
     88  CB       -32.5510    7.9880    1.7410 C.3   200  ARG200      0.0307
     89  CG       -31.2010    7.3480    1.3410 C.3   200  ARG200      0.0489
     90  CD       -29.9910    7.8430    2.2020 C.3   200  ARG200      0.2205
     91  NE       -29.7830    9.2680    1.9360 N.pl3 200  ARG200     -0.0865
     92  CZ       -29.0240   10.0590    2.6560 C.cat 200  ARG200      0.5346
     93  NH1      -28.9280   11.3260    2.3160 N.pl3 200  ARG200      0.1354
     94  NH2      -28.3540    9.5800    3.7050 N.pl3 200  ARG200      0.1354
     95  N        -35.6870    9.2020    4.9500 N.3   202  LYS202     -0.1245
     96  CA       -34.9220    9.0790    6.1930 C.3   202  LYS202      0.1561
     97  C        -35.8210    9.3580    7.4070 C.2   202  LYS202      0.2260
     98  O        -36.4200   10.4200    7.5220 O.2   202  LYS202     -0.2867
     99  CB       -33.7170   10.0510    6.1150 C.3   202  LYS202      0.0271
    100  CG       -32.7040    9.6880    5.1190 C.3   202  LYS202      0.0035
    101  CD       -32.0630   10.9180    4.5210 C.3   202  LYS202      0.0206
    102  CE       -31.2210   11.6360    5.6200 C.3   202  LYS202      0.1093
    103  NZ       -30.6100   12.8820    5.0180 N.3   202  LYS202     -0.1314
    104  N        -35.8510    9.8360   11.4370 N.3   204  TYR204     -0.1241
    105  CA       -35.0000   10.1280   12.5800 C.3   204  TYR204      0.1605
    106  C        -35.7600    9.8040   13.8490 C.2   204  TYR204      0.2264
    107  O        -36.9220   10.1760   13.9800 O.2   204  TYR204     -0.2867
    108  CB       -34.6290   11.5790   12.6440 C.3   204  TYR204      0.0534
    109  CG       -33.7370   11.9900   11.4830 C.ar  204  TYR204     -0.0201
    110  CD1      -34.2260   12.1960   10.2350 C.ar  204  TYR204     -0.0009
    111  CD2      -32.3920   12.2390   11.6880 C.ar  204  TYR204     -0.0009
    112  CE1      -33.4320   12.5500    9.2040 C.ar  204  TYR204      0.0417
    113  CE2      -31.5610   12.6260   10.6520 C.ar  204  TYR204      0.0417
    114  CZ       -32.1130   12.8180    9.4180 C.ar  204  TYR204      0.1957
    115  OH       -31.3600   13.2860    8.3180 O.3   204  TYR204     -0.2866
    116  N        -29.5440   10.5380   18.4810 N.3   252  LEU252     -0.1245
    117  CA       -30.5760   10.2100   17.4850 C.3   252  LEU252      0.1561
    118  C        -30.0840    9.0880   16.5930 C.2   252  LEU252      0.2260
    119  O        -28.8920    8.9300   16.4230 O.2   252  LEU252     -0.2867
    120  CB       -30.9070   11.3680   16.5570 C.3   252  LEU252      0.0270
    121  CG       -31.1880   12.6550   17.2850 C.3   252  LEU252      0.0019
    122  CD1      -31.5550   13.6580   16.1620 C.3   252  LEU252      0.0001
    123  CD2      -32.2420   12.6220   18.3420 C.3   252  LEU252      0.0001
    124  N        -30.9700    7.4590   12.5870 N.3   254  CYS254     -0.1235
    125  CA       -31.6560    7.7510   11.3540 C.3   254  CYS254      0.1677
    126  C        -31.6570    6.4140   10.6360 C.2   254  CYS254      0.2270
    127  O        -30.6330    5.7380   10.5710 O.2   254  CYS254     -0.2867
    128  CB       -30.9000    8.7840   10.5390 C.3   254  CYS254      0.0956
    129  SG       -31.7170    9.1910    8.9800 S.3   254  CYS254     -0.0801
    130  N        -27.6350    5.7370   10.6380 N.3   269  THR269     -0.1218
    131  CA       -26.6720    6.7280   11.1430 C.3   269  THR269      0.1862
    132  C        -26.9990    6.9210   12.6240 C.2   269  THR269      0.2287
    133  O        -28.1710    6.9600   12.9990 O.2   269  THR269     -0.2866
    134  CB       -26.8020    8.0200   10.4430 C.3   269  THR269      0.1770
    135  OG1      -26.3980    7.8280    9.0910 O.3   269  THR269     -0.2211
    136  CG2      -25.9310    9.0980   11.0740 C.3   269  THR269      0.0375
    137  N        -26.2500    9.6280   15.4870 N.3   271  HIS271     -0.1241
    138  CA       -25.8810   11.0440   15.7060 C.3   271  HIS271      0.1621
    139  C        -25.6830   11.3340   17.2030 C.2   271  HIS271      0.2264
    140  O        -26.6240   11.1130   17.9860 O.2   271  HIS271     -0.2867
    141  CB       -27.0380   11.9400   15.2360 C.3   271  HIS271      0.0745
    142  CG       -27.2830   11.9160   13.7710 C.ar  271  HIS271      0.0817
    143  ND1      -26.5100   12.6460   12.9130 N.ar  271  HIS271     -0.2268
    144  CD2      -28.2230   11.3000   13.0350 C.ar  271  HIS271      0.1154
    145  CE1      -26.9390   12.4590   11.6910 C.ar  271  HIS271      0.1986
    146  NE2      -27.9780   11.6540   11.7230 N.ar  271  HIS271     -0.2212
    147  N        -21.9880    6.8420    9.8850 N.3   327  VAL327     -0.1245
    148  CA       -22.9730    6.6430    8.8460 C.3   327  VAL327      0.1561
    149  C        -22.7350    5.3340    8.0950 C.2   327  VAL327      0.2260
    150  O        -21.6410    5.1220    7.5640 O.2   327  VAL327     -0.2867
    151  CB       -22.8340    7.7800    7.8530 C.3   327  VAL327      0.0252
    152  CG1      -23.8570    7.6010    6.7320 C.3   327  VAL327      0.0019
    153  CG2      -23.0320    9.1310    8.5060 C.3   327  VAL327      0.0019
    154  N        -18.8610    6.2530    6.6830 N.3   335  ARG335     -0.1245
    155  CA       -18.5400    7.6680    6.6230 C.3   335  ARG335      0.1563
    156  C        -18.7320    8.2590    8.0280 C.2   335  ARG335      0.2260
    157  O        -19.5190    7.7440    8.8310 O.2   335  ARG335     -0.2867
    158  CB       -19.5690    8.2780    5.6580 C.3   335  ARG335      0.0307
    159  CG       -19.7170    9.6810    5.6090 C.3   335  ARG335      0.0489
    160  CD       -20.5500   10.0610    4.3210 C.3   335  ARG335      0.2205
    161  NE       -21.9860    9.7010    4.2180 N.pl3 335  ARG335     -0.0865
    162  CZ       -23.0610   10.4310    4.6020 C.cat 335  ARG335      0.5346
    163  NH1      -24.2710    9.9710    4.3050 N.pl3 335  ARG335      0.1354
    164  NH2      -23.0060   11.5650    5.3380 N.pl3 335  ARG335      0.1354
    165  N        -20.6970   18.0250   12.1380 N.3   339  TYR339     -0.1241
    166  CA       -21.6280   19.1660   11.9380 C.3   339  TYR339      0.1605
    167  C        -21.0440   20.3570   12.6610 C.2   339  TYR339      0.2264
    168  O        -20.7260   20.2910   13.8780 O.2   339  TYR339     -0.2867
    169  CB       -23.0330   18.7860   12.4590 C.3   339  TYR339      0.0534
    170  CG       -23.6180   17.6950   11.6640 C.ar  339  TYR339     -0.0201
    171  CD1      -23.3800   16.3930   11.9850 C.ar  339  TYR339     -0.0009
    172  CD2      -24.5320   17.9840   10.6920 C.ar  339  TYR339     -0.0009
    173  CE1      -23.9530   15.4000   11.1690 C.ar  339  TYR339      0.0417
    174  CE2      -25.0550   17.0580    9.8220 C.ar  339  TYR339      0.0417
    175  CZ       -24.7750   15.7700   10.0950 C.ar  339  TYR339      0.1957
    176  OH       -25.2400   14.6490    9.3340 O.3   339  TYR339     -0.2866
@<TRIPOS>BOND
     1    46    45    2
     2    45    44    1
     3    47    44    1
     4    47    48    1
     5    44    43    1
     6    84    85    1
     7    50    49   ar
     8    52    53    1
     9    48    49    1
    10    49    51   ar
    11    85    86    1
    12    85    88    1
    13    53    54    1
    14    53    56    1
    15    87    86    2
    16    57    56    1
    17    57    58    1
    18    89    88    1
    19    89    90    1
    20    54    55    2
    21    91    90    1
    22    91    92    2
    23    58    59    1
    24    93    92    1
    25    15    14    1
    26    15    16    1
    27    92    94    1
    28    59    60    1
    29    11    10    1
    30    11    14    1
    31    11    12    1
    32    16    17    1
    33    12    13    2
    34    19    18    1
    35   161   160    1
    36   161   162    2
    37   163   162    1
    38   160   159    1
    39   101   100    1
    40   101   102    1
    41   162   164    1
    42    17    18    2
    43    32    31    2
    44    18    20    1
    45    95    96    1
    46   103   102    1
    47    61    62    1
    48   100    99    1
    49    31    30    1
    50    69    67   ar
    51    69    71   ar
    52   159   158    1
    53    72    71    1
    54    21    22    1
    55   158   155    1
    56    67    66   ar
    57    22    23    1
    58    22    25    1
    59    71    70   ar
    60    99    96    1
    61    96    97    1
    62    23    24    2
    63    62    63    1
    64    62    65    1
    65    30    29    1
    66    30    33    1
    67   155   154    1
    68   155   156    1
    69   152   151    1
    70    64    63    2
    71    66    65    1
    72    66    68   ar
    73    70    68   ar
    74    27    26    1
    75    25    26    1
    76    97    98    2
    77    33    34    1
    78   150   149    2
    79     4     3    2
    80   151   153    1
    81   151   148    1
    82    26    28    1
    83   156   157    2
    84   149   148    1
    85   115   114    1
    86     3     2    1
    87   148   147    1
    88    34    35   ar
    89    34    36   ar
    90   129   128    1
    91     1     2    1
    92   135   134    1
    93   112   114   ar
    94   112   110   ar
    95    35    37   ar
    96   176   175    1
    97   114   113   ar
    98     2     5    1
    99   174   175   ar
   100   174   172   ar
   101   175   173   ar
   102    36    39   ar
   103    36    38   ar
   104   110   109   ar
   105   134   136    1
   106   134   131    1
   107    39    41   ar
   108   128   125    1
   109   127   126    2
   110    37    38   ar
   111   126   125    1
   112   130   131    1
   113   113   111   ar
   114   172   170   ar
   115     5     6    1
   116    75    76    2
   117    75    74    1
   118   131   132    1
   119   173   171   ar
   120    38    40   ar
   121    77    74    1
   122    77    78    1
   123   125   124    1
   124   104   105    1
   125   109   111   ar
   126   109   108    1
   127     6     7    1
   128     8     7   ar
   129   170   171   ar
   130   170   169    1
   131   145   146   ar
   132   145   143   ar
   133    74    73    1
   134   146   144   ar
   135    41    42   ar
   136   166   165    1
   137   166   169    1
   138   166   167    1
   139     7     9   ar
   140    78    79   ar
   141    78    80   ar
   142    79    81   ar
   143    40    42   ar
   144   105   108    1
   145   105   106    1
   146   132   133    2
   147   167   168    2
   148   143   142   ar
   149   144   142   ar
   150    80    82   ar
   151    81    83   ar
   152   142   141    1
   153   106   107    2
   154    82    83   ar
   155   141   138    1
   156   137   138    1
   157   138   139    1
   158   122   121    1
   159   119   118    2
   160   120   121    1
   161   120   117    1
   162   118   117    1
   163   139   140    2
   164   121   123    1
   165   117   116    1
