@<TRIPOS>MOLECULE
tmp/5injA00.pdb
 151 147 0 0 0
SMALL
GASTEIGER

@<TRIPOS>ATOM
      1  N        -34.8350   26.2040   15.4690 N.3    53  PHE53      -0.1227
      2  CA       -34.2250   25.0230   16.0790 C.3    53  PHE53       0.1736
      3  C        -33.0770   24.4680   15.2640 C.2    53  PHE53       0.2595
      4  O        -32.3440   23.5740   15.7240 O.2    53  PHE53      -0.2718
      5  CB       -35.3450   23.9360   16.2710 C.3    53  PHE53       0.0547
      6  CG       -34.9200   22.6640   16.9690 C.ar   53  PHE53      -0.0202
      7  CD1      -34.2070   22.6950   18.1310 C.ar   53  PHE53      -0.0042
      8  CD2      -35.2960   21.3870   16.4290 C.ar   53  PHE53      -0.0042
      9  CE1      -33.8130   21.5080   18.7590 C.ar   53  PHE53      -0.0003
     10  CE2      -34.9440   20.2440   17.0560 C.ar   53  PHE53      -0.0003
     11  CZ       -34.1750   20.2750   18.1950 C.ar   53  PHE53      -0.0000
     12  N        -32.7820   25.0850   14.1310 N.am   54  LEU54      -0.1966
     13  CA       -31.7240   24.5530   13.2490 C.3    54  LEU54       0.1728
     14  C        -30.3940   24.5880   13.9700 C.2    54  LEU54       0.2617
     15  O        -29.5930   23.6550   13.9020 O.2    54  LEU54      -0.2715
     16  CB       -31.6770   25.4000   12.0330 C.3    54  LEU54       0.0311
     17  CG       -30.7840   24.8560   10.8820 C.3    54  LEU54       0.0022
     18  CD1      -31.2740   25.5230    9.5970 C.3    54  LEU54       0.0001
     19  CD2      -29.3770   25.1780   11.0250 C.3    54  LEU54       0.0001
     20  N        -30.1440   25.6210   14.7710 N.am   55  SER55      -0.1936
     21  CA       -28.8950   25.7380   15.5430 C.3    55  SER55       0.2055
     22  C        -29.2160   26.3070   16.9210 C.2    55  SER55       0.2643
     23  O        -30.2310   27.0290   17.0770 O.2    55  SER55      -0.2714
     24  CB       -27.7880   26.5740   14.8660 C.3    55  SER55       0.2130
     25  OG       -28.1810   27.9480   14.7540 O.3    55  SER55      -0.2179
     26  N        -28.3100   26.1050   17.8580 N.am   56  ASP56      -0.1971
     27  CA       -28.6320   26.5610   19.2300 C.3    56  ASP56       0.1709
     28  C        -28.7400   28.0630   19.3370 C.2    56  ASP56       0.2293
     29  O        -29.4530   28.5650   20.2060 O.2    56  ASP56      -0.2864
     30  CB       -27.5830   26.0170   20.2570 C.3    56  ASP56       0.1436
     31  CG       -27.7450   24.5450   20.5550 C.2    56  ASP56       0.3671
     32  OD1      -28.6710   23.8760   20.0700 O.co2  56  ASP56      -0.2456
     33  OD2      -26.8830   24.0400   21.2970 O.co2  56  ASP56      -0.2456
     34  N        -26.1240   25.8820    9.0830 N.3    62  GLU62      -0.1245
     35  CA       -25.1660   25.0120    9.7710 C.3    62  GLU62       0.1567
     36  C        -24.4050   24.2890    8.6970 C.2    62  GLU62       0.2260
     37  O        -25.0110   23.9160    7.7120 O.2    62  GLU62      -0.2867
     38  CB       -25.8310   23.9960   10.7050 C.3    62  GLU62       0.0388
     39  CG       -24.8420   23.0810   11.5390 C.3    62  GLU62       0.1160
     40  CD       -25.5850   21.9970   12.2910 C.2    62  GLU62       0.3649
     41  OE1      -25.9970   21.0350   11.5770 O.co2  62  GLU62      -0.2457
     42  OE2      -25.8130   22.1120   13.5050 O.co2  62  GLU62      -0.2457
     43  N        -26.8290   23.3210    5.6300 N.3    78  LEU78      -0.1245
     44  CA       -28.1910   23.1990    6.0630 C.3    78  LEU78       0.1561
     45  C        -28.7040   24.5930    6.3450 C.2    78  LEU78       0.2260
     46  O        -28.0540   25.3820    7.0140 O.2    78  LEU78      -0.2867
     47  CB       -28.2100   22.3760    7.3130 C.3    78  LEU78       0.0270
     48  CG       -29.5240   22.1490    7.9920 C.3    78  LEU78       0.0019
     49  CD1      -30.4980   21.3570    7.1930 C.3    78  LEU78       0.0001
     50  CD2      -29.2450   21.5770    9.4220 C.3    78  LEU78       0.0001
     51  N        -36.5400   22.6470    6.6940 N.3   133  TRP133     -0.1241
     52  CA       -35.1490   23.0030    6.4500 C.3   133  TRP133      0.1605
     53  C        -34.7240   22.3250    5.1400 C.2   133  TRP133      0.2264
     54  O        -35.3320   21.3520    4.6950 O.2   133  TRP133     -0.2867
     55  CB       -34.1470   22.5410    7.5210 C.3   133  TRP133      0.0550
     56  CG       -34.5150   23.0410    8.8970 C.ar  133  TRP133      0.0003
     57  CD1      -35.1970   24.1890    9.2120 C.ar  133  TRP133      0.0946
     58  CD2      -34.2290   22.4000   10.1330 C.ar  133  TRP133      0.0152
     59  NE1      -35.3470   24.3090   10.5840 N.ar  133  TRP133     -0.2442
     60  CE2      -34.7460   23.2200   11.1860 C.ar  133  TRP133      0.0810
     61  CE3      -33.5680   21.2290   10.4520 C.ar  133  TRP133      0.0012
     62  CZ2      -34.6900   22.8530   12.5270 C.ar  133  TRP133      0.0191
     63  CZ3      -33.4590   20.8760   11.7570 C.ar  133  TRP133      0.0001
     64  CH2      -34.0230   21.6730   12.8050 C.ar  133  TRP133      0.0015
     65  N        -37.6230   14.1960   13.0770 N.3   188  PHE188     -0.1241
     66  CA       -37.4770   14.6350   11.7000 C.3   188  PHE188      0.1605
     67  C        -37.8350   13.5260   10.7480 C.2   188  PHE188      0.2264
     68  O        -37.6380   12.3400   11.0380 O.2   188  PHE188     -0.2867
     69  CB       -36.0600   15.0800   11.3470 C.3   188  PHE188      0.0534
     70  CG       -35.4210   16.0080   12.3770 C.ar  188  PHE188     -0.0203
     71  CD1      -35.8040   17.3690   12.4650 C.ar  188  PHE188     -0.0042
     72  CD2      -34.4990   15.5320   13.2970 C.ar  188  PHE188     -0.0042
     73  CE1      -35.2080   18.1750   13.4320 C.ar  188  PHE188     -0.0003
     74  CE2      -33.9350   16.3790   14.2050 C.ar  188  PHE188     -0.0003
     75  CZ       -34.3230   17.6730   14.2910 C.ar  188  PHE188     -0.0000
     76  N        -35.8510    9.8360   11.4370 N.3   204  TYR204     -0.1241
     77  CA       -35.0000   10.1280   12.5800 C.3   204  TYR204      0.1605
     78  C        -35.7600    9.8040   13.8490 C.2   204  TYR204      0.2264
     79  O        -36.9220   10.1760   13.9800 O.2   204  TYR204     -0.2867
     80  CB       -34.6290   11.5790   12.6440 C.3   204  TYR204      0.0534
     81  CG       -33.7370   11.9900   11.4830 C.ar  204  TYR204     -0.0201
     82  CD1      -34.2260   12.1960   10.2350 C.ar  204  TYR204     -0.0009
     83  CD2      -32.3920   12.2390   11.6880 C.ar  204  TYR204     -0.0009
     84  CE1      -33.4320   12.5500    9.2040 C.ar  204  TYR204      0.0417
     85  CE2      -31.5610   12.6260   10.6520 C.ar  204  TYR204      0.0417
     86  CZ       -32.1130   12.8180    9.4180 C.ar  204  TYR204      0.1957
     87  OH       -31.3600   13.2860    8.3180 O.3   204  TYR204     -0.2866
     88  N        -28.7550   16.1080   26.1340 N.3   249  ARG249     -0.1245
     89  CA       -29.2820   16.0970   24.7810 C.3   249  ARG249      0.1563
     90  C        -29.1990   14.6830   24.2280 C.2   249  ARG249      0.2260
     91  O        -28.1470   14.0560   24.3170 O.2   249  ARG249     -0.2867
     92  CB       -28.4540   16.9840   23.8890 C.3   249  ARG249      0.0307
     93  CG       -28.6880   18.4670   24.0270 C.3   249  ARG249      0.0489
     94  CD       -28.0350   19.2620   22.8580 C.3   249  ARG249      0.2205
     95  NE       -28.1180   20.6790   23.1080 N.pl3 249  ARG249     -0.0865
     96  CZ       -29.1370   21.4600   22.7660 C.cat 249  ARG249      0.5346
     97  NH1      -29.0850   22.7620   23.0920 N.pl3 249  ARG249      0.1354
     98  NH2      -30.1870   20.9570   22.1060 N.pl3 249  ARG249      0.1354
     99  N        -29.5440   10.5380   18.4810 N.3   252  LEU252     -0.1245
    100  CA       -30.5760   10.2100   17.4850 C.3   252  LEU252      0.1561
    101  C        -30.0840    9.0880   16.5930 C.2   252  LEU252      0.2260
    102  O        -28.8920    8.9300   16.4230 O.2   252  LEU252     -0.2867
    103  CB       -30.9070   11.3680   16.5570 C.3   252  LEU252      0.0270
    104  CG       -31.1880   12.6550   17.2850 C.3   252  LEU252      0.0019
    105  CD1      -31.5550   13.6580   16.1620 C.3   252  LEU252      0.0001
    106  CD2      -32.2420   12.6220   18.3420 C.3   252  LEU252      0.0001
    107  N        -26.2500    9.6280   15.4870 N.3   271  HIS271     -0.1241
    108  CA       -25.8810   11.0440   15.7060 C.3   271  HIS271      0.1621
    109  C        -25.6830   11.3340   17.2030 C.2   271  HIS271      0.2264
    110  O        -26.6240   11.1130   17.9860 O.2   271  HIS271     -0.2867
    111  CB       -27.0380   11.9400   15.2360 C.3   271  HIS271      0.0745
    112  CG       -27.2830   11.9160   13.7710 C.ar  271  HIS271      0.0817
    113  ND1      -26.5100   12.6460   12.9130 N.ar  271  HIS271     -0.2268
    114  CD2      -28.2230   11.3000   13.0350 C.ar  271  HIS271      0.1154
    115  CE1      -26.9390   12.4590   11.6910 C.ar  271  HIS271      0.1986
    116  NE2      -27.9780   11.6540   11.7230 N.ar  271  HIS271     -0.2212
    117  N        -21.8040   18.4570   21.5890 N.3   275  ARG275     -0.1245
    118  CA       -21.7850   19.7550   22.2580 C.3   275  ARG275      0.1563
    119  C        -22.3410   19.7230   23.6530 C.2   275  ARG275      0.2260
    120  O        -22.0690   20.6620   24.4200 O.2   275  ARG275     -0.2867
    121  CB       -22.5330   20.8150   21.4800 C.3   275  ARG275      0.0307
    122  CG       -24.0600   20.6040   21.3000 C.3   275  ARG275      0.0489
    123  CD       -24.5870   21.5970   20.3660 C.3   275  ARG275      0.2205
    124  NE       -26.0430   21.6510   20.2310 N.pl3 275  ARG275     -0.0865
    125  CZ       -26.7730   20.8660   19.4860 C.cat 275  ARG275      0.5346
    126  NH1      -28.0230   21.2150   19.3640 N.pl3 275  ARG275      0.1354
    127  NH2      -26.2550   19.8530   18.8070 N.pl3 275  ARG275      0.1354
    128  N        -22.5610   18.0900   16.4120 N.3   323  TYR323     -0.1241
    129  CA       -22.8890   16.6730   16.3460 C.3   323  TYR323      0.1605
    130  C        -21.7410   15.9440   15.6720 C.2   323  TYR323      0.2264
    131  O        -21.0520   16.5150   14.8030 O.2   323  TYR323     -0.2867
    132  CB       -24.1710   16.3370   15.5550 C.3   323  TYR323      0.0534
    133  CG       -25.5020   16.4880   16.1540 C.ar  323  TYR323     -0.0201
    134  CD1      -26.2470   17.6180   16.0000 C.ar  323  TYR323     -0.0009
    135  CD2      -26.0500   15.4160   16.8330 C.ar  323  TYR323     -0.0009
    136  CE1      -27.4960   17.6900   16.5720 C.ar  323  TYR323      0.0417
    137  CE2      -27.2870   15.4550   17.4050 C.ar  323  TYR323      0.0417
    138  CZ       -28.0150   16.6050   17.2560 C.ar  323  TYR323      0.1957
    139  OH       -29.2850   16.6110   17.8150 O.3   323  TYR323     -0.2866
    140  N        -20.6970   18.0250   12.1380 N.3   339  TYR339     -0.1241
    141  CA       -21.6280   19.1660   11.9380 C.3   339  TYR339      0.1605
    142  C        -21.0440   20.3570   12.6610 C.2   339  TYR339      0.2264
    143  O        -20.7260   20.2910   13.8780 O.2   339  TYR339     -0.2867
    144  CB       -23.0330   18.7860   12.4590 C.3   339  TYR339      0.0534
    145  CG       -23.6180   17.6950   11.6640 C.ar  339  TYR339     -0.0201
    146  CD1      -23.3800   16.3930   11.9850 C.ar  339  TYR339     -0.0009
    147  CD2      -24.5320   17.9840   10.6920 C.ar  339  TYR339     -0.0009
    148  CE1      -23.9530   15.4000   11.1690 C.ar  339  TYR339      0.0417
    149  CE2      -25.0550   17.0580    9.8220 C.ar  339  TYR339      0.0417
    150  CZ       -24.7750   15.7700   10.0950 C.ar  339  TYR339      0.1957
    151  OH       -25.2400   14.6490    9.3340 O.3   339  TYR339     -0.2866
@<TRIPOS>BOND
     1    54    53    2
     2    53    52    1
     3    43    44    1
     4    44    45    1
     5    44    47    1
     6    45    46    2
     7    52    51    1
     8    52    55    1
     9    49    48    1
    10    47    48    1
    11    55    56    1
    12    37    36    2
    13    48    50    1
    14    87    86    1
    15    36    35    1
    16    56    57   ar
    17    56    58   ar
    18    34    35    1
    19    84    86   ar
    20    84    82   ar
    21    57    59   ar
    22   151   150    1
    23    86    85   ar
    24    18    17    1
    25    35    38    1
    26   149   150   ar
    27   149   147   ar
    28   150   148   ar
    29    58    61   ar
    30    58    60   ar
    31    82    81   ar
    32    61    63   ar
    33    59    60   ar
    34    85    83   ar
    35   147   145   ar
    36    38    39    1
    37    67    68    2
    38    67    66    1
    39    17    19    1
    40    17    16    1
    41   148   146   ar
    42    60    62   ar
    43    69    66    1
    44    69    70    1
    45    76    77    1
    46    81    83   ar
    47    81    80    1
    48    39    40    1
    49    41    40   ar
    50   145   146   ar
    51   145   144    1
    52   115   116   ar
    53   115   113   ar
    54    66    65    1
    55   116   114   ar
    56    63    64   ar
    57   141   140    1
    58   141   144    1
    59   141   142    1
    60    16    13    1
    61    40    42   ar
    62    70    71   ar
    63    70    72   ar
    64    71    73   ar
    65    62    64   ar
    66    77    80    1
    67    77    78    1
    68   142   143    2
    69   113   112   ar
    70   114   112   ar
    71    13    14    1
    72    13    12    1
    73    72    74   ar
    74    73    75   ar
    75   112   111    1
    76    78    79    2
    77    15    14    2
    78    14    20   am
    79    12     3   am
    80    74    75   ar
    81    25    24    1
    82    20    21    1
    83   131   130    2
    84    24    21    1
    85   111   108    1
    86     3     4    2
    87     3     2    1
    88     1     2    1
    89   107   108    1
    90    21    22    1
    91   132   133    1
    92   132   129    1
    93   130   129    1
    94   108   109    1
    95   134   133   ar
    96   134   136   ar
    97     2     5    1
    98   133   135   ar
    99   105   104    1
   100     5     6    1
   101   129   128    1
   102   102   101    2
   103     8     6   ar
   104     8    10   ar
   105   103   104    1
   106   103   100    1
   107   136   138   ar
   108   101   100    1
   109   135   137   ar
   110    22    23    2
   111    22    26   am
   112     6     7   ar
   113    10    11   ar
   114   109   110    2
   115   138   137   ar
   116   138   139    1
   117   104   106    1
   118   100    99    1
   119    26    27    1
   120     7     9   ar
   121    11     9   ar
   122   127   125    1
   123    27    28    1
   124    27    30    1
   125    28    29    2
   126   126   125    1
   127   125   124    2
   128    32    31   ar
   129   124   123    1
   130    30    31    1
   131   123   122    1
   132    31    33   ar
   133   122   121    1
   134   121   118    1
   135   117   118    1
   136    98    96    1
   137   118   119    1
   138    96    97    1
   139    96    95    2
   140    94    95    1
   141    94    93    1
   142   119   120    2
   143    92    93    1
   144    92    89    1
   145    90    91    2
   146    90    89    1
   147    89    88    1
