@<TRIPOS>MOLECULE
tmp/5inlB00.pdb
 72 69 0 0 0
SMALL
GASTEIGER

@<TRIPOS>ATOM
      1  N         26.7110  -63.6440   21.9600 N.3    24  GLY24      -0.1225
      2  CA        26.8840  -62.8930   23.1940 C.3    24  GLY24       0.1811
      3  C         25.7450  -63.0920   24.1780 C.2    24  GLY24       0.2280
      4  O         25.9730  -63.2170   25.3850 O.2    24  GLY24      -0.2866
      5  N         26.2920  -66.5460   25.6860 N.3    27  SER27      -0.1202
      6  CA        27.3760  -66.5760   26.6650 C.3    27  SER27       0.2020
      7  C         26.8980  -66.0520   28.0140 C.2    27  SER27       0.2619
      8  O         27.3020  -66.5600   29.0670 O.2    27  SER27      -0.2717
      9  CB        28.5750  -65.7680   26.1640 C.3    27  SER27       0.2103
     10  OG        29.1320  -66.3520   24.9980 O.3    27  SER27      -0.2182
     11  N         26.0340  -65.0360   28.0020 N.am   28  CYS28      -0.1969
     12  CA        25.4250  -64.5640   29.2400 C.3    28  CYS28       0.1712
     13  C         24.5320  -65.6370   29.8530 C.2    28  CYS28       0.2296
     14  O         24.5820  -65.8820   31.0630 O.2    28  CYS28      -0.2864
     15  CB        24.6330  -63.2880   28.9620 C.3    28  CYS28       0.0983
     16  SG        23.6940  -62.6670   30.3600 S.3    28  CYS28      -0.0798
     17  N         26.5290  -68.2510   31.6250 N.3    31  LEU31      -0.1231
     18  CA        27.0980  -67.8190   32.8950 C.3    31  LEU31       0.1693
     19  C         26.1170  -68.0290   34.0420 C.2    31  LEU31       0.2592
     20  O         26.5080  -68.4520   35.1360 O.2    31  LEU31      -0.2718
     21  CB        27.5000  -66.3510   32.7910 C.3    31  LEU31       0.0284
     22  CG        28.1250  -65.6960   34.0170 C.3    31  LEU31       0.0019
     23  CD1       29.4510  -66.3540   34.3430 C.3    31  LEU31       0.0001
     24  CD2       28.2990  -64.2130   33.7570 C.3    31  LEU31       0.0001
     25  N         24.8360  -67.7460   33.8120 N.am   32  TYR32      -0.1976
     26  CA        23.8540  -67.7790   34.8850 C.3    32  TYR32       0.1639
     27  C         23.0200  -69.0550   34.9170 C.2    32  TYR32       0.2290
     28  O         22.3950  -69.3350   35.9460 O.2    32  TYR32      -0.2864
     29  CB        22.9440  -66.5500   34.7800 C.3    32  TYR32       0.0560
     30  CG        23.7330  -65.2650   34.9020 C.ar   32  TYR32      -0.0198
     31  CD1       24.3550  -64.9310   36.0990 C.ar   32  TYR32      -0.0009
     32  CD2       23.8800  -64.4010   33.8260 C.ar   32  TYR32      -0.0009
     33  CE1       25.0830  -63.7720   36.2270 C.ar   32  TYR32       0.0417
     34  CE2       24.6140  -63.2340   33.9450 C.ar   32  TYR32       0.0417
     35  CZ        25.2170  -62.9280   35.1500 C.ar   32  TYR32       0.1957
     36  OH        25.9530  -61.7690   35.2890 O.3    32  TYR32      -0.2866
     37  N         20.6390  -56.4900   36.3260 N.3   223  LEU223     -0.1231
     38  CA        20.7610  -56.3240   34.8840 C.3   223  LEU223      0.1693
     39  C         21.8500  -57.2430   34.3430 C.2   223  LEU223      0.2592
     40  O         22.8800  -57.4580   34.9900 O.2   223  LEU223     -0.2718
     41  CB        21.0990  -54.8750   34.5300 C.3   223  LEU223      0.0284
     42  CG        20.1290  -53.7850   34.9920 C.3   223  LEU223      0.0019
     43  CD1       20.7010  -52.3970   34.7010 C.3   223  LEU223      0.0001
     44  CD2       18.7630  -53.9550   34.3500 C.3   223  LEU223      0.0001
     45  N         21.6190  -57.7890   33.1470 N.am  224  VAL224     -0.1966
     46  CA        22.6290  -58.5630   32.4350 C.3   224  VAL224      0.1727
     47  C         22.7510  -58.0390   31.0060 C.2   224  VAL224      0.2617
     48  O         21.9190  -57.2690   30.5220 O.2   224  VAL224     -0.2715
     49  CB        22.3310  -60.0790   32.4260 C.3   224  VAL224      0.0290
     50  CG1       22.2980  -60.6340   33.8510 C.3   224  VAL224      0.0023
     51  CG2       21.0370  -60.3800   31.6860 C.3   224  VAL224      0.0023
     52  N         23.8150  -58.4750   30.3320 N.am  225  GLY225     -0.1940
     53  CA        24.1170  -57.9890   28.9990 C.3   225  GLY225      0.2014
     54  C         24.8000  -56.6420   28.9760 C.2   225  GLY225      0.2639
     55  O         24.6650  -55.9000   27.9960 O.2   225  GLY225     -0.2714
     56  N         25.5530  -56.3160   30.0240 N.am  226  LEU226     -0.1963
     57  CA        26.1260  -54.9900   30.2070 C.3   226  LEU226      0.1728
     58  C         27.5040  -54.8240   29.5830 C.2   226  LEU226      0.2616
     59  O         28.0730  -53.7340   29.6770 O.2   226  LEU226     -0.2715
     60  CB        26.2270  -54.6730   31.7040 C.3   226  LEU226      0.0311
     61  CG        24.9120  -54.7160   32.4780 C.3   226  LEU226      0.0022
     62  CD1       25.1600  -54.6040   33.9740 C.3   226  LEU226      0.0001
     63  CD2       24.0120  -53.6040   32.0030 C.3   226  LEU226      0.0001
     64  N         28.0640  -55.8600   28.9690 N.am  227  GLU227     -0.1977
     65  CA        29.4260  -55.8070   28.4620 C.3   227  GLU227      0.1602
     66  C         29.4280  -55.7300   26.9430 C.2   227  GLU227      0.2287
     67  O         28.6880  -56.4570   26.2730 O.2   227  GLU227     -0.2864
     68  CB        30.2250  -57.0240   28.9180 C.3   227  GLU227      0.0415
     69  CG        30.4380  -57.0710   30.4160 C.3   227  GLU227      0.1163
     70  CD        31.5410  -58.0290   30.8150 C.2   227  GLU227      0.3649
     71  OE1       32.2590  -58.5210   29.9170 O.co2 227  GLU227     -0.2457
     72  OE2       31.6890  -58.2930   32.0270 O.co2 227  GLU227     -0.2457
@<TRIPOS>BOND
     1     1     2    1
     2     2     3    1
     3     3     4    2
     4    10     9    1
     5     5     6    1
     6     9     6    1
     7    67    66    2
     8     6     7    1
     9    66    65    1
    10    55    54    2
    11    11     7   am
    12    11    12    1
    13     7     8    2
    14    65    68    1
    15    65    64    1
    16    68    69    1
    17    15    12    1
    18    15    16    1
    19    64    58   am
    20    54    53    1
    21    54    56   am
    22    53    52    1
    23    12    13    1
    24    58    59    2
    25    58    57    1
    26    13    14    2
    27    71    70   ar
    28    56    57    1
    29    57    60    1
    30    52    47   am
    31    69    70    1
    32    48    47    2
    33    70    72   ar
    34    47    46    1
    35    17    18    1
    36    51    49    1
    37    60    61    1
    38    63    61    1
    39    49    46    1
    40    49    50    1
    41    46    45    1
    42    61    62    1
    43    21    18    1
    44    21    22    1
    45    18    19    1
    46    45    39   am
    47    24    22    1
    48    25    19   am
    49    25    26    1
    50    32    34   ar
    51    32    30   ar
    52    34    35   ar
    53    22    23    1
    54    19    20    2
    55    39    38    1
    56    39    40    2
    57    44    42    1
    58    41    38    1
    59    41    42    1
    60    43    42    1
    61    29    26    1
    62    29    30    1
    63    38    37    1
    64    26    27    1
    65    30    31   ar
    66    27    28    2
    67    35    36    1
    68    35    33   ar
    69    31    33   ar
