@<TRIPOS>MOLECULE
tmp/5inrA00.pdb
 86 80 0 0 0
SMALL
GASTEIGER

@<TRIPOS>ATOM
      1  N        -28.5980  -24.6580   11.4100 N.3     1  CYS1       -0.1235
      2  CA       -29.8440  -24.1180   11.9420 C.3     1  CYS1        0.1677
      3  C        -29.6470  -23.2840   13.1920 C.2     1  CYS1        0.2270
      4  O        -28.6670  -23.4470   13.9140 O.2     1  CYS1       -0.2867
      5  CB       -30.8320  -25.2400   12.2480 C.3     1  CYS1        0.0956
      6  SG       -31.1670  -26.2860   10.8270 S.3     1  CYS1       -0.0801
      7  N        -31.8140  -24.7410    7.7530 N.3    23  ASP23      -0.1225
      8  CA       -30.6790  -24.5020    6.8600 C.3    23  ASP23       0.1805
      9  C        -30.2060  -25.7990    6.2260 C.2    23  ASP23       0.2598
     10  O        -30.1650  -26.8290    6.8830 O.2    23  ASP23      -0.2718
     11  CB       -29.5170  -23.8480    7.6120 C.3    23  ASP23       0.1424
     12  CG       -29.8850  -22.4900    8.1920 C.2    23  ASP23       0.3668
     13  OD1      -30.9270  -21.9320    7.7940 O.co2  23  ASP23      -0.2456
     14  OD2      -29.1230  -21.9770    9.0380 O.co2  23  ASP23      -0.2456
     15  N        -29.8290  -25.7470    4.9580 N.am   24  GLY24      -0.1942
     16  CA       -29.3550  -26.9430    4.2860 C.3    24  GLY24       0.2014
     17  C        -27.8670  -26.8970    4.0210 C.2    24  GLY24       0.2638
     18  O        -27.1830  -25.9780    4.4600 O.2    24  GLY24      -0.2714
     19  N        -27.3610  -27.9050    3.3220 N.am   25  HIS25      -0.1973
     20  CA       -25.9660  -27.9140    2.9010 C.3    25  HIS25       0.1656
     21  C        -25.7860  -27.0590    1.6370 C.2    25  HIS25       0.2291
     22  O        -24.8820  -26.2180    1.5690 O.2    25  HIS25      -0.2864
     23  CB       -25.4860  -29.3490    2.6690 C.3    25  HIS25       0.0771
     24  CG       -24.0140  -29.4570    2.4230 C.ar   25  HIS25       0.0820
     25  ND1      -23.4660  -29.4480    1.1580 N.ar   25  HIS25      -0.2267
     26  CD2      -22.9740  -29.5730    3.2840 C.ar   25  HIS25       0.1154
     27  CE1      -22.1510  -29.5520    1.2510 C.ar   25  HIS25       0.1986
     28  NE2      -21.8280  -29.6340    2.5280 N.ar   25  HIS25      -0.2212
     29  N        -29.3850  -29.5550   14.3000 N.3    93  THR93      -0.1218
     30  CA       -28.2560  -30.4930   14.4190 C.3    93  THR93       0.1862
     31  C        -27.3720  -30.0180   15.5500 C.2    93  THR93       0.2287
     32  O        -26.9630  -28.8670   15.5480 O.2    93  THR93      -0.2866
     33  CB       -27.4140  -30.5940   13.1390 C.3    93  THR93       0.1770
     34  OG1      -28.2230  -31.0770   12.0600 O.3    93  THR93      -0.2211
     35  CG2      -26.2530  -31.5600   13.3500 C.3    93  THR93       0.0375
     36  N        -33.5810  -36.5770   10.9830 N.3   113  GLU113     -0.1245
     37  CA       -34.3160  -35.3470   10.7000 C.3   113  GLU113      0.1567
     38  C        -35.2560  -35.4900    9.5010 C.2   113  GLU113      0.2260
     39  O        -36.2950  -34.8350    9.4200 O.2   113  GLU113     -0.2867
     40  CB       -33.3340  -34.1990   10.4570 C.3   113  GLU113      0.0388
     41  CG       -34.0240  -32.8710   10.2270 C.3   113  GLU113      0.1160
     42  CD       -33.0510  -31.7230   10.0900 C.2   113  GLU113      0.3649
     43  OE1      -31.8490  -31.9900    9.9030 O.co2 113  GLU113     -0.2457
     44  OE2      -33.4970  -30.5630   10.1900 O.co2 113  GLU113     -0.2457
     45  N        -25.9760  -24.8720   16.5440 N.3   183  ASN183     -0.1240
     46  CA       -25.6700  -26.2530   16.2070 C.3   183  ASN183      0.1653
     47  C        -24.6840  -26.9060   17.1770 C.2   183  ASN183      0.2266
     48  O        -23.6320  -27.4150   16.7780 O.2   183  ASN183     -0.2867
     49  CB       -25.1190  -26.3370   14.7850 C.3   183  ASN183      0.1155
     50  CG       -26.1450  -25.9410   13.7320 C.2   183  ASN183      0.2627
     51  OD1      -26.0170  -24.8910   13.1010 O.2   183  ASN183     -0.2716
     52  ND2      -27.1610  -26.7890   13.5260 N.am  183  ASN183     -0.0877
     53  N        -18.5440  -21.2010   15.1760 N.3   235  TYR235     -0.1241
     54  CA       -19.7060  -21.6890   14.4370 C.3   235  TYR235      0.1605
     55  C        -20.9990  -21.5550   15.2290 C.2   235  TYR235      0.2264
     56  O        -22.0820  -21.4060   14.6550 O.2   235  TYR235     -0.2867
     57  CB       -19.5070  -23.1600   14.0380 C.3   235  TYR235      0.0534
     58  CG       -20.4520  -23.6090   12.9500 C.ar  235  TYR235     -0.0201
     59  CD1      -20.2290  -23.2490   11.6240 C.ar  235  TYR235     -0.0009
     60  CD2      -21.5770  -24.3720   13.2400 C.ar  235  TYR235     -0.0009
     61  CE1      -21.0990  -23.6480   10.6140 C.ar  235  TYR235      0.0417
     62  CE2      -22.4480  -24.7690   12.2420 C.ar  235  TYR235      0.0417
     63  CZ       -22.2010  -24.4070   10.9290 C.ar  235  TYR235      0.1957
     64  OH       -23.0690  -24.7960    9.9280 O.3   235  TYR235     -0.2866
     65  N        -20.0710  -17.9080   11.7790 N.3   304  ARG304     -0.1245
     66  CA       -21.2620  -18.2900   11.0190 C.3   304  ARG304      0.1563
     67  C        -22.4420  -17.4160   11.4340 C.2   304  ARG304      0.2260
     68  O        -22.7900  -17.3580   12.6220 O.2   304  ARG304     -0.2867
     69  CB       -21.6020  -19.7570   11.2560 C.3   304  ARG304      0.0307
     70  CG       -22.7680  -20.2820   10.4020 C.3   304  ARG304      0.0489
     71  CD       -23.6810  -21.1420   11.2600 C.3   304  ARG304      0.2205
     72  NE       -24.5630  -22.0480   10.5160 N.pl3 304  ARG304     -0.0865
     73  CZ       -25.7980  -21.7600   10.1100 C.cat 304  ARG304      0.5346
     74  NH1      -26.3270  -20.5570   10.3100 N.pl3 304  ARG304      0.1354
     75  NH2      -26.5050  -22.6870    9.4780 N.pl3 304  ARG304      0.1354
     76  N        -28.1020  -20.1990    2.9610 N.3   310  ARG310     -0.1245
     77  CA       -28.7470  -21.5060    2.9300 C.3   310  ARG310      0.1563
     78  C        -29.9090  -21.6480    3.9280 C.2   310  ARG310      0.2260
     79  O        -30.2940  -22.7760    4.2520 O.2   310  ARG310     -0.2867
     80  CB       -27.7070  -22.6160    3.1450 C.3   310  ARG310      0.0307
     81  CG       -26.7740  -22.4360    4.3340 C.3   310  ARG310      0.0489
     82  CD       -25.5300  -23.3320    4.1780 C.3   310  ARG310      0.2205
     83  NE       -24.5900  -23.1580    5.2850 N.pl3 310  ARG310     -0.0865
     84  CZ       -24.5740  -23.8980    6.3890 C.cat 310  ARG310      0.5346
     85  NH1      -25.4510  -24.8900    6.5510 N.pl3 310  ARG310      0.1354
     86  NH2      -23.6710  -23.6450    7.3320 N.pl3 310  ARG310      0.1354
@<TRIPOS>BOND
     1    25    27   ar
     2    25    24   ar
     3    27    28   ar
     4    22    21    2
     5    21    20    1
     6    24    23    1
     7    24    26   ar
     8    28    26   ar
     9    23    20    1
    10    20    19    1
    11    77    76    1
    12    77    80    1
    13    77    78    1
    14    80    81    1
    15    19    17   am
    16    78    79    2
    17    17    16    1
    18    17    18    2
    19    82    81    1
    20    82    83    1
    21    16    15    1
    22    15     9   am
    23    83    84    2
    24     9     8    1
    25     9    10    2
    26    84    85    1
    27    84    86    1
    28     8    11    1
    29     8     7    1
    30    11    12    1
    31    13    12   ar
    32    12    14   ar
    33    39    38    2
    34    75    73    1
    35    38    37    1
    36    43    42   ar
    37    64    63    1
    38    42    44   ar
    39    42    41    1
    40    73    74    1
    41    73    72    2
    42    41    40    1
    43    70    69    1
    44    70    71    1
    45    40    37    1
    46    72    71    1
    47    61    63   ar
    48    61    59   ar
    49    37    36    1
    50     6     5    1
    51    63    62   ar
    52    66    69    1
    53    66    67    1
    54    66    65    1
    55     1     2    1
    56    67    68    2
    57    59    58   ar
    58     2     5    1
    59     2     3    1
    60    34    33    1
    61    62    60   ar
    62    58    60   ar
    63    58    57    1
    64    51    50    2
    65    33    35    1
    66    33    30    1
    67     3     4    2
    68    52    50   am
    69    50    49    1
    70    57    54    1
    71    29    30    1
    72    30    31    1
    73    54    53    1
    74    54    55    1
    75    56    55    2
    76    49    46    1
    77    32    31    2
    78    46    45    1
    79    46    47    1
    80    48    47    2
