@<TRIPOS>MOLECULE
tmp/5io6A00.pdb
 142 127 0 0 0
SMALL
GASTEIGER

@<TRIPOS>ATOM
      1  N         21.5210  -11.6270   -5.7090 N.3    15  VAL15      -0.1245
      2  CA        20.7840  -11.3910   -4.4660 C.3    15  VAL15       0.1561
      3  C         19.3940  -11.9990   -4.5400 C.2    15  VAL15       0.2260
      4  O         18.5170  -11.6400   -3.7500 O.2    15  VAL15      -0.2867
      5  CB        20.6460   -9.8940   -4.1170 C.3    15  VAL15       0.0252
      6  CG1       21.9900   -9.2100   -4.0210 C.3    15  VAL15       0.0019
      7  CG2       19.7110   -9.1890   -5.1000 C.3    15  VAL15       0.0019
      8  N          4.0140    1.8240    9.0230 N.3    38  PRO38      -0.2102
      9  CA         4.2250    1.9300    7.5690 C.3    38  PRO38       0.1504
     10  C          5.3470    1.0700    7.0110 C.2    38  PRO38       0.2575
     11  O          5.1170    0.3360    6.0440 O.2    38  PRO38      -0.2718
     12  CB         4.5080    3.4200    7.3830 C.3    38  PRO38       0.0282
     13  CG         3.7890    4.0530    8.4630 C.3    38  PRO38       0.0208
     14  CD         3.9010    3.1540    9.6400 C.3    38  PRO38       0.0893
     15  N          6.5590    1.1500    7.5580 N.am   39  LEU39      -0.1980
     16  CA         7.6980    0.4550    6.9660 C.3    39  LEU39       0.1596
     17  C          8.1000   -0.7870    7.7500 C.2    39  LEU39       0.2287
     18  O          9.2210   -1.2770    7.6100 O.2    39  LEU39      -0.2864
     19  CB         8.8900    1.3950    6.7940 C.3    39  LEU39       0.0297
     20  CG         8.6150    2.3220    5.6150 C.3    39  LEU39       0.0022
     21  CD1        7.7950    3.4860    6.0860 C.3    39  LEU39       0.0001
     22  CD2        9.8610    2.8020    4.9690 C.3    39  LEU39       0.0001
     23  N          8.0310   -3.9380    7.2180 N.3    41  VAL41      -0.1245
     24  CA         7.8950   -4.9760    6.2090 C.3    41  VAL41       0.1561
     25  C          8.8450   -6.1100    6.5480 C.2    41  VAL41       0.2260
     26  O          9.9910   -5.8880    6.9530 O.2    41  VAL41      -0.2867
     27  CB         8.1440   -4.4560    4.7810 C.3    41  VAL41       0.0252
     28  CG1        7.1160   -3.4250    4.4280 C.3    41  VAL41       0.0019
     29  CG2        9.5270   -3.8910    4.6500 C.3    41  VAL41       0.0019
     30  N         10.6410   -9.3420    4.8320 N.3    43  VAL43      -0.1245
     31  CA        11.0310   -9.7410    3.4890 C.3    43  VAL43       0.1561
     32  C         11.0580  -11.2580    3.4220 C.2    43  VAL43       0.2260
     33  O         11.5610  -11.9090    4.3460 O.2    43  VAL43      -0.2867
     34  CB        12.4000   -9.1350    3.1360 C.3    43  VAL43       0.0252
     35  CG1       12.9120   -9.6810    1.8300 C.3    43  VAL43       0.0019
     36  CG2       12.3060   -7.6250    3.0870 C.3    43  VAL43       0.0019
     37  N         13.6190  -12.3050   -2.7920 N.3    46  LEU46      -0.1245
     38  CA        14.0120  -11.2580   -3.7350 C.3    46  LEU46       0.1561
     39  C         14.1370  -11.8520   -5.1350 C.2    46  LEU46       0.2260
     40  O         14.7440  -12.9110   -5.3110 O.2    46  LEU46      -0.2867
     41  CB        15.3150  -10.5810   -3.3120 C.3    46  LEU46       0.0270
     42  CG        15.1940   -9.6510   -2.1040 C.3    46  LEU46       0.0019
     43  CD1       16.5100   -8.9540   -1.8180 C.3    46  LEU46       0.0001
     44  CD2       14.0950   -8.6460   -2.3060 C.3    46  LEU46       0.0001
     45  N         13.9000   -5.3870   -9.9020 N.3    54  LEU54      -0.1245
     46  CA        13.9470   -6.1930   -8.6880 C.3    54  LEU54       0.1561
     47  C         12.5380   -6.3650   -8.1500 C.2    54  LEU54       0.2260
     48  O         11.9040   -5.3840   -7.7610 O.2    54  LEU54      -0.2867
     49  CB        14.8490   -5.5420   -7.6410 C.3    54  LEU54       0.0270
     50  CG        15.1520   -6.2430   -6.3230 C.3    54  LEU54       0.0019
     51  CD1       16.0230   -7.4480   -6.5530 C.3    54  LEU54       0.0001
     52  CD2       15.8450   -5.2960   -5.3700 C.3    54  LEU54       0.0001
     53  N         10.2920   -7.6710   -5.2020 N.3    56  ILE56      -0.1245
     54  CA        10.3830   -7.9780   -3.7850 C.3    56  ILE56       0.1561
     55  C          9.0810   -8.6280   -3.3680 C.2    56  ILE56       0.2260
     56  O          8.0040   -8.1390   -3.7220 O.2    56  ILE56      -0.2867
     57  CB        10.6710   -6.7170   -2.9570 C.3    56  ILE56       0.0252
     58  CG1       11.9510   -6.0470   -3.4600 C.3    56  ILE56       0.0019
     59  CG2       10.8180   -7.0860   -1.5020 C.3    56  ILE56       0.0019
     60  CD1       11.8270   -4.6000   -3.8120 C.3    56  ILE56       0.0001
     61  N          7.1320   -9.5640    0.1550 N.3    58  LEU58      -0.1245
     62  CA         7.2080   -9.2630    1.5790 C.3    58  LEU58       0.1561
     63  C          5.8620   -9.5070    2.2470 C.2    58  LEU58       0.2260
     64  O          4.8420   -9.7100    1.5910 O.2    58  LEU58      -0.2867
     65  CB         7.6900   -7.8240    1.8040 C.3    58  LEU58       0.0270
     66  CG         6.8620   -6.7130    1.1690 C.3    58  LEU58       0.0019
     67  CD1        5.9290   -6.1320    2.1790 C.3    58  LEU58       0.0001
     68  CD2        7.7700   -5.6570    0.6360 C.3    58  LEU58       0.0001
     69  N          2.7010   -9.3310    0.1530 N.3    69  LYS69      -0.1245
     70  CA         2.7360   -8.2170   -0.7780 C.3    69  LYS69       0.1561
     71  C          3.6590   -8.5500   -1.9360 C.2    69  LYS69       0.2260
     72  O          4.5150   -9.4230   -1.8470 O.2    69  LYS69      -0.2867
     73  CB         3.1920   -6.9220   -0.1110 C.3    69  LYS69       0.0271
     74  CG         2.1050   -6.1710    0.6450 C.3    69  LYS69       0.0035
     75  CD         2.6610   -4.8190    1.0720 C.3    69  LYS69       0.0206
     76  CE         1.7220   -4.0180    1.9560 C.3    69  LYS69       0.1093
     77  NZ         2.3480   -2.7150    2.3600 N.3    69  LYS69      -0.1314
     78  N          5.9690   -6.2370   -4.5620 N.3    71  ILE71      -0.1245
     79  CA         6.4880   -4.9250   -4.8820 C.3    71  ILE71       0.1561
     80  C          7.6060   -5.1230   -5.8910 C.2    71  ILE71       0.2260
     81  O          8.4050   -6.0550   -5.7660 O.2    71  ILE71      -0.2867
     82  CB         6.9530   -4.2150   -3.5960 C.3    71  ILE71       0.0252
     83  CG1        5.7300   -3.6090   -2.9070 C.3    71  ILE71       0.0019
     84  CG2        8.0210   -3.1810   -3.8700 C.3    71  ILE71       0.0019
     85  CD1        5.9950   -3.0490   -1.5310 C.3    71  ILE71       0.0001
     86  N         11.1040    2.3770   -6.1890 N.3    84  ILE84      -0.1245
     87  CA         9.8010    1.7570   -6.0150 C.3    84  ILE84       0.1561
     88  C          8.7690    2.7660   -6.4800 C.2    84  ILE84       0.2260
     89  O          8.9900    3.9760   -6.4020 O.2    84  ILE84      -0.2867
     90  CB         9.5810    1.3120   -4.5570 C.3    84  ILE84       0.0252
     91  CG1       10.6480    0.3020   -4.1690 C.3    84  ILE84       0.0019
     92  CG2        8.2320    0.6810   -4.3870 C.3    84  ILE84       0.0019
     93  CD1       10.3460   -0.4190   -2.9040 C.3    84  ILE84       0.0001
     94  N         15.3710    2.7160   -3.1390 N.3    92  VAL92      -0.1245
     95  CA        15.9470    1.5910   -2.4210 C.3    92  VAL92       0.1561
     96  C         17.4220    1.5410   -2.7690 C.2    92  VAL92       0.2260
     97  O         17.7810    1.5460   -3.9460 O.2    92  VAL92      -0.2867
     98  CB        15.2510    0.2620   -2.7700 C.3    92  VAL92       0.0252
     99  CG1       16.0590   -0.9060   -2.2940 C.3    92  VAL92       0.0019
    100  CG2       13.9050    0.2140   -2.1530 C.3    92  VAL92       0.0019
    101  N         20.9620   -0.6310   -2.0180 N.3    94  VAL94      -0.1245
    102  CA        21.6260   -1.7870   -1.4310 C.3    94  VAL94       0.1561
    103  C         22.9530   -1.2870   -0.8860 C.2    94  VAL94       0.2260
    104  O         23.7870   -0.7870   -1.6400 O.2    94  VAL94      -0.2867
    105  CB        21.8310   -2.9150   -2.4550 C.3    94  VAL94       0.0252
    106  CG1       22.7130   -3.9930   -1.8860 C.3    94  VAL94       0.0019
    107  CG2       20.5200   -3.4940   -2.9140 C.3    94  VAL94       0.0019
    108  N         22.4480   -9.0430    3.5340 N.3   103  LEU103     -0.1245
    109  CA        22.2330   -7.9040    2.6550 C.3   103  LEU103      0.1561
    110  C         21.7320   -6.7830    3.5340 C.2   103  LEU103      0.2260
    111  O         20.8580   -7.0060    4.3670 O.2   103  LEU103     -0.2867
    112  CB        21.2210   -8.2120    1.5430 C.3   103  LEU103      0.0270
    113  CG        21.1890   -7.3860    0.2660 C.3   103  LEU103      0.0019
    114  CD1       20.7360   -8.2340   -0.8530 C.3   103  LEU103      0.0001
    115  CD2       20.2360   -6.2930    0.4090 C.3   103  LEU103      0.0001
    116  N         20.0370   -3.0900    3.1770 N.3   105  PHE105     -0.1241
    117  CA        19.4340   -2.0990    2.3100 C.3   105  PHE105      0.1605
    118  C         18.7880   -1.0350    3.1780 C.2   105  PHE105      0.2264
    119  O         18.4750   -1.2700    4.3480 O.2   105  PHE105     -0.2867
    120  CB        18.4170   -2.7220    1.3200 C.3   105  PHE105      0.0534
    121  CG        17.1630   -3.2460    1.9650 C.ar  105  PHE105     -0.0203
    122  CD1       15.9760   -2.5350    1.8820 C.ar  105  PHE105     -0.0042
    123  CD2       17.1660   -4.4590    2.6330 C.ar  105  PHE105     -0.0042
    124  CE1       14.8340   -3.0100    2.4800 C.ar  105  PHE105     -0.0003
    125  CE2       16.0290   -4.9270    3.2210 C.ar  105  PHE105     -0.0003
    126  CZ        14.8620   -4.2090    3.1460 C.ar  105  PHE105     -0.0000
    127  N         15.8290    2.3680    2.7340 N.3   107  MET107     -0.1245
    128  CA        14.6740    2.7790    1.9380 C.3   107  MET107      0.1570
    129  C         14.3200    4.1980    2.3670 C.2   107  MET107      0.2261
    130  O         13.7400    4.3980    3.4360 O.2   107  MET107     -0.2867
    131  CB        13.5040    1.8230    2.1390 C.3   107  MET107      0.0387
    132  CG        12.5700    1.6740    0.9400 C.3   107  MET107      0.0595
    133  SD        11.5910    3.1420    0.5480 S.3   107  MET107     -0.1393
    134  CE        10.2760    2.4110   -0.4200 C.3   107  MET107      0.0692
    135  N         19.1030   -8.0880    6.2150 N.3   122  LEU122     -0.1245
    136  CA        18.5870   -9.3580    5.7500 C.3   122  LEU122      0.1561
    137  C         19.6510  -10.4220    5.8970 C.2   122  LEU122      0.2260
    138  O         20.8250  -10.1690    5.6370 O.2   122  LEU122     -0.2867
    139  CB        18.1510   -9.2780    4.2960 C.3   122  LEU122      0.0270
    140  CG        17.2470   -8.1550    3.8360 C.3   122  LEU122      0.0019
    141  CD1       17.2480   -8.0630    2.3350 C.3   122  LEU122      0.0001
    142  CD2       15.8570   -8.3710    4.3370 C.3   122  LEU122      0.0001
@<TRIPOS>BOND
     1    45    46    1
     2    46    47    1
     3    46    49    1
     4    47    48    2
     5    49    50    1
     6    51    50    1
     7    88    89    2
     8    88    87    1
     9    50    52    1
    10    86    87    1
    11    87    90    1
    12    80    81    2
    13    80    79    1
    14     1     2    1
    15    40    39    2
    16    53    54    1
    17    39    38    1
    18     7     5    1
    19    79    78    1
    20    79    82    1
    21    90    92    1
    22    90    91    1
    23     3     2    1
    24     3     4    2
    25     2     5    1
    26    91    93    1
    27     5     6    1
    28    97    96    2
    29    84    82    1
    30    60    58    1
    31    54    55    1
    32    54    57    1
    33    38    41    1
    34    38    37    1
    35    56    55    2
    36    82    83    1
    37    58    57    1
    38    41    42    1
    39    94    95    1
    40    57    59    1
    41   107   105    1
    42    83    85    1
    43    98    95    1
    44    98    99    1
    45    98   100    1
    46    96    95    1
    47   105   106    1
    48   105   102    1
    49    44    42    1
    50    42    43    1
    51   101   102    1
    52    71    72    2
    53    71    70    1
    54   104   103    2
    55   102   103    1
    56   114   113    1
    57    70    73    1
    58    70    69    1
    59   134   133    1
    60    73    74    1
    61    61    62    1
    62   113   115    1
    63   113   112    1
    64   133   132    1
    65    68    66    1
    66    74    75    1
    67   132   131    1
    68    75    76    1
    69    66    65    1
    70    66    67    1
    71   120   121    1
    72   120   117    1
    73   112   109    1
    74    62    65    1
    75    62    63    1
    76    64    63    2
    77    35    34    1
    78   122   121   ar
    79   122   124   ar
    80   128   131    1
    81   128   129    1
    82   128   127    1
    83    76    77    1
    84   121   123   ar
    85   117   116    1
    86   117   118    1
    87   141   140    1
    88   129   130    2
    89   124   126   ar
    90   123   125   ar
    91   109   108    1
    92   109   110    1
    93    36    34    1
    94    34    31    1
    95   126   125   ar
    96   118   119    2
    97    32    31    1
    98    32    33    2
    99    31    30    1
   100   110   111    2
   101   140   139    1
   102   140   142    1
   103   139   136    1
   104    28    27    1
   105    29    27    1
   106    27    24    1
   107    22    20    1
   108    20    21    1
   109    20    19    1
   110   138   137    2
   111   136   137    1
   112   136   135    1
   113    11    10    2
   114    24    25    1
   115    24    23    1
   116    25    26    2
   117    19    16    1
   118    16    15    1
   119    16    17    1
   120    10    15   am
   121    10     9    1
   122    12     9    1
   123    12    13    1
   124     9     8    1
   125    18    17    2
   126    13    14    1
   127     8    14    1
