@<TRIPOS>MOLECULE
tmp/5ioqC04.pdb
 114 108 0 0 0
SMALL
GASTEIGER

@<TRIPOS>ATOM
      1  N          4.5090   30.3430   46.0500 N.3    69  ILE69      -0.1245
      2  CA         5.1790   29.0900   45.8040 C.3    69  ILE69       0.1561
      3  C          4.2300   27.8750   45.8870 C.2    69  ILE69       0.2260
      4  O          4.3400   26.9970   45.0560 O.2    69  ILE69      -0.2867
      5  CB         6.4020   28.9160   46.7280 C.3    69  ILE69       0.0252
      6  CG1        7.5060   29.8450   46.2520 C.3    69  ILE69       0.0019
      7  CG2        6.9060   27.4690   46.7350 C.3    69  ILE69       0.0019
      8  CD1        8.7020   29.9090   47.1920 C.3    69  ILE69       0.0001
      9  N         11.9710   30.2240   36.0520 N.3    85  GLU85      -0.1231
     10  CA        11.5930   30.8500   37.2960 C.3    85  GLU85       0.1699
     11  C         12.7420   31.6730   37.8760 C.2    85  GLU85       0.2592
     12  O         13.8980   31.3670   37.6330 O.2    85  GLU85      -0.2718
     13  CB        11.1750   29.7890   38.3010 C.3    85  GLU85       0.0402
     14  CG        10.6460   30.3590   39.6170 C.3    85  GLU85       0.1161
     15  CD        10.0250   29.3160   40.5550 C.2    85  GLU85       0.3649
     16  OE1        9.8750   28.1350   40.1680 O.co2  85  GLU85      -0.2457
     17  OE2        9.7090   29.6690   41.7140 O.co2  85  GLU85      -0.2457
     18  N         12.4180   32.6980   38.6620 N.am   86  LEU86      -0.1980
     19  CA        13.4250   33.3640   39.5290 C.3    86  LEU86       0.1596
     20  C         14.2070   32.3660   40.3830 C.2    86  LEU86       0.2287
     21  O         13.6500   31.3830   40.8610 O.2    86  LEU86      -0.2864
     22  CB        12.7520   34.3440   40.4830 C.3    86  LEU86       0.0297
     23  CG        12.1030   35.5830   39.8650 C.3    86  LEU86       0.0022
     24  CD1       11.5280   36.4730   40.9760 C.3    86  LEU86       0.0001
     25  CD2       13.1130   36.3360   39.0170 C.3    86  LEU86       0.0001
     26  N         15.8330   31.1300   43.7210 N.3    88  GLY88      -0.1210
     27  CA        15.9090   31.2590   45.1810 C.3    88  GLY88       0.1956
     28  C         17.3360   31.3170   45.7360 C.2    88  GLY88       0.2611
     29  O         17.5880   31.8640   46.8160 O.2    88  GLY88      -0.2717
     30  N         18.2790   30.7880   44.9770 N.am   89  ARG89      -0.1979
     31  CA        19.6750   30.7780   45.3720 C.3    89  ARG89       0.1597
     32  C         20.3850   32.0860   45.0230 C.2    89  ARG89       0.2287
     33  O         21.2650   32.5140   45.7630 O.2    89  ARG89      -0.2864
     34  CB        20.3770   29.6240   44.6760 C.3    89  ARG89       0.0334
     35  CG        19.7120   28.2850   44.9400 C.3    89  ARG89       0.0492
     36  CD        20.3240   27.1980   44.0720 C.3    89  ARG89       0.2205
     37  NE        21.7020   26.9290   44.4680 N.pl3  89  ARG89      -0.0865
     38  CZ        22.5920   26.3080   43.7140 C.cat  89  ARG89       0.5346
     39  NH1       22.2800   25.8630   42.4850 N.pl3  89  ARG89       0.1354
     40  NH2       23.8150   26.1330   44.1960 N.pl3  89  ARG89       0.1354
     41  N         14.7000   39.0590   45.3200 N.3    93  LEU93      -0.1245
     42  CA        13.2520   38.9170   45.4300 C.3    93  LEU93       0.1561
     43  C         12.6530   40.1920   46.0250 C.2    93  LEU93       0.2260
     44  O         13.3580   40.9940   46.6410 O.2    93  LEU93      -0.2867
     45  CB        12.8820   37.7060   46.2910 C.3    93  LEU93       0.0270
     46  CG        13.5450   36.3680   45.9060 C.3    93  LEU93       0.0019
     47  CD1       13.2500   35.2850   46.9370 C.3    93  LEU93       0.0001
     48  CD2       13.1110   35.9270   44.5130 C.3    93  LEU93       0.0001
     49  N         22.0510   33.0570   50.6930 N.3   142  ARG142     -0.1231
     50  CA        20.6010   33.0380   50.4050 C.3   142  ARG142      0.1694
     51  C         20.0390   31.6260   50.2380 C.2   142  ARG142      0.2591
     52  O         18.9430   31.3550   50.7020 O.2   142  ARG142     -0.2718
     53  CB        20.3000   33.8650   49.1630 C.3   142  ARG142      0.0321
     54  CG        20.3710   35.3620   49.4210 C.3   142  ARG142      0.0489
     55  CD        20.3820   36.1740   48.1420 C.3   142  ARG142      0.2205
     56  NE        21.5720   35.8250   47.3690 N.pl3 142  ARG142     -0.0865
     57  CZ        21.8890   36.3300   46.1810 C.cat 142  ARG142      0.5346
     58  NH1       21.1110   37.2360   45.6050 N.pl3 142  ARG142      0.1354
     59  NH2       23.0010   35.9200   45.5750 N.pl3 142  ARG142      0.1354
     60  N         20.7990   30.7340   49.6150 N.am  143  GLU143     -0.1979
     61  CA        20.2930   29.3990   49.3380 C.3   143  GLU143      0.1602
     62  C         20.0260   28.6150   50.6010 C.2   143  GLU143      0.2287
     63  O         19.2500   27.6510   50.5780 O.2   143  GLU143     -0.2864
     64  CB        21.2380   28.6110   48.4310 C.3   143  GLU143      0.0415
     65  CG        22.5220   28.1260   49.0890 C.3   143  GLU143      0.1163
     66  CD        23.3490   27.2460   48.1750 C.2   143  GLU143      0.3649
     67  OE1       23.1560   27.3040   46.9270 O.co2 143  GLU143     -0.2457
     68  OE2       24.2000   26.4950   48.7010 O.co2 143  GLU143     -0.2457
     69  N         16.9920   31.3110   52.9280 N.3   146  ARG146     -0.1231
     70  CA        15.6260   31.3590   52.3980 C.3   146  ARG146      0.1694
     71  C         14.7700   30.1640   52.7720 C.2   146  ARG146      0.2591
     72  O         13.5370   30.2030   52.6070 O.2   146  ARG146     -0.2718
     73  CB        15.6520   31.5610   50.8740 C.3   146  ARG146      0.0321
     74  CG        16.0930   32.9800   50.5440 C.3   146  ARG146      0.0489
     75  CD        16.2530   33.2990   49.0780 C.3   146  ARG146      0.2205
     76  NE        16.4410   34.7320   48.8460 N.pl3 146  ARG146     -0.0865
     77  CZ        16.7330   35.2980   47.6780 C.cat 146  ARG146      0.5346
     78  NH1       16.9150   34.5690   46.5710 N.pl3 146  ARG146      0.1354
     79  NH2       16.8440   36.6180   47.6050 N.pl3 146  ARG146      0.1354
     80  N         15.3750   29.1130   53.3060 N.am  147  ILE147     -0.1980
     81  CA        14.6030   27.9270   53.6090 C.3   147  ILE147      0.1595
     82  C         13.6510   28.1380   54.7660 C.2   147  ILE147      0.2287
     83  O         12.7460   27.3090   54.9650 O.2   147  ILE147     -0.2864
     84  CB        15.4590   26.6590   53.8460 C.3   147  ILE147      0.0276
     85  CG1       16.1320   26.6910   55.2240 C.3   147  ILE147      0.0022
     86  CG2       16.4400   26.4570   52.6970 C.3   147  ILE147      0.0022
     87  CD1       17.1080   25.5620   55.4790 C.3   147  ILE147      0.0001
     88  N          5.2650   32.7320   50.0440 N.3   153  LEU153     -0.1231
     89  CA         6.1550   33.6560   49.3410 C.3   153  LEU153      0.1693
     90  C          5.8350   33.6920   47.8340 C.2   153  LEU153      0.2592
     91  O          5.6740   32.6500   47.2060 O.2   153  LEU153     -0.2718
     92  CB         7.5960   33.2130   49.5680 C.3   153  LEU153      0.0284
     93  CG         8.6830   33.9630   48.8380 C.3   153  LEU153      0.0019
     94  CD1        8.8090   35.3800   49.3800 C.3   153  LEU153      0.0001
     95  CD2        9.9960   33.2120   48.9740 C.3   153  LEU153      0.0001
     96  N          5.7430   34.8680   47.2530 N.am  154  TYR154     -0.1962
     97  CA         5.5410   34.9960   45.8100 C.3   154  TYR154      0.1771
     98  C          6.8170   34.7560   45.0300 C.2   154  TYR154      0.2620
     99  O          7.8800   35.2030   45.4360 O.2   154  TYR154     -0.2715
    100  CB         4.9860   36.3780   45.4340 C.3   154  TYR154      0.0574
    101  CG         3.4810   36.5230   45.6000 C.ar  154  TYR154     -0.0198
    102  CD1        2.6160   36.1810   44.5670 C.ar  154  TYR154     -0.0009
    103  CD2        2.9350   37.0430   46.7630 C.ar  154  TYR154     -0.0009
    104  CE1        1.2540   36.3260   44.6900 C.ar  154  TYR154      0.0417
    105  CE2        1.5510   37.1790   46.9110 C.ar  154  TYR154      0.0417
    106  CZ         0.7170   36.8310   45.8740 C.ar  154  TYR154      0.1957
    107  OH        -0.6430   36.9900   45.9900 O.3   154  TYR154     -0.2866
    108  N          6.6780   34.0710   43.8930 N.am  155  THR155     -0.1951
    109  CA         7.7430   33.9080   42.9370 C.3   155  THR155      0.1897
    110  C          7.1920   34.3310   41.5780 C.2   155  THR155      0.2313
    111  O          5.9950   34.6350   41.4470 O.2   155  THR155     -0.2863
    112  CB         8.2460   32.4280   42.9040 C.3   155  THR155      0.1794
    113  OG1        9.3740   32.3210   42.0270 O.3   155  THR155     -0.2208
    114  CG2        7.1440   31.4600   42.4290 C.3   155  THR155      0.0378
@<TRIPOS>BOND
     1     9    10    1
     2    10    11    1
     3    10    13    1
     4    12    11    2
     5    11    18   am
     6    13    14    1
     7    18    19    1
     8    25    23    1
     9    19    20    1
    10    19    22    1
    11    14    15    1
    12    23    22    1
    13    23    24    1
    14    16    15   ar
    15    20    21    2
    16    15    17   ar
    17   111   110    2
    18   110   109    1
    19   113   112    1
    20   114   112    1
    21    39    38    1
    22   112   109    1
    23   109   108    1
    24    38    40    1
    25    38    37    2
    26    26    27    1
    27   108    98   am
    28    36    37    1
    29    36    35    1
    30    48    46    1
    31   102   104   ar
    32   102   101   ar
    33    34    35    1
    34    34    31    1
    35   104   106   ar
    36    30    31    1
    37    30    28   am
    38    32    31    1
    39    32    33    2
    40    98    99    2
    41    98    97    1
    42     4     3    2
    43    27    28    1
    44    41    42    1
    45    42    43    1
    46    42    45    1
    47   100   101    1
    48   100    97    1
    49    59    57    1
    50   101   103   ar
    51    58    57    1
    52    28    29    2
    53     2     3    1
    54     2     1    1
    55     2     5    1
    56    97    96    1
    57   106   107    1
    58   106   105   ar
    59    46    45    1
    60    46    47    1
    61    43    44    2
    62    57    56    2
    63     6     5    1
    64     6     8    1
    65    78    77    1
    66     5     7    1
    67   103   105   ar
    68    67    66   ar
    69    91    90    2
    70    96    90   am
    71    56    55    1
    72    79    77    1
    73    77    76    2
    74    90    89    1
    75    55    54    1
    76    66    68   ar
    77    66    65    1
    78    64    65    1
    79    64    61    1
    80    93    95    1
    81    93    94    1
    82    93    92    1
    83    76    75    1
    84    75    74    1
    85    53    54    1
    86    53    50    1
    87    61    60    1
    88    61    62    1
    89    89    92    1
    90    89    88    1
    91    60    51   am
    92    51    50    1
    93    51    52    2
    94    50    49    1
    95    74    73    1
    96    63    62    2
    97    73    70    1
    98    70    71    1
    99    70    69    1
   100    72    71    2
   101    86    84    1
   102    71    80   am
   103    80    81    1
   104    81    84    1
   105    81    82    1
   106    84    85    1
   107    82    83    2
   108    85    87    1
