@<TRIPOS>MOLECULE
tmp/5ioqA01.pdb
 103 97 0 0 0
SMALL
GASTEIGER

@<TRIPOS>ATOM
      1  N          5.8170   -1.5500    8.1470 N.3    65  ILE65      -0.1245
      2  CA         6.1690   -0.1520    8.2890 C.3    65  ILE65       0.1561
      3  C          4.9510    0.7570    8.3570 C.2    65  ILE65       0.2260
      4  O          4.9440    1.6830    9.1620 O.2    65  ILE65      -0.2867
      5  CB         7.1700    0.2910    7.2040 C.3    65  ILE65       0.0252
      6  CG1        8.5210   -0.3380    7.5170 C.3    65  ILE65       0.0019
      7  CG2        7.3100    1.8150    7.1560 C.3    65  ILE65       0.0019
      8  CD1        9.5720   -0.1120    6.4550 C.3    65  ILE65       0.0001
      9  N         14.3450    0.6640   16.9460 N.3    81  GLU81      -0.1231
     10  CA        13.9350   -0.0550   15.7580 C.3    81  GLU81       0.1699
     11  C         15.1610   -0.5650   15.0110 C.2    81  GLU81       0.2592
     12  O         16.2270    0.0470   15.0720 O.2    81  GLU81      -0.2718
     13  CB        13.1290    0.8510   14.8490 C.3    81  GLU81       0.0402
     14  CG        12.5680    0.1450   13.6050 C.3    81  GLU81       0.1161
     15  CD        11.5880    0.9880   12.7850 C.2    81  GLU81       0.3649
     16  OE1       11.2170    2.1060   13.1940 O.co2  81  GLU81      -0.2457
     17  OE2       11.1730    0.5280   11.7030 O.co2  81  GLU81      -0.2457
     18  N         14.9920   -1.6630   14.2850 N.am   82  LEU82      -0.1980
     19  CA        16.0170   -2.1110   13.3350 C.3    82  LEU82       0.1596
     20  C         16.4050   -0.9810   12.3630 C.2    82  LEU82       0.2287
     21  O         15.5510   -0.2010   11.9490 O.2    82  LEU82      -0.2864
     22  CB        15.4810   -3.2550   12.5100 C.3    82  LEU82       0.0297
     23  CG        15.2610   -4.5780   13.2100 C.3    82  LEU82       0.0022
     24  CD1       14.7970   -5.6050   12.1860 C.3    82  LEU82       0.0001
     25  CD2       16.5300   -5.0230   13.9320 C.3    82  LEU82       0.0001
     26  N         17.3210    0.6510    8.9870 N.3    84  GLY84      -0.1210
     27  CA        17.1980    0.4560    7.5380 C.3    84  GLY84       0.1956
     28  C         18.5200    0.7020    6.8170 C.2    84  GLY84       0.2611
     29  O         18.7450    0.2020    5.7300 O.2    84  GLY84      -0.2717
     30  N         19.3960    1.4490    7.4550 N.am   85  ARG85      -0.1979
     31  CA        20.6700    1.8180    6.8780 C.3    85  ARG85       0.1597
     32  C         21.7210    0.7450    7.1110 C.2    85  ARG85       0.2287
     33  O         22.5860    0.5530    6.2650 O.2    85  ARG85      -0.2864
     34  CB        21.1430    3.1310    7.4780 C.3    85  ARG85       0.0334
     35  CG        20.1440    4.2660    7.3140 C.3    85  ARG85       0.0492
     36  CD        20.6060    5.4870    8.0900 C.3    85  ARG85       0.2205
     37  NE        21.8220    6.0390    7.5120 N.pl3  85  ARG85      -0.0865
     38  CZ        22.6560    6.8560    8.1340 C.cat  85  ARG85       0.5346
     39  NH1       22.4220    7.2620    9.3940 N.pl3  85  ARG85       0.1354
     40  NH2       23.7380    7.2850    7.4880 N.pl3  85  ARG85       0.1354
     41  N         17.9630   -7.5010    7.5380 N.3    89  LEU89      -0.1245
     42  CA        16.5050   -7.6980    7.6220 C.3    89  LEU89       0.1561
     43  C         16.1510   -9.0870    7.1230 C.2    89  LEU89       0.2260
     44  O         16.9410   -9.7120    6.4250 O.2    89  LEU89      -0.2867
     45  CB        15.7310   -6.6260    6.8210 C.3    89  LEU89       0.0270
     46  CG        16.0660   -5.1490    7.1050 C.3    89  LEU89       0.0019
     47  CD1       15.3530   -4.1950    6.1420 C.3    89  LEU89       0.0001
     48  CD2       15.7370   -4.7860    8.5440 C.3    89  LEU89       0.0001
     49  N         21.1110    2.0370    2.5060 N.3   139  GLU139     -0.1245
     50  CA        20.3200    3.2070    2.8670 C.3   139  GLU139      0.1567
     51  C         19.6760    3.8460    1.6570 C.2   139  GLU139      0.2260
     52  O         18.7180    4.6030    1.7950 O.2   139  GLU139     -0.2867
     53  CB        21.1490    4.2310    3.6390 C.3   139  GLU139      0.0388
     54  CG        22.1640    5.0000    2.7970 C.3   139  GLU139      0.1160
     55  CD        22.9070    6.0630    3.5880 C.2   139  GLU139      0.3649
     56  OE1       22.9230    6.0000    4.8460 O.co2 139  GLU139     -0.2457
     57  OE2       23.5040    6.9550    2.9420 O.co2 139  GLU139     -0.2457
     58  N         17.1360    0.4920   -0.2010 N.3   142  ARG142     -0.1231
     59  CA        15.9050    0.1080    0.5160 C.3   142  ARG142      0.1694
     60  C         14.7290    1.0340    0.2630 C.2   142  ARG142      0.2591
     61  O         13.6000    0.6880    0.5840 O.2   142  ARG142     -0.2718
     62  CB        16.1970   -0.0530    2.0030 C.3   142  ARG142      0.0321
     63  CG        17.0210   -1.3200    2.2500 C.3   142  ARG142      0.0489
     64  CD        17.4830   -1.5480    3.6830 C.3   142  ARG142      0.2205
     65  NE        18.0600   -2.8840    3.8590 N.pl3 142  ARG142     -0.0865
     66  CZ        18.6340   -3.3420    4.9770 C.cat 142  ARG142      0.5346
     67  NH1       18.7640   -2.5730    6.0470 N.pl3 142  ARG142      0.1354
     68  NH2       19.0970   -4.5910    5.0200 N.pl3 142  ARG142      0.1354
     69  N         14.9710    2.1930   -0.3560 N.am  143  ILE143     -0.1980
     70  CA        13.9040    3.1380   -0.5490 C.3   143  ILE143      0.1595
     71  C         12.8920    2.6690   -1.5730 C.2   143  ILE143      0.2287
     72  O         11.7910    3.2190   -1.6370 O.2   143  ILE143     -0.2864
     73  CB        14.3890    4.5620   -0.8970 C.3   143  ILE143      0.0276
     74  CG1       14.8630    4.6330   -2.3620 C.3   143  ILE143      0.0022
     75  CG2       15.4460    5.0250    0.0930 C.3   143  ILE143      0.0022
     76  CD1       15.4750    5.9650   -2.7570 C.3   143  ILE143      0.0001
     77  N          6.5860   -3.8150    4.0870 N.3   149  LEU149     -0.1231
     78  CA         7.7460   -4.4680    4.6360 C.3   149  LEU149      0.1693
     79  C          7.6350   -4.5420    6.1770 C.2   149  LEU149      0.2592
     80  O          7.3230   -3.5360    6.8260 O.2   149  LEU149     -0.2718
     81  CB         8.9990   -3.6910    4.2670 C.3   149  LEU149      0.0284
     82  CG        10.3220   -4.1270    4.8750 C.3   149  LEU149      0.0019
     83  CD1       10.7490   -5.4800    4.3270 C.3   149  LEU149      0.0001
     84  CD2       11.4020   -3.0800    4.6160 C.3   149  LEU149      0.0001
     85  N          7.9320   -5.7130    6.7540 N.am  150  TYR150     -0.1962
     86  CA         7.9650   -5.8560    8.2180 C.3   150  TYR150      0.1771
     87  C          9.2420   -5.3060    8.8320 C.2   150  TYR150      0.2620
     88  O         10.3180   -5.4920    8.3080 O.2   150  TYR150     -0.2715
     89  CB         7.8440   -7.3220    8.6350 C.3   150  TYR150      0.0574
     90  CG         6.4410   -7.8410    8.6720 C.ar  150  TYR150     -0.0198
     91  CD1        5.6530   -7.6740    9.8080 C.ar  150  TYR150     -0.0009
     92  CD2        5.8880   -8.5250    7.5830 C.ar  150  TYR150     -0.0009
     93  CE1        4.3480   -8.1600    9.8660 C.ar  150  TYR150      0.0417
     94  CE2        4.5780   -9.0110    7.6410 C.ar  150  TYR150      0.0417
     95  CZ         3.8180   -8.8420    8.7920 C.ar  150  TYR150      0.1957
     96  OH         2.5230   -9.3080    8.8470 O.3   150  TYR150     -0.2866
     97  N          9.1070   -4.5980    9.9470 N.am  151  THR151     -0.1951
     98  CA        10.2330   -4.1170   10.7200 C.3   151  THR151      0.1897
     99  C          9.9890   -4.6250   12.1440 C.2   151  THR151      0.2313
    100  O          8.9480   -5.2210   12.4220 O.2   151  THR151     -0.2863
    101  CB        10.3470   -2.5550   10.6920 C.3   151  THR151      0.1794
    102  OG1       11.5180   -2.1420   11.4000 O.3   151  THR151     -0.2208
    103  CG2        9.1160   -1.8870   11.3160 C.3   151  THR151      0.0378
@<TRIPOS>BOND
     1    76    74    1
     2    74    73    1
     3    72    71    2
     4    71    70    1
     5    73    70    1
     6    73    75    1
     7    70    69    1
     8    69    60   am
     9    58    59    1
    10    60    59    1
    11    60    61    2
    12    59    62    1
    13    51    52    2
    14    51    50    1
    15    62    63    1
    16    63    64    1
    17    49    50    1
    18    54    55    1
    19    54    53    1
    20    50    53    1
    21    57    55   ar
    22    55    56   ar
    23    64    65    1
    24    65    66    2
    25    77    78    1
    26    81    78    1
    27    81    82    1
    28    83    82    1
    29    84    82    1
    30    78    79    1
    31    66    68    1
    32    66    67    1
    33    29    28    2
    34    47    46    1
    35    79    85   am
    36    79    80    2
    37    33    32    2
    38    44    43    2
    39     8     6    1
    40    85    86    1
    41    28    30   am
    42    28    27    1
    43    45    46    1
    44    45    42    1
    45    31    32    1
    46    31    30    1
    47    31    34    1
    48    46    48    1
    49    43    42    1
    50     7     5    1
    51     5     6    1
    52     5     2    1
    53    35    34    1
    54    35    36    1
    55    40    38    1
    56    37    36    1
    57    37    38    2
    58    27    26    1
    59    41    42    1
    60    92    94   ar
    61    92    90   ar
    62    94    95   ar
    63    38    39    1
    64     1     2    1
    65    86    89    1
    66    86    87    1
    67     2     3    1
    68    88    87    2
    69     3     4    2
    70    89    90    1
    71    90    91   ar
    72    95    96    1
    73    95    93   ar
    74    87    97   am
    75    91    93   ar
    76    97    98    1
    77   101    98    1
    78   101   103    1
    79   101   102    1
    80    98    99    1
    81    17    15   ar
    82    21    20    2
    83    99   100    2
    84    24    23    1
    85    20    19    1
    86    22    23    1
    87    22    19    1
    88    15    16   ar
    89    15    14    1
    90    23    25    1
    91    19    18    1
    92    14    13    1
    93    18    11   am
    94    13    10    1
    95    11    12    2
    96    11    10    1
    97    10     9    1
