@<TRIPOS>MOLECULE
tmp/5iovC01.pdb
 103 96 0 0 0
SMALL
GASTEIGER

@<TRIPOS>ATOM
      1  N        112.1810   79.9160  100.8980 N.3   379  GLU379     -0.1245
      2  CA       112.8970   80.3280  102.0870 C.3   379  GLU379      0.1567
      3  C        112.3540   81.6780  102.5120 C.2   379  GLU379      0.2260
      4  O        112.5250   82.6750  101.8100 O.2   379  GLU379     -0.2867
      5  CB       114.3950   80.4320  101.8020 C.3   379  GLU379      0.0388
      6  CG       115.1080   79.1000  101.7050 C.3   379  GLU379      0.1160
      7  CD       115.1170   78.2650  102.9530 C.2   379  GLU379      0.3649
      8  OE1      114.7500   78.8690  104.0160 O.co2 379  GLU379     -0.2457
      9  OE2      115.4980   77.0930  102.9100 O.co2 379  GLU379     -0.2457
     10  N        117.1930   70.3040   99.8970 N.3   452  HIS452     -0.1241
     11  CA       118.5920   70.6990   99.8590 C.3   452  HIS452      0.1621
     12  C        119.4830   69.4970   99.5610 C.2   452  HIS452      0.2264
     13  O        119.1650   68.3560   99.9070 O.2   452  HIS452     -0.2867
     14  CB       119.0020   71.3400  101.1850 C.3   452  HIS452      0.0745
     15  CG       118.4100   72.7220  101.3830 C.ar  452  HIS452      0.0817
     16  ND1      119.0690   73.8740  101.3320 N.ar  452  HIS452     -0.2268
     17  CD2      117.0970   73.0110  101.6370 C.ar  452  HIS452      0.1154
     18  CE1      118.2220   74.8450  101.5460 C.ar  452  HIS452      0.1986
     19  NE2      117.0430   74.3220  101.7320 N.ar  452  HIS452     -0.2212
     20  N        119.2970   79.6260  100.3180 N.3   478  SER478     -0.1217
     21  CA       120.2060   79.5520  101.4620 C.3   478  SER478      0.1889
     22  C        121.3410   78.5980  101.1140 C.2   478  SER478      0.2288
     23  O        121.2810   77.3970  101.3790 O.2   478  SER478     -0.2866
     24  CB       119.4610   79.1030  102.7120 C.3   478  SER478      0.2089
     25  OG       118.8780   77.8240  102.5880 O.3   478  SER478     -0.2183
     26  N        125.2290   78.6340  101.8500 N.3   480  THR480     -0.1218
     27  CA       126.4220   79.1970  102.4660 C.3   480  THR480      0.1862
     28  C        127.6740   78.6760  101.7730 C.2   480  THR480      0.2287
     29  O        127.7840   77.4860  101.4670 O.2   480  THR480     -0.2866
     30  CB       126.4670   78.8560  103.9570 C.3   480  THR480      0.1770
     31  OG1      126.4870   77.4430  104.0920 O.3   480  THR480     -0.2211
     32  CG2      125.2930   79.4490  104.7120 C.3   480  THR480      0.0375
     33  N        130.0050   72.8860   98.6130 N.3   485  ARG485     -0.1245
     34  CA       129.3930   73.5740   97.4810 C.3   485  ARG485      0.1563
     35  C        130.4490   74.0550   96.4940 C.2   485  ARG485      0.2260
     36  O        130.2240   74.0380   95.2780 O.2   485  ARG485     -0.2867
     37  CB       128.5410   74.7440   97.9720 C.3   485  ARG485      0.0307
     38  CG       127.1960   74.2690   98.5290 C.3   485  ARG485      0.0489
     39  CD       126.5110   75.3040   99.3310 C.3   485  ARG485      0.2205
     40  NE       125.2190   74.9150   99.8640 N.pl3 485  ARG485     -0.0865
     41  CZ       124.9990   74.2050  100.9640 C.cat 485  ARG485      0.5346
     42  NH1      125.9820   73.6350  101.6570 N.pl3 485  ARG485      0.1354
     43  NH2      123.7470   74.0590  101.4150 N.pl3 485  ARG485      0.1354
     44  N        126.5860   80.5420  111.5730 N.3   500  ILE500     -0.1245
     45  CA       125.9870   79.6660  112.5720 C.3   500  ILE500      0.1561
     46  C        125.8870   80.4230  113.8900 C.2   500  ILE500      0.2260
     47  O        126.8700   81.0140  114.3530 O.2   500  ILE500     -0.2867
     48  CB       126.8090   78.3760  112.7350 C.3   500  ILE500      0.0252
     49  CG1      126.6360   77.5200  111.4640 C.3   500  ILE500      0.0019
     50  CG2      126.4170   77.6270  113.9850 C.3   500  ILE500      0.0019
     51  CD1      127.5910   76.3620  111.3730 C.3   500  ILE500      0.0001
     52  N        119.9650   67.1190  108.0820 N.3   644  ASN644     -0.1225
     53  CA       120.1830   67.2440  106.6400 C.3   644  ASN644      0.1785
     54  C        120.3960   68.7100  106.2480 C.2   644  ASN644      0.2598
     55  O        119.5430   69.3650  105.6440 O.2   644  ASN644     -0.2718
     56  CB       119.0220   66.6200  105.8550 C.3   644  ASN644      0.1169
     57  CG       118.8380   65.1900  106.1890 C.2   644  ASN644      0.2627
     58  OD1      119.7680   64.4170  106.0990 O.2   644  ASN644     -0.2716
     59  ND2      117.6680   64.7930  106.5750 N.am  644  ASN644     -0.0877
     60  N        121.5740   69.2070  106.6160 N.am  645  GLY645     -0.1942
     61  CA       121.9360   70.5790  106.3220 C.3   645  GLY645      0.2014
     62  C        123.4250   70.7850  106.4920 C.2   645  GLY645      0.2640
     63  O        124.1780   69.8520  106.7790 O.2   645  GLY645     -0.2714
     64  N        123.8440   72.0390  106.3050 N.am  646  SER646     -0.1935
     65  CA       125.2590   72.3700  106.4360 C.3   646  SER646      0.2055
     66  C        125.7030   72.3850  107.8930 C.2   646  SER646      0.2643
     67  O        126.8720   72.1080  108.1860 O.2   646  SER646     -0.2714
     68  CB       125.5460   73.7210  105.7800 C.3   646  SER646      0.2130
     69  OG       126.8170   74.1260  105.8930 O.3   646  SER646     -0.2179
     70  N        124.7920   72.7040  108.8160 N.am  647  THR647     -0.1950
     71  CA       125.1530   72.7320  110.2300 C.3   647  THR647      0.1897
     72  C        125.4020   71.3310  110.7750 C.2   647  THR647      0.2313
     73  O        126.2740   71.1490  111.6310 O.2   647  THR647     -0.2863
     74  CB       124.0590   73.4270  111.0410 C.3   647  THR647      0.1794
     75  OG1      122.8500   72.7030  110.8720 O.3   647  THR647     -0.2208
     76  CG2      123.8780   74.8750  110.6280 C.3   647  THR647      0.0378
     77  N        121.1330   77.4790  114.7670 N.3   687  TYR687     -0.1227
     78  CA       120.7610   77.4450  113.3580 C.3   687  TYR687      0.1736
     79  C        121.4750   78.5970  112.6490 C.2   687  TYR687      0.2595
     80  O        122.4450   79.1530  113.1740 O.2   687  TYR687     -0.2718
     81  CB       119.2300   77.4990  113.2090 C.3   687  TYR687      0.0548
     82  CG       118.6560   76.9610  111.9200 C.ar  687  TYR687     -0.0200
     83  CD1      119.0710   75.7260  111.4160 C.ar  687  TYR687     -0.0009
     84  CD2      117.6750   77.6710  111.2350 C.ar  687  TYR687     -0.0009
     85  CE1      118.4530   75.1990  110.2780 C.ar  687  TYR687      0.0417
     86  CE2      117.1120   77.1920  110.0540 C.ar  687  TYR687      0.0417
     87  CZ       117.4690   75.9240  109.6030 C.ar  687  TYR687      0.1957
     88  OH       116.8860   75.3770  108.4540 O.3   687  TYR687     -0.2866
     89  N        120.9960   78.9500  111.4580 N.am  688  ASP688     -0.1974
     90  CA       121.6130   80.0050  110.6720 C.3   688  ASP688      0.1709
     91  C        121.3590   81.3710  111.3080 C.2   688  ASP688      0.2293
     92  O        120.4070   81.5690  112.0660 O.2   688  ASP688     -0.2864
     93  CB       121.0790   79.9800  109.2390 C.3   688  ASP688      0.1436
     94  CG       121.5650   78.8040  108.4070 C.2   688  ASP688      0.3671
     95  OD1      122.4850   78.0800  108.8540 O.co2 688  ASP688     -0.2456
     96  OD2      121.0300   78.5920  107.3210 O.co2 688  ASP688     -0.2456
     97  N        118.0590   83.1280  109.6600 N.3   691  VAL691     -0.1245
     98  CA       116.8130   82.5650  110.1720 C.3   691  VAL691      0.1561
     99  C        116.6040   82.9620  111.6280 C.2   691  VAL691      0.2260
    100  O        115.4640   83.0740  112.0930 O.2   691  VAL691     -0.2867
    101  CB       116.8110   81.0330  109.9950 C.3   691  VAL691      0.0252
    102  CG1      115.5290   80.4030  110.5270 C.3   691  VAL691      0.0019
    103  CG2      116.9180   80.7140  108.5020 C.3   691  VAL691      0.0019
@<TRIPOS>BOND
     1    36    35    2
     2    35    34    1
     3    34    37    1
     4    34    33    1
     5    37    38    1
     6    38    39    1
     7    39    40    1
     8    12    11    1
     9    12    13    2
    10    11    10    1
    11    11    14    1
    12    40    41    2
    13    20    21    1
    14     1     2    1
    15    41    43    1
    16    41    42    1
    17    22    23    2
    18    22    21    1
    19    14    15    1
    20    16    15   ar
    21    16    18   ar
    22    15    17   ar
    23    21    24    1
    24    29    28    2
    25    18    19   ar
    26    17    19   ar
    27     6     5    1
    28     6     7    1
    29    28    27    1
    30     5     2    1
    31     4     3    2
    32    26    27    1
    33     2     3    1
    34    27    30    1
    35    25    24    1
    36     9     7   ar
    37     7     8   ar
    38    30    31    1
    39    30    32    1
    40    55    54    2
    41    68    69    1
    42    68    65    1
    43    56    57    1
    44    56    53    1
    45    58    57    2
    46    57    59   am
    47    54    60   am
    48    54    53    1
    49    64    65    1
    50    64    62   am
    51    61    62    1
    52    61    60    1
    53    65    66    1
    54    62    63    2
    55    53    52    1
    56    96    94   ar
    57    66    67    2
    58    66    70   am
    59    94    95   ar
    60    94    93    1
    61    88    87    1
    62   103   101    1
    63    70    71    1
    64    93    90    1
    65    87    86   ar
    66    87    85   ar
    67    97    98    1
    68   101    98    1
    69   101   102    1
    70    86    84   ar
    71    98    99    1
    72    71    72    1
    73    71    74    1
    74    85    83   ar
    75    76    74    1
    76    90    91    1
    77    90    89    1
    78    72    73    2
    79    75    74    1
    80    84    82   ar
    81    91    92    2
    82    51    49    1
    83    83    82   ar
    84    89    79   am
    85    49    48    1
    86    44    45    1
    87    99   100    2
    88    82    81    1
    89    45    48    1
    90    45    46    1
    91    79    80    2
    92    79    78    1
    93    48    50    1
    94    81    78    1
    95    78    77    1
    96    46    47    2
