@<TRIPOS>MOLECULE
tmp/5iovC00.pdb
 88 86 0 0 0
SMALL
GASTEIGER

@<TRIPOS>ATOM
      1  N         86.7950   94.5540   52.6230 N.3    74  GLU74      -0.1231
      2  CA        85.7040   94.8060   53.5560 C.3    74  GLU74       0.1699
      3  C         84.6130   95.6890   52.9670 C.2    74  GLU74       0.2592
      4  O         83.4520   95.5790   53.3810 O.2    74  GLU74      -0.2718
      5  CB        86.2420   95.4480   54.8410 C.3    74  GLU74       0.0402
      6  CG        85.3120   95.5100   55.9900 C.3    74  GLU74       0.1161
      7  CD        85.8200   96.3540   57.1580 C.2    74  GLU74       0.3649
      8  OE1       86.9940   96.8240   57.0590 O.co2  74  GLU74      -0.2457
      9  OE2       85.0820   96.4680   58.1360 O.co2  74  GLU74      -0.2457
     10  N         84.9580   96.5570   52.0110 N.am   75  ALA75      -0.1980
     11  CA        83.9630   97.4490   51.4230 C.3    75  ALA75       0.1597
     12  C         82.8280   96.6640   50.7790 C.2    75  ALA75       0.2287
     13  O         81.6540   97.0200   50.9320 O.2    75  ALA75      -0.2864
     14  CB        84.6260   98.3720   50.4010 C.3    75  ALA75       0.0319
     15  N         80.4210   95.7790   53.2690 N.3    78  GLN78      -0.1231
     16  CA        79.5120   96.8890   53.5340 C.3    78  GLN78       0.1698
     17  C         78.4000   96.9390   52.4960 C.2    78  GLN78       0.2592
     18  O         77.2460   97.2420   52.8260 O.2    78  GLN78      -0.2718
     19  CB        80.2860   98.2070   53.5610 C.3    78  GLN78       0.0381
     20  CG        81.5810   98.2030   54.3780 C.3    78  GLN78       0.0905
     21  CD        81.2610   98.2580   55.8770 C.2    78  GLN78       0.2608
     22  OE1       80.1560   98.4430   56.3400 O.2    78  GLN78      -0.2717
     23  NE2       82.3550   98.1160   56.6480 N.am   78  GLN78      -0.0878
     24  N         78.7270   96.6320   51.2380 N.am   79  ILE79      -0.1980
     25  CA        77.7050   96.5590   50.1980 C.3    79  ILE79       0.1595
     26  C         76.6520   95.5230   50.5680 C.2    79  ILE79       0.2287
     27  O         75.4550   95.7130   50.3140 O.2    79  ILE79      -0.2864
     28  CB        78.3510   96.2520   48.8340 C.3    79  ILE79       0.0276
     29  CG1       79.1450   97.4930   48.3770 C.3    79  ILE79       0.0022
     30  CG2       77.3180   95.8290   47.8180 C.3    79  ILE79       0.0022
     31  CD1       80.0420   97.2430   47.1960 C.3    79  ILE79       0.0001
     32  N         74.2070   97.0940   52.5610 N.3    82  PHE82      -0.1241
     33  CA        73.2990   97.8280   51.6870 C.3    82  PHE82       0.1605
     34  C         72.1910   96.9230   51.1680 C.2    82  PHE82       0.2264
     35  O         71.0340   97.3470   51.0530 O.2    82  PHE82      -0.2867
     36  CB        74.0790   98.4500   50.5270 C.3    82  PHE82       0.0534
     37  CG        74.7690   99.7680   50.7250 C.ar   82  PHE82      -0.0203
     38  CD1       74.7970  100.2930   51.9410 C.ar   82  PHE82      -0.0042
     39  CD2       75.4440  100.3910   49.7090 C.ar   82  PHE82      -0.0042
     40  CE1       75.4470  101.5340   52.1950 C.ar   82  PHE82      -0.0003
     41  CE2       76.1340  101.6020   49.9710 C.ar   82  PHE82      -0.0003
     42  CZ        76.0940  102.1610   51.1830 C.ar   82  PHE82      -0.0000
     43  N         92.0830  104.3600   59.9760 N.3   143  TYR143     -0.1227
     44  CA        90.7630  104.9510   59.7880 C.3   143  TYR143      0.1736
     45  C         89.6820  103.9080   59.5340 C.2   143  TYR143      0.2595
     46  O         88.7500  104.1610   58.7570 O.2   143  TYR143     -0.2718
     47  CB        90.8000  105.9680   58.6460 C.3   143  TYR143      0.0548
     48  CG        91.7330  107.1190   58.9010 C.ar  143  TYR143     -0.0200
     49  CD1       91.8310  107.8280   60.0700 C.ar  143  TYR143     -0.0009
     50  CD2       92.6340  107.4700   57.8920 C.ar  143  TYR143     -0.0009
     51  CE1       92.7080  108.8980   60.2800 C.ar  143  TYR143      0.0417
     52  CE2       93.5150  108.5230   58.0490 C.ar  143  TYR143      0.0417
     53  CZ        93.5910  109.1830   59.2300 C.ar  143  TYR143      0.1957
     54  OH        94.5170  110.2170   59.4330 O.3   143  TYR143     -0.2866
     55  N         89.7780  102.7430   60.1650 N.am  144  PHE144     -0.1963
     56  CA        88.7660  101.7150   59.9770 C.3   144  PHE144      0.1756
     57  C         87.5050  102.0740   60.7590 C.2   144  PHE144      0.2461
     58  O         87.5900  102.4940   61.9180 O.2   144  PHE144     -0.2730
     59  CB        89.2940  100.3520   60.4260 C.3   144  PHE144      0.0574
     60  CG        89.6280  100.2020   61.8790 C.ar  144  PHE144     -0.0200
     61  CD1       90.8690  100.5300   62.4160 C.ar  144  PHE144     -0.0042
     62  CD2       88.6800   99.6570   62.7950 C.ar  144  PHE144     -0.0042
     63  CE1       91.1710  100.3380   63.7580 C.ar  144  PHE144     -0.0003
     64  CE2       88.9590   99.5000   64.1150 C.ar  144  PHE144     -0.0003
     65  CZ        90.2030   99.7960   64.6090 C.ar  144  PHE144     -0.0000
     66  N         86.3230  101.9310   60.1540 N.am  145  PRO145     -0.2727
     67  CA        85.0810  102.2670   60.8650 C.3   145  PRO145      0.1402
     68  C         84.8430  101.3790   62.0760 C.2   145  PRO145      0.2269
     69  O         84.1710  100.3480   61.9780 O.2   145  PRO145     -0.2865
     70  CB        83.9830  102.0660   59.8400 C.3   145  PRO145      0.0296
     71  CG        84.5120  100.9590   58.9200 C.3   145  PRO145      0.0237
     72  CD        85.9720  101.3420   58.7960 C.3   145  PRO145      0.0939
     73  N         93.2680   96.7770   57.9070 N.3   201  THR201     -0.1218
     74  CA        92.8790   95.7880   56.9140 C.3   201  THR201      0.1862
     75  C         94.1230   95.0840   56.3750 C.2   201  THR201      0.2287
     76  O         95.2430   95.2990   56.8460 O.2   201  THR201     -0.2866
     77  CB        92.0820   96.4410   55.7830 C.3   201  THR201      0.1770
     78  OG1       92.9000   97.4260   55.1710 O.3   201  THR201     -0.2211
     79  CG2       90.7870   97.0540   56.2800 C.3   201  THR201      0.0375
     80  N         96.1970   97.4320   53.9050 N.3   204  GLU204     -0.1245
     81  CA        96.9440   98.3970   54.7010 C.3   204  GLU204      0.1567
     82  C         98.0690   97.7310   55.4830 C.2   204  GLU204      0.2260
     83  O         99.1300   98.3360   55.6700 O.2   204  GLU204     -0.2867
     84  CB        96.0040   99.1360   55.6540 C.3   204  GLU204      0.0388
     85  CG        94.8260   99.8540   54.9460 C.3   204  GLU204      0.1160
     86  CD        93.8160  100.5470   55.8100 C.2   204  GLU204      0.3649
     87  OE1       93.7530  100.4610   57.0060 O.co2 204  GLU204     -0.2457
     88  OE2       93.0000  101.2520   55.1900 O.co2 204  GLU204     -0.2457
@<TRIPOS>BOND
     1    31    29    1
     2    30    28    1
     3    29    28    1
     4    28    25    1
     5    39    41   ar
     6    39    37   ar
     7    41    42   ar
     8    25    26    1
     9    25    24    1
    10    27    26    2
    11    14    11    1
    12    36    37    1
    13    36    33    1
    14    37    38   ar
    15    12    13    2
    16    12    11    1
    17    35    34    2
    18    34    33    1
    19    42    40   ar
    20    24    17   am
    21    11    10    1
    22    33    32    1
    23    38    40   ar
    24    10     3   am
    25    17    18    2
    26    17    16    1
    27     1     2    1
    28     3     4    2
    29     3     2    1
    30    15    16    1
    31    16    19    1
    32     2     5    1
    33    19    20    1
    34    80    81    1
    35    20    21    1
    36    81    82    1
    37    81    84    1
    38     5     6    1
    39    85    84    1
    40    85    86    1
    41    78    77    1
    42    88    86   ar
    43    82    83    2
    44    77    79    1
    45    77    74    1
    46    86    87   ar
    47    21    22    2
    48    21    23   am
    49     6     7    1
    50    75    76    2
    51    75    74    1
    52    74    73    1
    53     8     7   ar
    54     7     9   ar
    55    50    52   ar
    56    50    48   ar
    57    52    53   ar
    58    47    48    1
    59    47    44    1
    60    46    45    2
    61    72    71    1
    62    72    66    1
    63    48    49   ar
    64    71    70    1
    65    53    54    1
    66    53    51   ar
    67    45    44    1
    68    45    55   am
    69    44    43    1
    70    70    67    1
    71    56    55    1
    72    56    59    1
    73    56    57    1
    74    49    51   ar
    75    66    57   am
    76    66    67    1
    77    59    60    1
    78    57    58    2
    79    67    68    1
    80    60    61   ar
    81    60    62   ar
    82    69    68    2
    83    61    63   ar
    84    62    64   ar
    85    63    65   ar
    86    64    65   ar
