@<TRIPOS>MOLECULE
tmp/5iozA00.pdb
 158 156 0 0 0
SMALL
GASTEIGER

@<TRIPOS>ATOM
      1  N         35.8030    6.8550   -3.3220 N.3    66  LEU66      -0.1245
      2  CA        34.4880    6.5120   -3.9460 C.3    66  LEU66       0.1561
      3  C         34.6350    5.4400   -5.0890 C.2    66  LEU66       0.2260
      4  O         33.8110    4.5480   -5.2090 O.2    66  LEU66      -0.2867
      5  CB        33.8100    7.7660   -4.5350 C.3    66  LEU66       0.0270
      6  CG        32.4680    7.5150   -5.2260 C.3    66  LEU66       0.0019
      7  CD1       31.4040    7.0410   -4.2300 C.3    66  LEU66       0.0001
      8  CD2       32.0970    8.9230   -5.7730 C.3    66  LEU66       0.0001
      9  N         23.6920    3.9320    0.1320 N.3    82  TRP82      -0.1241
     10  CA        23.8100    5.4290    0.0040 C.3    82  TRP82       0.1605
     11  C         24.6070    5.9960    1.1630 C.2    82  TRP82       0.2264
     12  O         25.4660    6.8760    0.9880 O.2    82  TRP82      -0.2867
     13  CB        22.4170    6.0790   -0.0900 C.3    82  TRP82       0.0550
     14  CG        21.8380    5.8450   -1.4930 C.ar   82  TRP82       0.0003
     15  CD1       20.7580    5.0670   -1.8470 C.ar   82  TRP82       0.0946
     16  CD2       22.3490    6.3830   -2.7590 C.ar   82  TRP82       0.0152
     17  NE1       20.5510    5.1070   -3.2120 N.ar   82  TRP82      -0.2442
     18  CE2       21.4730    5.8620   -3.8090 C.ar   82  TRP82       0.0810
     19  CE3       23.4140    7.2470   -3.1120 C.ar   82  TRP82       0.0012
     20  CZ2       21.6600    6.1620   -5.1500 C.ar   82  TRP82       0.0191
     21  CZ3       23.6100    7.5360   -4.4900 C.ar   82  TRP82       0.0001
     22  CH2       22.7240    7.0190   -5.4830 C.ar   82  TRP82       0.0015
     23  N         28.3480    5.5470    0.6430 N.3    85  GLY85      -0.1210
     24  CA        28.8170    6.4880   -0.3870 C.3    85  GLY85       0.1956
     25  C         28.9230    7.9310    0.1880 C.2    85  GLY85       0.2611
     26  O         29.9500    8.6180    0.0540 O.2    85  GLY85      -0.2717
     27  N         27.8880    8.4110    0.8560 N.am   86  ILE86      -0.1979
     28  CA        27.9880    9.7500    1.4620 C.3    86  ILE86       0.1595
     29  C         29.1040    9.8030    2.5200 C.2    86  ILE86       0.2287
     30  O         29.7420   10.8300    2.7390 O.2    86  ILE86      -0.2864
     31  CB        26.6050   10.0990    2.1110 C.3    86  ILE86       0.0276
     32  CG1       25.4880   10.2630    1.0170 C.3    86  ILE86       0.0022
     33  CG2       26.7400   11.3530    2.9460 C.3    86  ILE86       0.0022
     34  CD1       24.0580   10.2600    1.6090 C.3    86  ILE86       0.0001
     35  N         32.6040   11.1760    1.8430 N.3    89  PHE89      -0.1241
     36  CA        32.8150   12.6370    1.9040 C.3    89  PHE89       0.1605
     37  C         32.8000   13.1400    3.3090 C.2    89  PHE89       0.2264
     38  O         33.6810   13.9390    3.7080 O.2    89  PHE89      -0.2867
     39  CB        31.7490   13.3500    0.9950 C.3    89  PHE89       0.0534
     40  CG        31.9320   12.9600   -0.4330 C.ar   89  PHE89      -0.0203
     41  CD1       32.9230   13.6160   -1.2070 C.ar   89  PHE89      -0.0042
     42  CD2       31.3210   11.8250   -0.9430 C.ar   89  PHE89      -0.0042
     43  CE1       33.1930   13.1880   -2.4890 C.ar   89  PHE89      -0.0003
     44  CE2       31.6100   11.3440   -2.2550 C.ar   89  PHE89      -0.0003
     45  CZ        32.5270   12.0530   -3.0350 C.ar   89  PHE89      -0.0000
     46  N         36.4310   14.6340    4.1100 N.3    93  PHE93      -0.1241
     47  CA        36.5360   16.0980    4.3530 C.3    93  PHE93       0.1605
     48  C         36.4940   16.3920    5.8150 C.2    93  PHE93       0.2264
     49  O         37.1230   17.3480    6.2840 O.2    93  PHE93      -0.2867
     50  CB        35.4450   16.8130    3.5620 C.3    93  PHE93       0.0534
     51  CG        35.7390   16.7990    2.0790 C.ar   93  PHE93      -0.0203
     52  CD1       36.5760   17.7720    1.5270 C.ar   93  PHE93      -0.0042
     53  CD2       35.2220   15.8500    1.2730 C.ar   93  PHE93      -0.0042
     54  CE1       36.8680   17.7630    0.1380 C.ar   93  PHE93      -0.0003
     55  CE2       35.5130   15.8130   -0.1190 C.ar   93  PHE93      -0.0003
     56  CZ        36.3270   16.7660   -0.6780 C.ar   93  PHE93      -0.0000
     57  N         37.1140   22.2640   -7.8860 N.3   117  TRP117     -0.1241
     58  CA        35.8970   21.8400   -7.1250 C.3   117  TRP117      0.1605
     59  C         34.7800   21.5060   -8.1100 C.2   117  TRP117      0.2264
     60  O         34.1070   20.4690   -8.0390 O.2   117  TRP117     -0.2867
     61  CB        35.4770   22.9520   -6.1110 C.3   117  TRP117      0.0550
     62  CG        34.3470   22.4280   -5.2750 C.ar  117  TRP117      0.0003
     63  CD1       32.9880   22.8140   -5.2920 C.ar  117  TRP117      0.0946
     64  CD2       34.4200   21.2800   -4.3550 C.ar  117  TRP117      0.0152
     65  NE1       32.2540   22.0410   -4.3740 N.ar  117  TRP117     -0.2442
     66  CE2       33.0640   21.0900   -3.8050 C.ar  117  TRP117      0.0810
     67  CE3       35.4490   20.4570   -3.9060 C.ar  117  TRP117      0.0012
     68  CZ2       32.7890   20.0830   -2.8710 C.ar  117  TRP117      0.0191
     69  CZ3       35.1520   19.4510   -2.9650 C.ar  117  TRP117      0.0001
     70  CH2       33.8570   19.2810   -2.4640 C.ar  117  TRP117      0.0015
     71  N         32.8550   17.9050   -8.5890 N.3   121  MET121     -0.1245
     72  CA        31.3700   17.9700   -8.3480 C.3   121  MET121      0.1570
     73  C         30.6060   17.4120   -9.5750 C.2   121  MET121      0.2261
     74  O         29.7030   16.5720   -9.4670 O.2   121  MET121     -0.2867
     75  CB        30.9500   19.4460   -8.0590 C.3   121  MET121      0.0387
     76  CG        31.2040   19.9060   -6.6250 C.3   121  MET121      0.0595
     77  SD        30.3160   18.9100   -5.3320 S.3   121  MET121     -0.1393
     78  CE        28.6320   19.6040   -5.4230 C.3   121  MET121      0.0692
     79  N         31.0860   13.6640   -9.5260 N.3   124  TRP124     -0.1241
     80  CA        30.2760   12.9680   -8.4870 C.3   124  TRP124      0.1605
     81  C         28.8200   13.0190   -8.7290 C.2   124  TRP124      0.2264
     82  O         28.0920   12.0480   -8.4700 O.2   124  TRP124     -0.2867
     83  CB        30.5970   13.5850   -7.1280 C.3   124  TRP124      0.0550
     84  CG        32.0740   13.3760   -6.8440 C.ar  124  TRP124      0.0003
     85  CD1       32.8610   12.2680   -7.2150 C.ar  124  TRP124      0.0946
     86  CD2       32.9400   14.2260   -6.0340 C.ar  124  TRP124      0.0152
     87  NE1       34.1330   12.4000   -6.7340 N.ar  124  TRP124     -0.2442
     88  CE2       34.2640   13.5720   -6.0320 C.ar  124  TRP124      0.0810
     89  CE3       32.7900   15.5010   -5.4060 C.ar  124  TRP124      0.0012
     90  CZ2       35.3530   14.1230   -5.3430 C.ar  124  TRP124      0.0191
     91  CZ3       33.9060   16.0730   -4.7780 C.ar  124  TRP124      0.0001
     92  CH2       35.1370   15.3830   -4.6980 C.ar  124  TRP124      0.0015
     93  N         28.0630   10.5330  -11.4410 N.3   127  TYR127     -0.1227
     94  CA        28.1060    9.1530  -10.9460 C.3   127  TYR127      0.1736
     95  C         26.7970    8.8980  -10.1990 C.2   127  TYR127      0.2596
     96  O         26.1750    7.8600  -10.2980 O.2   127  TYR127     -0.2718
     97  CB        29.3250    8.9920  -10.0130 C.3   127  TYR127      0.0548
     98  CG        29.2610    7.7040   -9.3040 C.ar  127  TYR127     -0.0200
     99  CD1       29.5830    6.5220   -9.9560 C.ar  127  TYR127     -0.0009
    100  CD2       28.8160    7.6510   -7.9840 C.ar  127  TYR127     -0.0009
    101  CE1       29.4760    5.3010   -9.3120 C.ar  127  TYR127      0.0417
    102  CE2       28.7260    6.4530   -7.3230 C.ar  127  TYR127      0.0417
    103  CZ        29.0620    5.2920   -7.9970 C.ar  127  TYR127      0.1957
    104  OH        28.9320    4.1080   -7.3260 O.3   127  TYR127     -0.2866
    105  N         26.3970    9.8630   -9.3890 N.am  128  THR128     -0.1953
    106  CA        25.1250    9.7620   -8.6620 C.3   128  THR128      0.1897
    107  C         23.9640    9.5280   -9.6370 C.2   128  THR128      0.2313
    108  O         23.0870    8.7140   -9.3550 O.2   128  THR128     -0.2863
    109  CB        24.8290   11.0870   -7.8240 C.3   128  THR128      0.1794
    110  OG1       25.8940   11.3240   -6.8740 O.3   128  THR128     -0.2208
    111  CG2       23.5420   11.0020   -7.0470 C.3   128  THR128      0.0378
    112  N         23.6440   16.4370   -4.2420 N.3   155  ASN155     -0.1240
    113  CA        25.0340   16.7180   -3.9980 C.3   155  ASN155      0.1653
    114  C         25.3060   18.1060   -3.4690 C.2   155  ASN155      0.2266
    115  O         26.2480   18.2760   -2.6850 O.2   155  ASN155     -0.2867
    116  CB        25.8460   16.4750   -5.3230 C.3   155  ASN155      0.1155
    117  CG        26.1730   14.9860   -5.5110 C.2   155  ASN155      0.2627
    118  OD1       27.2350   14.5800   -5.1100 O.2   155  ASN155     -0.2716
    119  ND2       25.3100   14.2010   -6.1480 N.am  155  ASN155     -0.0877
    120  N         24.4330   18.2350    0.1660 N.3   158  ASN158     -0.1225
    121  CA        25.4880   17.6360    0.9940 C.3   158  ASN158      0.1785
    122  C         26.6900   18.5330    1.1430 C.2   158  ASN158      0.2597
    123  O         27.2830   18.6380    2.2200 O.2   158  ASN158     -0.2718
    124  CB        25.9490   16.2780    0.3690 C.3   158  ASN158      0.1169
    125  CG        24.9750   15.1700    0.6430 C.2   158  ASN158      0.2627
    126  OD1       23.8110   15.4290    0.9780 O.2   158  ASN158     -0.2716
    127  ND2       25.4220   13.8960    0.4360 N.am  158  ASN158     -0.0877
    128  N         27.0760   19.1650    0.0460 N.am  159  GLU159     -0.1979
    129  CA        28.2160   20.1060    0.0590 C.3   159  GLU159      0.1602
    130  C         27.9220   21.1590    1.1510 C.2   159  GLU159      0.2287
    131  O         28.7300   21.3880    2.0790 O.2   159  GLU159     -0.2864
    132  CB        28.3470   20.8060   -1.3130 C.3   159  GLU159      0.0415
    133  CG        29.4100   21.8990   -1.2550 C.3   159  GLU159      0.1163
    134  CD        29.4370   22.8290   -2.4700 C.2   159  GLU159      0.3649
    135  OE1       29.5980   22.3650   -3.5870 O.co2 159  GLU159     -0.2457
    136  OE2       29.3750   24.0350   -2.2750 O.co2 159  GLU159     -0.2457
    137  N         27.1760   19.4200    4.9520 N.3   162  LEU162     -0.1245
    138  CA        28.4520   18.9300    5.5300 C.3   162  LEU162      0.1561
    139  C         29.3610   20.0580    5.9960 C.2   162  LEU162      0.2260
    140  O         29.8690   20.0460    7.1510 O.2   162  LEU162     -0.2867
    141  CB        29.2280   18.0090    4.5860 C.3   162  LEU162      0.0270
    142  CG        28.5510   16.6100    4.4250 C.3   162  LEU162      0.0019
    143  CD1       29.1940   15.7930    3.2900 C.3   162  LEU162      0.0001
    144  CD2       28.4170   15.7420    5.6960 C.3   162  LEU162      0.0001
    145  N         18.1370   11.6380    0.9790 N.3   186  TRP186     -0.1241
    146  CA        18.5340   10.9620   -0.2740 C.3   186  TRP186      0.1605
    147  C         17.6130    9.7740   -0.5410 C.2   186  TRP186      0.2264
    148  O         17.0670    9.6500   -1.6480 O.2   186  TRP186     -0.2867
    149  CB        19.9830   10.4460   -0.1590 C.3   186  TRP186      0.0550
    150  CG        21.0010   11.4990   -0.4530 C.ar  186  TRP186      0.0003
    151  CD1       21.2480   12.7270    0.2570 C.ar  186  TRP186      0.0946
    152  CD2       21.9640   11.4820   -1.5270 C.ar  186  TRP186      0.0152
    153  NE1       22.2830   13.3680   -0.3170 N.ar  186  TRP186     -0.2442
    154  CE2       22.7530   12.6860   -1.3940 C.ar  186  TRP186      0.0810
    155  CE3       22.2390   10.6010   -2.5850 C.ar  186  TRP186      0.0012
    156  CZ2       23.7950   13.0140   -2.3090 C.ar  186  TRP186      0.0191
    157  CZ3       23.2650   10.9380   -3.4780 C.ar  186  TRP186      0.0001
    158  CH2       23.9930   12.1320   -3.3670 C.ar  186  TRP186      0.0015
@<TRIPOS>BOND
     1    93    94    1
     2    94    95    1
     3    94    97    1
     4    96    95    2
     5    95   105   am
     6    97    98    1
     7    99   101   ar
     8    99    98   ar
     9   107   108    2
    10   107   106    1
    11    73    74    2
    12    73    72    1
    13    79    80    1
    14   105   106    1
    15   101   103   ar
    16    98   100   ar
    17    81    80    1
    18    81    82    2
    19   106   109    1
    20    71    72    1
    21    80    83    1
    22    72    75    1
    23    59    60    2
    24    59    58    1
    25    75    76    1
    26   103   104    1
    27   103   102   ar
    28   100   102   ar
    29    57    58    1
    30   109   111    1
    31   109   110    1
    32    85    84   ar
    33    85    87   ar
    34    83    84    1
    35    58    61    1
    36    84    86   ar
    37    87    88   ar
    38    76    77    1
    39   119   117   am
    40    61    62    1
    41    86    88   ar
    42    86    89   ar
    43    88    90   ar
    44     8     6    1
    45   117   116    1
    46   117   118    2
    47    22    20   ar
    48    22    21   ar
    49    78    77    1
    50    89    91   ar
    51    90    92   ar
    52   116   113    1
    53    63    62   ar
    54    63    65   ar
    55    62    64   ar
    56     6     5    1
    57     6     7    1
    58     4     3    2
    59    20    18   ar
    60     3     2    1
    61    91    92   ar
    62     5     2    1
    63    21    19   ar
    64    65    66   ar
    65    64    67   ar
    66    64    66   ar
    67   112   113    1
    68   113   114    1
    69     2     1    1
    70    67    69   ar
    71    18    17   ar
    72    18    16   ar
    73    66    68   ar
    74   135   134   ar
    75   157   158   ar
    76   157   155   ar
    77   114   115    2
    78   158   156   ar
    79    17    15   ar
    80    19    16   ar
    81    45    43   ar
    82    45    44   ar
    83    69    70   ar
    84    68    70   ar
    85    16    14   ar
    86   155   152   ar
    87    43    41   ar
    88   134   136   ar
    89   134   133    1
    90   156   154   ar
    91    44    42   ar
    92    15    14   ar
    93   148   147    2
    94   152   154   ar
    95   152   150   ar
    96    14    13    1
    97   154   153   ar
    98   132   133    1
    99   132   129    1
   100    41    40   ar
   101    42    40   ar
   102    56    55   ar
   103    56    54   ar
   104   147   146    1
   105   150   149    1
   106   150   151   ar
   107    40    39    1
   108    24    25    1
   109    24    23    1
   110   153   151   ar
   111   146   149    1
   112   146   145    1
   113    55    53   ar
   114    13    10    1
   115    10     9    1
   116    10    11    1
   117   128   129    1
   118   128   122   am
   119    26    25    2
   120   129   130    1
   121    54    52   ar
   122   120   121    1
   123    25    27   am
   124   124   125    1
   125   124   121    1
   126   127   125   am
   127   125   126    2
   128    27    28    1
   129    12    11    2
   130   121   122    1
   131    39    36    1
   132    32    34    1
   133    32    31    1
   134   122   123    2
   135   130   131    2
   136    53    51   ar
   137    28    31    1
   138    28    29    1
   139    52    51   ar
   140    35    36    1
   141    36    37    1
   142    51    50    1
   143    31    33    1
   144    29    30    2
   145   143   142    1
   146    37    38    2
   147    50    47    1
   148    46    47    1
   149    47    48    1
   150   142   141    1
   151   142   144    1
   152   141   138    1
   153   137   138    1
   154   138   139    1
   155    48    49    2
   156   139   140    2
