@<TRIPOS>MOLECULE
tmp/5ip3A00.pdb
 204 194 0 0 0
SMALL
GASTEIGER

@<TRIPOS>ATOM
      1  N         -2.8440   51.2850   56.9960 N.3    23  LEU23      -0.1231
      2  CA        -1.5020   50.6970   56.9880 C.3    23  LEU23       0.1693
      3  C         -1.1300   50.0560   58.3290 C.2    23  LEU23       0.2592
      4  O         -1.8430   50.2050   59.3230 O.2    23  LEU23      -0.2718
      5  CB        -0.4600   51.7560   56.6160 C.3    23  LEU23       0.0284
      6  CG        -0.4660   52.2350   55.1650 C.3    23  LEU23       0.0019
      7  CD1        0.5220   53.3700   55.0270 C.3    23  LEU23       0.0001
      8  CD2       -0.0920   51.1350   54.2040 C.3    23  LEU23       0.0001
      9  N          0.0010   49.3530   58.3480 N.am   24  VAL24      -0.1966
     10  CA         0.4250   48.6060   59.5310 C.3    24  VAL24       0.1727
     11  C          1.5040   49.3340   60.3350 C.2    24  VAL24       0.2616
     12  O          2.5740   49.6350   59.8090 O.2    24  VAL24      -0.2715
     13  CB         0.9560   47.2080   59.1460 C.3    24  VAL24       0.0290
     14  CG1        1.3520   46.5010   60.4300 C.3    24  VAL24       0.0023
     15  CG2       -0.1270   46.4090   58.4120 C.3    24  VAL24       0.0023
     16  N          1.2130   49.6100   61.6070 N.am   25  ALA25      -0.1963
     17  CA         2.1700   50.2470   62.5070 C.3    25  ALA25       0.1728
     18  C          3.3560   49.3200   62.7850 C.2    25  ALA25       0.2616
     19  O          3.2010   48.2420   63.3590 O.2    25  ALA25      -0.2715
     20  CB         1.4940   50.6510   63.8060 C.3    25  ALA25       0.0334
     21  N          4.5430   49.7580   62.3740 N.am   26  PHE26      -0.1974
     22  CA         5.7360   48.9260   62.4280 C.3    26  PHE26       0.1639
     23  C          6.8060   49.5230   63.3290 C.2    26  PHE26       0.2290
     24  O          7.0480   50.7290   63.3180 O.2    26  PHE26      -0.2864
     25  CB         6.2970   48.7200   61.0180 C.3    26  PHE26       0.0560
     26  CG         7.6060   47.9760   60.9820 C.ar   26  PHE26      -0.0200
     27  CD1        8.7720   48.6170   60.5810 C.ar   26  PHE26      -0.0042
     28  CD2        7.6700   46.6350   61.3460 C.ar   26  PHE26      -0.0042
     29  CE1        9.9770   47.9370   60.5410 C.ar   26  PHE26      -0.0003
     30  CE2        8.8710   45.9500   61.3060 C.ar   26  PHE26      -0.0003
     31  CZ        10.0290   46.6030   60.9040 C.ar   26  PHE26      -0.0000
     32  N         25.2890   42.9700   48.3910 N.3    54  ARG54      -0.1231
     33  CA        23.9290   43.4210   48.6880 C.3    54  ARG54       0.1694
     34  C         23.0170   43.5470   47.4660 C.2    54  ARG54       0.2591
     35  O         21.9830   42.8870   47.4040 O.2    54  ARG54      -0.2718
     36  CB        23.9820   44.7620   49.4190 C.3    54  ARG54       0.0321
     37  CG        22.6870   45.1530   50.0850 C.3    54  ARG54       0.0489
     38  CD        22.6570   46.6240   50.4840 C.3    54  ARG54       0.2205
     39  NE        21.4030   46.9610   51.1530 N.pl3  54  ARG54      -0.0865
     40  CZ        20.2670   47.2510   50.5290 C.cat  54  ARG54       0.5346
     41  NH1       20.2180   47.2590   49.2050 N.pl3  54  ARG54       0.1354
     42  NH2       19.1790   47.5360   51.2330 N.pl3  54  ARG54       0.1354
     43  N         23.4000   44.3740   46.4940 N.am   55  GLN55      -0.1979
     44  CA        22.5550   44.5830   45.3160 C.3    55  GLN55       0.1601
     45  C         22.3620   43.3130   44.5090 C.2    55  GLN55       0.2287
     46  O         21.2630   43.0240   44.0570 O.2    55  GLN55      -0.2864
     47  CB        23.1290   45.6620   44.3850 C.3    55  GLN55       0.0394
     48  CG        22.8740   47.0950   44.8150 C.3    55  GLN55       0.0908
     49  CD        23.7160   47.5040   46.0030 C.2    55  GLN55       0.2608
     50  OE1       24.9500   47.5260   45.9280 O.2    55  GLN55      -0.2717
     51  NE2       23.0560   47.8270   47.1140 N.am   55  GLN55      -0.0878
     52  N         19.9920   40.8600   46.3890 N.3    58  MET58      -0.1230
     53  CA        18.6230   41.3700   46.3740 C.3    58  MET58       0.1702
     54  C         17.8650   40.9800   45.1060 C.2    58  MET58       0.2592
     55  O         16.7290   40.5110   45.1660 O.2    58  MET58      -0.2718
     56  CB        18.6310   42.8890   46.5160 C.3    58  MET58       0.0401
     57  CG        17.2500   43.5140   46.5440 C.3    58  MET58       0.0596
     58  SD        17.3210   45.2310   46.0220 S.3    58  MET58      -0.1393
     59  CE        18.8640   45.7490   46.7620 C.3    58  MET58       0.0692
     60  N         18.5110   41.1860   43.9640 N.am   59  LYS59      -0.1980
     61  CA        17.9150   40.9390   42.6570 C.3    59  LYS59       0.1596
     62  C         17.4850   39.4800   42.5040 C.2    59  LYS59       0.2287
     63  O         16.4280   39.1900   41.9460 O.2    59  LYS59      -0.2864
     64  CB        18.9160   41.2940   41.5540 C.3    59  LYS59       0.0298
     65  CG        19.4280   42.7320   41.5950 C.3    59  LYS59       0.0038
     66  CD        18.3830   43.7900   41.3460 C.3    59  LYS59       0.0206
     67  CE        19.0230   45.1630   41.4780 C.3    59  LYS59       0.1093
     68  NZ        20.0990   45.3650   40.4680 N.3    59  LYS59      -0.1314
     69  N         14.5360   38.9090   44.5850 N.3    62  LYS62      -0.1245
     70  CA        13.3900   39.5740   43.9750 C.3    62  LYS62       0.1561
     71  C         12.8700   38.8920   42.7160 C.2    62  LYS62       0.2260
     72  O         11.8460   39.3030   42.1740 O.2    62  LYS62      -0.2867
     73  CB        13.7440   41.0210   43.6410 C.3    62  LYS62       0.0271
     74  CG        13.9410   41.9130   44.8510 C.3    62  LYS62       0.0035
     75  CD        12.8160   41.7130   45.8460 C.3    62  LYS62       0.0206
     76  CE        12.9700   42.6330   47.0390 C.3    62  LYS62       0.1093
     77  NZ        11.9030   42.3910   48.0470 N.3    62  LYS62      -0.1314
     78  N          6.5070   40.3470   46.8620 N.3    76  THR76      -0.1218
     79  CA         5.9980   41.7080   47.0260 C.3    76  THR76       0.1862
     80  C          4.4640   41.8070   47.0360 C.2    76  THR76       0.2287
     81  O          3.7620   40.7950   47.1070 O.2    76  THR76      -0.2866
     82  CB         6.5580   42.6260   45.9190 C.3    76  THR76       0.1770
     83  OG1        7.4450   41.8740   45.0790 O.3    76  THR76      -0.2211
     84  CG2        7.3270   43.7920   46.5330 C.3    76  THR76       0.0375
     85  N          2.8490   45.5470   53.3730 N.3    80  ILE80      -0.1245
     86  CA         3.7770   44.8040   54.2260 C.3    80  ILE80       0.1561
     87  C          3.2870   44.7500   55.6690 C.2    80  ILE80       0.2260
     88  O          2.9770   45.7790   56.2640 O.2    80  ILE80      -0.2867
     89  CB         5.1980   45.4150   54.2090 C.3    80  ILE80       0.0252
     90  CG1        5.7960   45.3990   52.8000 C.3    80  ILE80       0.0019
     91  CG2        6.1110   44.6290   55.1150 C.3    80  ILE80       0.0019
     92  CD1        5.6920   46.7120   52.0670 C.3    80  ILE80       0.0001
     93  N          3.6040   44.1230   59.8030 N.3    82  ALA82      -0.1245
     94  CA         4.5630   44.4880   60.8390 C.3    82  ALA82       0.1562
     95  C          5.3770   43.2810   61.2700 C.2    82  ALA82       0.2260
     96  O          6.4550   43.4170   61.8490 O.2    82  ALA82      -0.2867
     97  CB         3.8520   45.1020   62.0310 C.3    82  ALA82       0.0290
     98  N         11.2830   41.7060   55.2120 N.3    86  THR86      -0.1203
     99  CA        11.5390   42.4200   53.9760 C.3    86  THR86       0.1994
    100  C         13.0230   42.3000   53.6680 C.2    86  THR86       0.2618
    101  O         13.7840   41.8380   54.5150 O.2    86  THR86      -0.2717
    102  CB        11.1450   43.8930   54.1000 C.3    86  THR86       0.1784
    103  OG1       10.0310   44.0290   54.9860 O.3    86  THR86      -0.2211
    104  CG2       10.7750   44.4340   52.7700 C.3    86  THR86       0.0376
    105  N         13.4520   42.6730   52.4690 N.am   87  PHE87      -0.1961
    106  CA        14.8810   42.6210   52.2000 C.3    87  PHE87       0.1771
    107  C         15.6250   43.6100   53.1020 C.2    87  PHE87       0.2619
    108  O         16.5630   43.2220   53.7840 O.2    87  PHE87      -0.2715
    109  CB        15.1980   42.9180   50.7360 C.3    87  PHE87       0.0574
    110  CG        16.6710   42.9380   50.4400 C.ar   87  PHE87      -0.0200
    111  CD1       17.3660   41.7550   50.2530 C.ar   87  PHE87      -0.0042
    112  CD2       17.3650   44.1330   50.3710 C.ar   87  PHE87      -0.0042
    113  CE1       18.7240   41.7600   49.9950 C.ar   87  PHE87      -0.0003
    114  CE2       18.7270   44.1460   50.1130 C.ar   87  PHE87      -0.0003
    115  CZ        19.4070   42.9540   49.9260 C.ar   87  PHE87      -0.0000
    116  N         15.1800   44.8650   53.1390 N.am   88  ARG88      -0.1963
    117  CA        15.8010   45.8740   53.9950 C.3    88  ARG88       0.1729
    118  C         15.7620   45.4990   55.4600 C.2    88  ARG88       0.2616
    119  O         16.7020   45.7860   56.2010 O.2    88  ARG88      -0.2715
    120  CB        15.1260   47.2310   53.8170 C.3    88  ARG88       0.0348
    121  CG        15.3310   47.8820   52.4630 C.3    88  ARG88       0.0492
    122  CD        15.2950   49.3960   52.6040 C.3    88  ARG88       0.2205
    123  NE        14.8500   50.0440   51.3770 N.pl3  88  ARG88      -0.0865
    124  CZ        14.7920   51.3610   51.2060 C.cat  88  ARG88       0.5346
    125  NH1       15.1170   52.1780   52.2000 N.pl3  88  ARG88       0.1354
    126  NH2       14.3870   51.8580   50.0470 N.pl3  88  ARG88       0.1354
    127  N         14.6790   44.8620   55.8840 N.am   89  ARG89      -0.1977
    128  CA        14.5820   44.4220   57.2660 C.3    89  ARG89       0.1597
    129  C         15.6010   43.3180   57.5020 C.2    89  ARG89       0.2287
    130  O         16.2070   43.2330   58.5710 O.2    89  ARG89      -0.2864
    131  CB        13.1610   43.9540   57.5990 C.3    89  ARG89       0.0334
    132  CG        12.1510   45.0810   57.5480 C.3    89  ARG89       0.0492
    133  CD        10.7420   44.6410   57.8840 C.3    89  ARG89       0.2205
    134  NE         9.7910   45.7290   57.6470 N.pl3  89  ARG89      -0.0865
    135  CZ         8.4700   45.6210   57.7600 C.cat  89  ARG89       0.5346
    136  NH1        7.9210   44.4690   58.1200 N.pl3  89  ARG89       0.1354
    137  NH2        7.6970   46.6690   57.5110 N.pl3  89  ARG89       0.1354
    138  N         19.8430   50.8100   56.0860 N.3   143  SER143     -0.1217
    139  CA        18.6710   51.6470   56.2450 C.3   143  SER143      0.1889
    140  C         18.7440   52.3510   57.5860 C.2   143  SER143      0.2288
    141  O         18.4160   51.7710   58.6190 O.2   143  SER143     -0.2866
    142  CB        17.3900   50.8240   56.1430 C.3   143  SER143      0.2089
    143  OG        16.2650   51.6310   56.4430 O.3   143  SER143     -0.2183
    144  N         16.8940   54.7500   58.8950 N.3   145  PRO145     -0.2102
    145  CA        15.6400   54.8460   59.6580 C.3   145  PRO145      0.1504
    146  C         15.2440   53.5550   60.3740 C.2   145  PRO145      0.2575
    147  O         14.6960   53.6240   61.4680 O.2   145  PRO145     -0.2718
    148  CB        14.6130   55.2030   58.5870 C.3   145  PRO145      0.0282
    149  CG        15.4030   55.8900   57.5310 C.3   145  PRO145      0.0208
    150  CD        16.7020   55.1720   57.4950 C.3   145  PRO145      0.0893
    151  N         15.5080   52.4020   59.7670 N.am  146  LEU146     -0.1980
    152  CA        15.2180   51.1210   60.4050 C.3   146  LEU146      0.1596
    153  C         16.1280   50.8600   61.6010 C.2   146  LEU146      0.2287
    154  O         15.6600   50.5690   62.6980 O.2   146  LEU146     -0.2864
    155  CB        15.3480   49.9820   59.3970 C.3   146  LEU146      0.0297
    156  CG        14.1690   49.8420   58.4390 C.3   146  LEU146      0.0022
    157  CD1       14.4180   48.7460   57.4140 C.3   146  LEU146      0.0001
    158  CD2       12.9220   49.5440   59.2490 C.3   146  LEU146      0.0001
    159  N         17.8510   59.7330   43.5470 N.3   177  LYS177     -0.1231
    160  CA        17.7250   58.3540   44.0010 C.3   177  LYS177      0.1693
    161  C         17.7010   58.2580   45.5240 C.2   177  LYS177      0.2592
    162  O         17.0900   57.3440   46.0800 O.2   177  LYS177     -0.2718
    163  CB        18.8490   57.4780   43.4340 C.3   177  LYS177      0.0285
    164  CG        18.7810   57.2590   41.9260 C.3   177  LYS177      0.0035
    165  CD        20.0490   56.6030   41.4070 C.3   177  LYS177      0.0206
    166  CE        20.2570   55.2380   42.0630 C.3   177  LYS177      0.1093
    167  NZ        19.0970   54.3110   41.8740 N.3   177  LYS177     -0.1314
    168  N         18.3790   59.1800   46.2000 N.am  178  TYR178     -0.1976
    169  CA        18.4060   59.1520   47.6600 C.3   178  TYR178      0.1639
    170  C         18.3270   60.5600   48.2410 C.2   178  TYR178      0.2290
    171  O         19.3240   61.2830   48.2400 O.2   178  TYR178     -0.2864
    172  CB        19.6810   58.4500   48.1310 C.3   178  TYR178      0.0560
    173  CG        19.8010   58.2150   49.6250 C.ar  178  TYR178     -0.0198
    174  CD1       19.0830   57.2000   50.2550 C.ar  178  TYR178     -0.0009
    175  CD2       20.6610   58.9860   50.4000 C.ar  178  TYR178     -0.0009
    176  CE1       19.2080   56.9740   51.6200 C.ar  178  TYR178      0.0417
    177  CE2       20.7910   58.7690   51.7620 C.ar  178  TYR178      0.0417
    178  CZ        20.0650   57.7640   52.3680 C.ar  178  TYR178      0.1957
    179  OH        20.2080   57.5600   53.7250 O.3   178  TYR178     -0.2866
    180  N         15.6360   63.9720   53.4440 N.3   182  GLU182     -0.1245
    181  CA        14.5110   63.1350   53.8270 C.3   182  GLU182      0.1567
    182  C         14.9540   62.0190   54.7590 C.2   182  GLU182      0.2260
    183  O         14.2940   61.7330   55.7600 O.2   182  GLU182     -0.2867
    184  CB        13.8610   62.5310   52.5830 C.3   182  GLU182      0.0388
    185  CG        12.7150   61.5670   52.8670 C.3   182  GLU182      0.1160
    186  CD        12.1340   60.9620   51.5960 C.2   182  GLU182      0.3649
    187  OE1       12.4620   61.4590   50.4920 O.co2 182  GLU182     -0.2457
    188  OE2       11.3620   59.9800   51.7000 O.co2 182  GLU182     -0.2457
    189  N         13.7340   61.1730   58.4570 N.3   186  LYS186     -0.1245
    190  CA        13.0920   59.9590   58.9400 C.3   186  LYS186      0.1561
    191  C         13.7350   59.4320   60.2130 C.2   186  LYS186      0.2260
    192  O         13.0440   58.9750   61.1160 O.2   186  LYS186     -0.2867
    193  CB        13.1240   58.8800   57.8620 C.3   186  LYS186      0.0271
    194  CG        12.2190   59.1760   56.6870 C.3   186  LYS186      0.0035
    195  CD        12.1280   57.9880   55.7630 C.3   186  LYS186      0.0206
    196  CE        11.3120   58.3170   54.5320 C.3   186  LYS186      0.1093
    197  NZ        11.2280   57.1310   53.6350 N.3   186  LYS186     -0.1314
    198  N         12.0240   58.6510   64.0350 N.3   190  VAL190     -0.1245
    199  CA        12.1920   57.4030   64.7650 C.3   190  VAL190      0.1561
    200  C         12.7360   57.6690   66.1610 C.2   190  VAL190      0.2260
    201  O         12.2490   57.1120   67.1410 O.2   190  VAL190     -0.2867
    202  CB        13.1400   56.4380   64.0220 C.3   190  VAL190      0.0252
    203  CG1       13.6240   55.3390   64.9480 C.3   190  VAL190      0.0019
    204  CG2       12.4550   55.8580   62.8010 C.3   190  VAL190      0.0019
@<TRIPOS>BOND
     1    68    67    1
     2    66    67    1
     3    66    65    1
     4   165   164    1
     5   165   166    1
     6    64    65    1
     7    64    61    1
     8   167   166    1
     9   164   163    1
    10    63    62    2
    11    72    71    2
    12    62    61    1
    13    61    60    1
    14    71    70    1
    15   163   160    1
    16   159   160    1
    17    73    70    1
    18    73    74    1
    19    60    54   am
    20    70    69    1
    21   160   161    1
    22    46    45    2
    23    47    48    1
    24    47    44    1
    25    45    44    1
    26    48    49    1
    27    74    75    1
    28    83    82    1
    29    54    55    2
    30    54    53    1
    31    44    43    1
    32   161   162    2
    33   161   168   am
    34    75    76    1
    35    82    84    1
    36    82    79    1
    37    50    49    2
    38    49    51   am
    39    58    57    1
    40    58    59    1
    41   168   169    1
    42    53    52    1
    43    53    56    1
    44    43    34   am
    45    56    57    1
    46    78    79    1
    47    79    80    1
    48    80    81    2
    49    76    77    1
    50    35    34    2
    51    34    33    1
    52   169   172    1
    53   169   170    1
    54   172   173    1
    55   171   170    2
    56    32    33    1
    57    33    36    1
    58    41    40    1
    59    36    37    1
    60   173   174   ar
    61   173   175   ar
    62   115   113   ar
    63   115   114   ar
    64   113   111   ar
    65   126   124    1
    66    37    38    1
    67   114   112   ar
    68   111   110   ar
    69   174   176   ar
    70   112   110   ar
    71   175   177   ar
    72   110   109    1
    73    38    39    1
    74   187   186   ar
    75    40    39    2
    76    40    42    1
    77   109   106    1
    78   124   123    2
    79   124   125    1
    80   123   122    1
    81   186   188   ar
    82   186   185    1
    83   176   178   ar
    84   177   178   ar
    85    92    90    1
    86   106   105    1
    87   106   107    1
    88   178   179    1
    89   121   122    1
    90   121   120    1
    91   105   100   am
    92   184   185    1
    93   184   181    1
    94   104   102    1
    95    90    89    1
    96   107   116   am
    97   107   108    2
    98   116   117    1
    99    85    86    1
   100   180   181    1
   101   197   196    1
   102   100    99    1
   103   100   101    2
   104   120   117    1
   105   181   182    1
   106    99   102    1
   107    99    98    1
   108   117   118    1
   109   102   103    1
   110     8     6    1
   111    89    86    1
   112    89    91    1
   113    86    87    1
   114   196   195    1
   115   182   183    2
   116     7     6    1
   117     6     5    1
   118   118   127   am
   119   118   119    2
   120    87    88    2
   121   195   194    1
   122   127   128    1
   123   138   139    1
   124   142   139    1
   125   142   143    1
   126   139   140    1
   127     5     2    1
   128   194   193    1
   129     2     1    1
   130     2     3    1
   131   128   129    1
   132   128   131    1
   133   157   156    1
   134   150   149    1
   135   150   144    1
   136   129   130    2
   137   137   135    1
   138   149   148    1
   139   132   131    1
   140   132   133    1
   141   140   141    2
   142   134   135    2
   143   134   133    1
   144   135   136    1
   145   193   190    1
   146     3     9   am
   147     3     4    2
   148     9    10    1
   149    15    13    1
   150   156   158    1
   151   156   155    1
   152   189   190    1
   153   148   145    1
   154   144   145    1
   155   190   191    1
   156    13    10    1
   157    13    14    1
   158   155   152    1
   159    10    11    1
   160   145   146    1
   161   151   146   am
   162   151   152    1
   163    93    94    1
   164    12    11    2
   165   191   192    2
   166    11    16   am
   167   146   147    2
   168   152   153    1
   169    29    27   ar
   170    29    31   ar
   171    27    26   ar
   172    94    95    1
   173    94    97    1
   174    31    30   ar
   175    26    25    1
   176    26    28   ar
   177    25    22    1
   178    95    96    2
   179    30    28   ar
   180   153   154    2
   181    16    17    1
   182    21    22    1
   183    21    18   am
   184    22    23    1
   185    17    18    1
   186    17    20    1
   187    18    19    2
   188   204   202    1
   189    24    23    2
   190   202   199    1
   191   202   203    1
   192   198   199    1
   193   199   200    1
   194   200   201    2
