@<TRIPOS>MOLECULE
tmp/5ip6A00.pdb
 169 168 0 0 0
SMALL
GASTEIGER

@<TRIPOS>ATOM
      1  N         35.2960    6.4480   13.7100 N.3    66  LEU66      -0.1245
      2  CA        33.9320    6.1580   13.1200 C.3    66  LEU66       0.1561
      3  C         34.0810    5.1430   11.9380 C.2    66  LEU66       0.2260
      4  O         33.2270    4.2900   11.7310 O.2    66  LEU66      -0.2867
      5  CB        33.3160    7.4790   12.5910 C.3    66  LEU66       0.0270
      6  CG        31.9160    7.2740   11.9660 C.3    66  LEU66       0.0019
      7  CD1       30.8490    6.8920   13.0140 C.3    66  LEU66       0.0001
      8  CD2       31.5220    8.5420   11.1940 C.3    66  LEU66       0.0001
      9  N         23.2240    3.5330   17.0390 N.3    82  TRP82      -0.1241
     10  CA        23.3970    5.0230   16.9370 C.3    82  TRP82       0.1605
     11  C         24.1660    5.5870   18.1190 C.2    82  TRP82       0.2264
     12  O         24.9760    6.4890   17.9690 O.2    82  TRP82      -0.2867
     13  CB        22.0500    5.7090   16.8200 C.3    82  TRP82       0.0550
     14  CG        21.4800    5.4470   15.4640 C.ar   82  TRP82       0.0003
     15  CD1       20.4110    4.6200   15.1390 C.ar   82  TRP82       0.0946
     16  CD2       21.9450    6.0080   14.1930 C.ar   82  TRP82       0.0152
     17  NE1       20.1430    4.6670   13.7740 N.ar   82  TRP82      -0.2442
     18  CE2       21.0460    5.4420   13.1460 C.ar   82  TRP82       0.0810
     19  CE3       23.0020    6.8330   13.8190 C.ar   82  TRP82       0.0012
     20  CZ2       21.1890    5.7410   11.7950 C.ar   82  TRP82       0.0191
     21  CZ3       23.1320    7.1360   12.4350 C.ar   82  TRP82       0.0001
     22  CH2       22.2100    6.6130   11.4580 C.ar   82  TRP82       0.0015
     23  N         27.8530    5.1890   17.6970 N.3    85  GLY85      -0.1210
     24  CA        28.3770    6.0900   16.6690 C.3    85  GLY85       0.1956
     25  C         28.5010    7.5350   17.1940 C.2    85  GLY85       0.2611
     26  O         29.5730    8.2070   17.0920 O.2    85  GLY85      -0.2717
     27  N         27.4460    8.0210   17.8440 N.am   86  ILE86      -0.1979
     28  CA        27.5270    9.3450   18.4470 C.3    86  ILE86       0.1595
     29  C         28.6320    9.3790   19.5190 C.2    86  ILE86       0.2287
     30  O         29.2540   10.3880   19.7330 O.2    86  ILE86      -0.2864
     31  CB        26.1350    9.7360   19.0180 C.3    86  ILE86       0.0276
     32  CG1       25.1180    9.8410   17.8540 C.3    86  ILE86       0.0022
     33  CG2       26.2220   10.9680   19.9160 C.3    86  ILE86       0.0022
     34  CD1       23.7200    9.8220   18.3990 C.3    86  ILE86       0.0001
     35  N         32.0380   10.6390   18.8410 N.3    89  PHE89      -0.1241
     36  CA        32.2820   12.1110   18.8820 C.3    89  PHE89       0.1605
     37  C         32.2670   12.6740   20.3040 C.2    89  PHE89       0.2264
     38  O         33.0910   13.5130   20.6890 O.2    89  PHE89      -0.2867
     39  CB        31.2720   12.8270   18.0070 C.3    89  PHE89       0.0534
     40  CG        31.4560   12.4790   16.5810 C.ar   89  PHE89      -0.0203
     41  CD1       32.3860   13.1640   15.8250 C.ar   89  PHE89      -0.0042
     42  CD2       30.8010   11.3860   16.0230 C.ar   89  PHE89      -0.0042
     43  CE1       32.6050   12.7990   14.5080 C.ar   89  PHE89      -0.0003
     44  CE2       31.0310   11.0060   14.6850 C.ar   89  PHE89      -0.0003
     45  CZ        31.9630   11.7060   13.9400 C.ar   89  PHE89      -0.0000
     46  N         35.9400   14.2450   21.0450 N.3    93  PHE93      -0.1241
     47  CA        35.9550   15.7560   21.2850 C.3    93  PHE93       0.1605
     48  C         35.9300   16.0570   22.7860 C.2    93  PHE93       0.2264
     49  O         36.5420   17.0240   23.2670 O.2    93  PHE93      -0.2867
     50  CB        34.7810   16.4190   20.5500 C.3    93  PHE93       0.0534
     51  CG        35.0180   16.5210   19.0910 C.ar   93  PHE93      -0.0203
     52  CD1       35.8920   17.5280   18.5590 C.ar   93  PHE93      -0.0042
     53  CD2       34.4580   15.6120   18.2370 C.ar   93  PHE93      -0.0042
     54  CE1       36.1520   17.5780   17.1850 C.ar   93  PHE93      -0.0003
     55  CE2       34.7620   15.6120   16.8370 C.ar   93  PHE93      -0.0003
     56  CZ        35.5980   16.5870   16.3260 C.ar   93  PHE93      -0.0000
     57  N         36.4960   21.9840    9.0690 N.3   117  TRP117     -0.1241
     58  CA        35.2890   21.5900    9.7930 C.3   117  TRP117      0.1605
     59  C         34.2020   21.2110    8.7830 C.2   117  TRP117      0.2264
     60  O         33.6030   20.1390    8.8520 O.2   117  TRP117     -0.2867
     61  CB        34.8450   22.6740   10.7900 C.3   117  TRP117      0.0550
     62  CG        33.7470   22.1220   11.6230 C.ar  117  TRP117      0.0003
     63  CD1       32.3610   22.4480   11.5710 C.ar  117  TRP117      0.0946
     64  CD2       33.8610   21.0040   12.6100 C.ar  117  TRP117      0.0152
     65  NE1       31.6500   21.6650   12.4950 N.ar  117  TRP117     -0.2442
     66  CE2       32.4880   20.7600   13.1200 C.ar  117  TRP117      0.0810
     67  CE3       34.9360   20.2640   13.1510 C.ar  117  TRP117      0.0012
     68  CZ2       32.2210   19.7730   14.0930 C.ar  117  TRP117      0.0191
     69  CZ3       34.6510   19.2450   14.1160 C.ar  117  TRP117      0.0001
     70  CH2       33.3290   19.0200   14.5800 C.ar  117  TRP117      0.0015
     71  N         32.3190   17.6240    8.3020 N.3   121  MET121     -0.1245
     72  CA        30.8890   17.6130    8.5690 C.3   121  MET121      0.1570
     73  C         30.1970   17.0810    7.3130 C.2   121  MET121      0.2261
     74  O         29.2690   16.3690    7.4280 O.2   121  MET121     -0.2867
     75  CB        30.3270   19.0200    8.8850 C.3   121  MET121      0.0387
     76  CG        30.7260   19.5050   10.2420 C.3   121  MET121      0.0595
     77  SD        29.8780   18.5640   11.5520 S.3   121  MET121     -0.1393
     78  CE        28.1640   19.1160   11.4510 C.3   121  MET121      0.0692
     79  N         30.6020   13.3340    7.4450 N.3   124  TRP124     -0.1241
     80  CA        29.8590   12.6890    8.4940 C.3   124  TRP124      0.1605
     81  C         28.3460   12.6970    8.2460 C.2   124  TRP124      0.2264
     82  O         27.6700   11.7550    8.5330 O.2   124  TRP124     -0.2867
     83  CB        30.1370   13.3460    9.8420 C.3   124  TRP124      0.0550
     84  CG        31.5610   13.1370   10.2240 C.ar  124  TRP124      0.0003
     85  CD1       32.4080   12.0750    9.8740 C.ar  124  TRP124      0.0946
     86  CD2       32.3890   14.0520   11.0090 C.ar  124  TRP124      0.0152
     87  NE1       33.6490   12.2770   10.3880 N.ar  124  TRP124     -0.2442
     88  CE2       33.7090   13.4460   11.0710 C.ar  124  TRP124      0.0810
     89  CE3       32.1660   15.3220   11.6310 C.ar  124  TRP124      0.0012
     90  CZ2       34.7580   14.0360   11.7840 C.ar  124  TRP124      0.0191
     91  CZ3       33.2440   15.9220   12.3220 C.ar  124  TRP124      0.0001
     92  CH2       34.4860   15.2830   12.4170 C.ar  124  TRP124      0.0015
     93  N         27.6650   10.0020    5.5020 N.3   127  TYR127     -0.1227
     94  CA        27.6980    8.6760    6.1170 C.3   127  TYR127      0.1736
     95  C         26.3580    8.4580    6.8390 C.2   127  TYR127      0.2596
     96  O         25.7170    7.4240    6.7080 O.2   127  TYR127     -0.2718
     97  CB        28.8690    8.6300    7.0980 C.3   127  TYR127      0.0548
     98  CG        28.8250    7.3670    7.8850 C.ar  127  TYR127     -0.0200
     99  CD1       29.1130    6.1690    7.2790 C.ar  127  TYR127     -0.0009
    100  CD2       28.3710    7.3830    9.2050 C.ar  127  TYR127     -0.0009
    101  CE1       29.0370    4.9800    7.9610 C.ar  127  TYR127      0.0417
    102  CE2       28.3470    6.2020    9.9390 C.ar  127  TYR127      0.0417
    103  CZ        28.6760    5.0030    9.2840 C.ar  127  TYR127      0.1957
    104  OH        28.5860    3.7880    9.9580 O.3   127  TYR127     -0.2866
    105  N         25.9180    9.4870    7.5670 N.am  128  THR128     -0.1953
    106  CA        24.6690    9.3810    8.3440 C.3   128  THR128      0.1897
    107  C         23.5050    9.1800    7.3500 C.2   128  THR128      0.2313
    108  O         22.6310    8.3380    7.5680 O.2   128  THR128     -0.2863
    109  CB        24.4090   10.6710    9.1610 C.3   128  THR128      0.1794
    110  OG1       25.4160   10.8480   10.1380 O.3   128  THR128     -0.2208
    111  CG2       23.0210   10.6550    9.9290 C.3   128  THR128      0.0378
    112  N         23.2190   16.0650   12.6400 N.3   155  ASN155     -0.1240
    113  CA        24.6210   16.3650   12.8690 C.3   155  ASN155      0.1653
    114  C         24.8690   17.7780   13.3860 C.2   155  ASN155      0.2266
    115  O         25.7310   17.9240   14.2530 O.2   155  ASN155     -0.2867
    116  CB        25.4300   16.1340   11.5400 C.3   155  ASN155      0.1155
    117  CG        25.7860   14.6630   11.3380 C.2   155  ASN155      0.2627
    118  OD1       26.8510   14.2430   11.7780 O.2   155  ASN155     -0.2716
    119  ND2       24.8710   13.8570   10.7660 N.am  155  ASN155     -0.0877
    120  N         23.9860   17.8090   17.0670 N.3   158  ASN158     -0.1225
    121  CA        25.1000   17.2210   17.8850 C.3   158  ASN158      0.1785
    122  C         26.3070   18.1360   18.0210 C.2   158  ASN158      0.2597
    123  O         26.8750   18.2040   19.1240 O.2   158  ASN158     -0.2718
    124  CB        25.5930   15.8260   17.3480 C.3   158  ASN158      0.1169
    125  CG        24.5430   14.7510   17.5280 C.2   158  ASN158      0.2627
    126  OD1       23.3590   15.0430   17.8220 O.2   158  ASN158     -0.2716
    127  ND2       24.9420   13.5050   17.3450 N.am  158  ASN158     -0.0877
    128  N         26.6960   18.8160   16.9350 N.am  159  GLU159     -0.1979
    129  CA        27.8050   19.7300   17.0250 C.3   159  GLU159      0.1602
    130  C         27.4940   20.7930   18.1030 C.2   159  GLU159      0.2287
    131  O         28.3570   20.9970   19.0280 O.2   159  GLU159     -0.2864
    132  CB        28.1160   20.3840   15.6850 C.3   159  GLU159      0.0415
    133  CG        28.9920   21.6030   15.7670 C.3   159  GLU159      0.1163
    134  CD        28.9090   22.5190   14.5540 C.2   159  GLU159      0.3649
    135  OE1       29.0160   22.0500   13.4270 O.co2 159  GLU159     -0.2457
    136  OE2       28.7980   23.7530   14.7350 O.co2 159  GLU159     -0.2457
    137  N         26.7390   18.9210   21.8540 N.3   162  LEU162     -0.1231
    138  CA        28.0200   18.4170   22.4300 C.3   162  LEU162      0.1693
    139  C         28.8730   19.5440   22.8910 C.2   162  LEU162      0.2592
    140  O         29.3310   19.5210   24.0640 O.2   162  LEU162     -0.2718
    141  CB        28.8000   17.5160   21.4700 C.3   162  LEU162      0.0284
    142  CG        28.1440   16.1450   21.3200 C.3   162  LEU162      0.0019
    143  CD1       28.9560   15.5210   20.1860 C.3   162  LEU162      0.0001
    144  CD2       28.1050   15.2560   22.5900 C.3   162  LEU162      0.0001
    145  N         29.0530   20.5510   22.0070 N.am  163  PHE163     -0.1976
    146  CA        29.9620   21.6200   22.3250 C.3   163  PHE163      0.1639
    147  C         29.4690   22.5780   23.4420 C.2   163  PHE163      0.2290
    148  O         30.2880   22.9490   24.3100 O.2   163  PHE163     -0.2864
    149  CB        30.5220   22.3380   21.0340 C.3   163  PHE163      0.0560
    150  CG        31.2220   21.3540   20.0340 C.ar  163  PHE163     -0.0200
    151  CD1       31.5620   20.0260   20.4110 C.ar  163  PHE163     -0.0042
    152  CD2       31.5090   21.7340   18.7090 C.ar  163  PHE163     -0.0042
    153  CE1       32.1820   19.1110   19.5040 C.ar  163  PHE163     -0.0003
    154  CE2       32.1200   20.8260   17.8150 C.ar  163  PHE163     -0.0003
    155  CZ        32.4420   19.5170   18.2050 C.ar  163  PHE163     -0.0000
    156  N         17.7680   11.3030   17.8350 N.3   186  TRP186     -0.1241
    157  CA        18.1280   10.5180   16.6110 C.3   186  TRP186      0.1605
    158  C         17.1930    9.3610   16.3360 C.2   186  TRP186      0.2264
    159  O         16.6170    9.2600   15.2050 O.2   186  TRP186     -0.2867
    160  CB        19.5710   10.0410   16.7160 C.3   186  TRP186      0.0550
    161  CG        20.5880   11.0950   16.4380 C.ar  186  TRP186      0.0003
    162  CD1       20.8310   12.3170   17.1440 C.ar  186  TRP186      0.0946
    163  CD2       21.5960   11.0770   15.3840 C.ar  186  TRP186      0.0152
    164  NE1       21.8120   12.9820   16.5560 N.ar  186  TRP186     -0.2442
    165  CE2       22.3140   12.3180   15.4920 C.ar  186  TRP186      0.0810
    166  CE3       21.9090   10.1910   14.3190 C.ar  186  TRP186      0.0012
    167  CZ2       23.3840   12.6410   14.6310 C.ar  186  TRP186      0.0191
    168  CZ3       22.9750   10.5530   13.4420 C.ar  186  TRP186      0.0001
    169  CH2       23.6650   11.7420   13.5850 C.ar  186  TRP186      0.0015
@<TRIPOS>BOND
     1    93    94    1
     2    94    95    1
     3    94    97    1
     4    96    95    2
     5    95   105   am
     6    97    98    1
     7    99    98   ar
     8    99   101   ar
     9    73    74    2
    10    73    72    1
    11   107   108    2
    12   107   106    1
    13    79    80    1
    14   105   106    1
    15    98   100   ar
    16   101   103   ar
    17    81    80    1
    18    81    82    2
    19    71    72    1
    20   106   109    1
    21    80    83    1
    22    72    75    1
    23    59    60    2
    24    59    58    1
    25    75    76    1
    26    57    58    1
    27   109   111    1
    28   109   110    1
    29   100   102   ar
    30   103   102   ar
    31   103   104    1
    32    58    61    1
    33    83    84    1
    34    85    84   ar
    35    85    87   ar
    36    84    86   ar
    37    76    77    1
    38    87    88   ar
    39   119   117   am
    40    61    62    1
    41    86    88   ar
    42    86    89   ar
    43    88    90   ar
    44     8     6    1
    45   117   116    1
    46   117   118    2
    47    78    77    1
    48    22    20   ar
    49    22    21   ar
    50   116   113    1
    51    63    62   ar
    52    63    65   ar
    53    62    64   ar
    54    89    91   ar
    55     4     3    2
    56    90    92   ar
    57    20    18   ar
    58     3     2    1
    59     6     5    1
    60     6     7    1
    61    91    92   ar
    62    21    19   ar
    63    65    66   ar
    64     5     2    1
    65    64    66   ar
    66    64    67   ar
    67   112   113    1
    68   113   114    1
    69     2     1    1
    70    66    68   ar
    71    18    17   ar
    72    18    16   ar
    73    67    69   ar
    74   114   115    2
    75   135   134   ar
    76   168   169   ar
    77   168   166   ar
    78   169   167   ar
    79    17    15   ar
    80    19    16   ar
    81    45    43   ar
    82    45    44   ar
    83    68    70   ar
    84    69    70   ar
    85    16    14   ar
    86   166   163   ar
    87    43    41   ar
    88   134   136   ar
    89   134   133    1
    90   167   165   ar
    91    44    42   ar
    92    15    14   ar
    93   159   158    2
    94   163   165   ar
    95   163   161   ar
    96    14    13    1
    97   165   164   ar
    98   132   133    1
    99   132   129    1
   100    41    40   ar
   101    42    40   ar
   102    56    55   ar
   103    56    54   ar
   104   158   157    1
   105   161   160    1
   106   161   162   ar
   107   164   162   ar
   108    40    39    1
   109   157   160    1
   110   157   156    1
   111    24    25    1
   112    24    23    1
   113    13    10    1
   114    55    53   ar
   115   128   129    1
   116   128   122   am
   117    10     9    1
   118    10    11    1
   119   129   130    1
   120   120   121    1
   121    26    25    2
   122    54    52   ar
   123    25    27   am
   124   127   125   am
   125   124   125    1
   126   124   121    1
   127   125   126    2
   128   154   155   ar
   129   154   152   ar
   130    27    28    1
   131    32    34    1
   132    32    31    1
   133   121   122    1
   134    12    11    2
   135    39    36    1
   136   122   123    2
   137   130   131    2
   138   155   153   ar
   139    53    51   ar
   140    28    31    1
   141    28    29    1
   142    52    51   ar
   143   152   150   ar
   144    35    36    1
   145    36    37    1
   146    31    33    1
   147    51    50    1
   148   153   151   ar
   149    29    30    2
   150   150   151   ar
   151   150   149    1
   152   143   142    1
   153    37    38    2
   154    50    47    1
   155   149   146    1
   156    46    47    1
   157    47    48    1
   158   142   141    1
   159   142   144    1
   160   141   138    1
   161   137   138    1
   162   145   146    1
   163   145   139   am
   164   146   147    1
   165   138   139    1
   166    48    49    2
   167   139   140    2
   168   147   148    2
