@<TRIPOS>MOLECULE
tmp/5ipcA00.pdb
 178 173 0 0 0
SMALL
GASTEIGER

@<TRIPOS>ATOM
      1  N        -32.8630   -1.5740  -33.3890 N.3     7  ILE7       -0.1231
      2  CA       -31.8250   -0.8170  -34.0880 C.3     7  ILE7        0.1692
      3  C        -30.4450   -1.3820  -33.7820 C.2     7  ILE7        0.2592
      4  O        -29.5690   -1.4230  -34.6500 O.2     7  ILE7       -0.2718
      5  CB       -31.9330    0.6860  -33.7450 C.3     7  ILE7        0.0266
      6  CG1      -30.7380    1.4810  -34.2870 C.3     7  ILE7        0.0019
      7  CG2      -32.0190    0.9090  -32.2420 C.3     7  ILE7        0.0020
      8  CD1      -30.6920    1.5570  -35.7780 C.3     7  ILE7        0.0001
      9  N        -30.2330   -1.8500  -32.5500 N.am    8  PHE8       -0.1976
     10  CA       -28.9120   -2.3500  -32.1890 C.3     8  PHE8        0.1639
     11  C        -28.6250   -3.6960  -32.8490 C.2     8  PHE8        0.2290
     12  O        -27.4820   -3.9740  -33.2330 O.2     8  PHE8       -0.2864
     13  CB       -28.7740   -2.4150  -30.6640 C.3     8  PHE8        0.0560
     14  CG       -28.8290   -1.0630  -29.9800 C.ar    8  PHE8       -0.0200
     15  CD1      -28.6890    0.1190  -30.6990 C.ar    8  PHE8       -0.0042
     16  CD2      -29.0070   -0.9840  -28.6130 C.ar    8  PHE8       -0.0042
     17  CE1      -28.7470    1.3540  -30.0620 C.ar    8  PHE8       -0.0003
     18  CE2      -29.0700    0.2510  -27.9750 C.ar    8  PHE8       -0.0003
     19  CZ       -28.9320    1.4140  -28.7020 C.ar    8  PHE8       -0.0000
     20  N        -27.5510   -2.8070  -36.2920 N.3    11  ILE11      -0.1245
     21  CA       -26.1760   -2.3170  -36.2840 C.3    11  ILE11       0.1561
     22  C        -25.1900   -3.4770  -36.1540 C.2    11  ILE11       0.2260
     23  O        -24.1770   -3.5310  -36.8650 O.2    11  ILE11      -0.2867
     24  CB       -26.0070   -1.2520  -35.1860 C.3    11  ILE11       0.0252
     25  CG1      -26.7210    0.0420  -35.5960 C.3    11  ILE11       0.0019
     26  CG2      -24.5320   -1.0170  -34.8820 C.3    11  ILE11       0.0019
     27  CD1      -26.7890    1.0730  -34.4890 C.3    11  ILE11       0.0001
     28  N        -27.4830   -1.4070  -40.6650 N.3    16  ILE16      -0.1231
     29  CA       -27.6050    0.0330  -40.4640 C.3    16  ILE16       0.1678
     30  C        -26.2160    0.5220  -40.0700 C.2    16  ILE16       0.2434
     31  O        -25.5660   -0.1120  -39.2260 O.2    16  ILE16      -0.2733
     32  CB       -28.6510    0.3450  -39.3810 C.3    16  ILE16       0.0265
     33  CG1      -30.0550    0.0470  -39.9210 C.3    16  ILE16       0.0019
     34  CG2      -28.5310    1.7870  -38.9070 C.3    16  ILE16       0.0020
     35  CD1      -31.1750    0.4930  -39.0280 C.3    16  ILE16       0.0001
     36  N        -25.7170    1.6180  -40.6380 N.am   17  PRO17      -0.2718
     37  CA       -24.3500    2.0430  -40.3250 C.3    17  PRO17       0.1535
     38  C        -24.2350    2.6480  -38.9360 C.2    17  PRO17       0.2598
     39  O        -25.1860    3.2060  -38.3830 O.2    17  PRO17      -0.2715
     40  CB       -24.0460    3.0950  -41.3980 C.3    17  PRO17       0.0310
     41  CG       -25.3890    3.5860  -41.8360 C.3    17  PRO17       0.0237
     42  CD       -26.3010    2.3990  -41.7420 C.3    17  PRO17       0.0939
     43  N        -23.0310    2.5420  -38.3890 N.am   18  ALA18      -0.1964
     44  CA       -22.6930    3.1470  -37.1120 C.3    18  ALA18       0.1728
     45  C        -21.2030    3.4310  -37.1310 C.2    18  ALA18       0.2616
     46  O        -20.4660    2.9120  -37.9760 O.2    18  ALA18      -0.2715
     47  CB       -23.0590    2.2220  -35.9470 C.3    18  ALA18       0.0334
     48  N        -20.7600    4.2680  -36.2030 N.am   19  LYS19      -0.1977
     49  CA       -19.3440    4.6110  -36.0770 C.3    19  LYS19       0.1596
     50  C        -18.7740    3.6930  -35.0040 C.2    19  LYS19       0.2287
     51  O        -18.8880    3.9640  -33.8030 O.2    19  LYS19      -0.2864
     52  CB       -19.1640    6.0870  -35.7380 C.3    19  LYS19       0.0298
     53  CG       -19.7680    7.0510  -36.7710 C.3    19  LYS19       0.0038
     54  CD       -19.2850    6.7950  -38.1900 C.3    19  LYS19       0.0206
     55  CE       -17.7920    7.0060  -38.3400 C.3    19  LYS19       0.1093
     56  NZ       -17.3760    6.8690  -39.7690 N.3    19  LYS19      -0.1314
     57  N        -19.7920    1.5640  -30.0860 N.3    30  PHE30      -0.1227
     58  CA       -20.0210    2.4910  -31.1870 C.3    30  PHE30       0.1736
     59  C        -20.5550    3.7980  -30.6200 C.2    30  PHE30       0.2595
     60  O        -21.1330    3.8290  -29.5330 O.2    30  PHE30      -0.2718
     61  CB       -20.9880    1.9010  -32.2320 C.3    30  PHE30       0.0547
     62  CG       -22.3480    1.5530  -31.6900 C.ar   30  PHE30      -0.0202
     63  CD1      -23.4330    2.4070  -31.8750 C.ar   30  PHE30      -0.0042
     64  CD2      -22.5430    0.3690  -30.9840 C.ar   30  PHE30      -0.0042
     65  CE1      -24.6960    2.0730  -31.3840 C.ar   30  PHE30      -0.0003
     66  CE2      -23.8000    0.0380  -30.4810 C.ar   30  PHE30      -0.0003
     67  CZ       -24.8690    0.8860  -30.6720 C.ar   30  PHE30      -0.0000
     68  N        -20.3770    4.8780  -31.3720 N.am   31  HIS31      -0.1961
     69  CA       -20.7410    6.1950  -30.8680 C.3    31  HIS31       0.1787
     70  C        -22.2490    6.4020  -30.8690 C.2    31  HIS31       0.2620
     71  O        -22.9660    5.9130  -31.7450 O.2    31  HIS31      -0.2715
     72  CB       -20.0670    7.2890  -31.6920 C.3    31  HIS31       0.0785
     73  CG       -18.5920    7.3260  -31.5030 C.ar   31  HIS31       0.0821
     74  ND1      -18.0080    7.9820  -30.4410 N.ar   31  HIS31      -0.2267
     75  CD2      -17.5870    6.7350  -32.1870 C.ar   31  HIS31       0.1154
     76  CE1      -16.6970    7.8310  -30.5070 C.ar   31  HIS31       0.1986
     77  NE2      -16.4160    7.0710  -31.5510 N.ar   31  HIS31      -0.2212
     78  N        -22.7230    7.1370  -29.8670 N.am   32  ASP32      -0.1957
     79  CA       -24.1380    7.4700  -29.7820 C.3    32  ASP32       0.1840
     80  C        -24.4840    8.5400  -30.8180 C.2    32  ASP32       0.2622
     81  O        -23.7670    9.5310  -30.9700 O.2    32  ASP32      -0.2715
     82  CB       -24.4200    7.9930  -28.3740 C.3    32  ASP32       0.1450
     83  CG       -25.8830    7.9950  -28.0290 C.2    32  ASP32       0.3671
     84  OD1      -26.6890    8.6160  -28.7590 O.co2  32  ASP32      -0.2456
     85  OD2      -26.2290    7.3940  -26.9940 O.co2  32  ASP32      -0.2456
     86  N        -25.6070    8.3450  -31.5140 N.am   33  ILE33      -0.1963
     87  CA       -26.0340    9.2800  -32.5520 C.3    33  ILE33       0.1727
     88  C        -26.5420   10.5980  -31.9780 C.2    33  ILE33       0.2616
     89  O        -26.6200   11.5980  -32.7030 O.2    33  ILE33      -0.2715
     90  CB       -27.0860    8.5990  -33.4490 C.3    33  ILE33       0.0290
     91  CG1      -27.2300    9.3140  -34.7920 C.3    33  ILE33       0.0022
     92  CG2      -28.4230    8.5220  -32.7410 C.3    33  ILE33       0.0023
     93  CD1      -28.1160    8.5630  -35.7600 C.3    33  ILE33       0.0001
     94  N        -26.8930   10.6240  -30.6950 N.am   34  SER34      -0.1950
     95  CA       -27.3760   11.8270  -30.0140 C.3    34  SER34       0.1924
     96  C        -26.5300   12.0320  -28.7650 C.2    34  SER34       0.2314
     97  O        -27.0010   11.8290  -27.6330 O.2    34  SER34      -0.2863
     98  CB       -28.8570   11.6960  -29.6550 C.3    34  SER34       0.2116
     99  OG       -29.6690   11.6340  -30.8170 O.3    34  SER34      -0.2180
    100  N        -24.6600   13.1100  -25.4780 N.3    36  GLN36      -0.1245
    101  CA       -24.9570   13.9690  -24.3420 C.3    36  GLN36       0.1566
    102  C        -23.6980   14.4970  -23.6770 C.2    36  GLN36       0.2260
    103  O        -23.7820   15.1570  -22.6350 O.2    36  GLN36      -0.2867
    104  CB       -25.7880   13.1910  -23.3210 C.3    36  GLN36       0.0367
    105  CG       -27.0850   12.6370  -23.8890 C.3    36  GLN36       0.0905
    106  CD       -28.0220   13.7250  -24.3520 C.2    36  GLN36       0.2608
    107  OE1      -28.4080   14.5950  -23.5670 O.2    36  GLN36      -0.2717
    108  NE2      -28.3760   13.7090  -25.6370 N.am   36  GLN36      -0.0878
    109  N        -19.4560   10.2460  -26.2370 N.3    40  HIS40      -0.1241
    110  CA       -20.5860    9.4700  -25.7370 C.3    40  HIS40       0.1621
    111  C        -20.7280    8.2630  -26.6480 C.2    40  HIS40       0.2264
    112  O        -21.0910    8.3960  -27.8240 O.2    40  HIS40      -0.2867
    113  CB       -21.8510   10.3210  -25.7250 C.3    40  HIS40       0.0745
    114  CG       -23.0580    9.6280  -25.1750 C.ar   40  HIS40       0.0817
    115  ND1      -24.2780   10.2610  -25.0770 N.ar   40  HIS40      -0.2268
    116  CD2      -23.2370    8.3770  -24.6820 C.ar   40  HIS40       0.1154
    117  CE1      -25.1600    9.4280  -24.5580 C.ar   40  HIS40       0.1986
    118  NE2      -24.5560    8.2780  -24.3100 N.ar   40  HIS40      -0.2212
    119  N        -21.5970    3.7280  -26.7670 N.3    42  LEU42      -0.1245
    120  CA       -22.3950    2.6380  -26.2350 C.3    42  LEU42       0.1561
    121  C        -21.6210    1.3450  -26.4080 C.2    42  LEU42       0.2260
    122  O        -20.9190    1.1580  -27.4140 O.2    42  LEU42      -0.2867
    123  CB       -23.7060    2.5180  -27.0350 C.3    42  LEU42       0.0270
    124  CG       -24.4920    3.8310  -27.1300 C.3    42  LEU42       0.0019
    125  CD1      -25.5970    3.7550  -28.1870 C.3    42  LEU42       0.0001
    126  CD2      -25.0560    4.2360  -25.7690 C.3    42  LEU42       0.0001
    127  N        -29.7330    1.9720  -18.4700 N.3    88  ASN88      -0.1240
    128  CA       -31.1090    2.3830  -18.2300 C.3    88  ASN88       0.1653
    129  C        -32.0380    1.1820  -18.2970 C.2    88  ASN88       0.2266
    130  O        -31.9940    0.4170  -19.2610 O.2    88  ASN88      -0.2867
    131  CB       -31.5280    3.3850  -19.3040 C.3    88  ASN88       0.1155
    132  CG       -30.7060    4.6420  -19.2690 C.2    88  ASN88       0.2627
    133  OD1      -30.3360    5.1120  -18.1980 O.2    88  ASN88      -0.2716
    134  ND2      -30.4150    5.1960  -20.4360 N.am   88  ASN88      -0.0877
    135  N        -35.5000    5.4070  -18.1890 N.3    94  GLY94      -0.1210
    136  CA       -35.3200    6.0540  -19.4660 C.3    94  GLY94       0.1956
    137  C        -34.9520    5.1260  -20.5970 C.2    94  GLY94       0.2612
    138  O        -34.3800    5.5810  -21.5930 O.2    94  GLY94      -0.2717
    139  N        -35.2720    3.8360  -20.4930 N.am   95  GLN95      -0.1965
    140  CA       -34.9450    2.9160  -21.5730 C.3    95  GLN95       0.1733
    141  C        -35.7890    3.2240  -22.8080 C.2    95  GLN95       0.2617
    142  O        -37.0030    3.4420  -22.7110 O.2    95  GLN95      -0.2715
    143  CB       -35.1570    1.4740  -21.1200 C.3    95  GLN95       0.0408
    144  CG       -34.6810    0.4670  -22.1350 C.3    95  GLN95       0.0908
    145  CD       -34.3640   -0.8840  -21.5220 C.2    95  GLN95       0.2608
    146  OE1      -34.7900   -1.2050  -20.4100 O.2    95  GLN95      -0.2717
    147  NE2      -33.6270   -1.6920  -22.2610 N.am   95  GLN95      -0.0878
    148  N        -35.1390    3.2700  -23.9700 N.am   96  SER96      -0.1936
    149  CA       -35.8200    3.5290  -25.2300 C.3    96  SER96       0.2055
    150  C        -35.5380    2.4900  -26.3000 C.2    96  SER96       0.2642
    151  O        -36.2760    2.4380  -27.2920 O.2    96  SER96      -0.2714
    152  CB       -35.4480    4.9180  -25.7690 C.3    96  SER96       0.2130
    153  OG       -34.0550    4.9990  -26.0380 O.3    96  SER96      -0.2179
    154  N        -34.4930    1.6830  -26.1530 N.am   97  VAL97      -0.1977
    155  CA       -34.1900    0.5820  -27.0570 C.3    97  VAL97       0.1596
    156  C        -34.0460   -0.6480  -26.1830 C.2    97  VAL97       0.2287
    157  O        -33.2200   -0.6620  -25.2600 O.2    97  VAL97      -0.2864
    158  CB       -32.8910    0.8160  -27.8410 C.3    97  VAL97       0.0276
    159  CG1      -32.5890   -0.3960  -28.7230 C.3    97  VAL97       0.0022
    160  CG2      -32.9840    2.0870  -28.6790 C.3    97  VAL97       0.0022
    161  N        -27.6610   -1.9730  -23.2110 N.3   101  ASN101     -0.1240
    162  CA       -26.5660   -1.1310  -23.6720 C.3   101  ASN101      0.1653
    163  C        -25.9740   -0.3630  -22.4970 C.2   101  ASN101      0.2266
    164  O        -26.6970    0.1140  -21.6110 O.2   101  ASN101     -0.2867
    165  CB       -27.0030   -0.1740  -24.7930 C.3   101  ASN101      0.1155
    166  CG       -28.0980    0.7810  -24.3620 C.2   101  ASN101      0.2627
    167  OD1      -27.8260    1.9130  -23.9790 O.2   101  ASN101     -0.2716
    168  ND2      -29.3400    0.3330  -24.4310 N.am  101  ASN101     -0.0877
    169  N        -23.8420    2.9250  -21.5760 N.3   103  HIS103     -0.1241
    170  CA       -23.3450    4.2100  -22.0430 C.3   103  HIS103      0.1621
    171  C        -22.0170    4.5040  -21.3790 C.2   103  HIS103      0.2264
    172  O        -21.8160    4.1870  -20.2020 O.2   103  HIS103     -0.2867
    173  CB       -24.2700    5.3400  -21.6040 C.3   103  HIS103      0.0745
    174  CG       -25.6380    5.2730  -22.1790 C.ar  103  HIS103      0.0817
    175  ND1      -26.0580    6.1290  -23.1700 N.ar  103  HIS103     -0.2268
    176  CD2      -26.6880    4.4670  -21.9020 C.ar  103  HIS103      0.1154
    177  CE1      -27.3070    5.8490  -23.4880 C.ar  103  HIS103      0.1986
    178  NE2      -27.7150    4.8450  -22.7280 N.ar  103  HIS103     -0.2212
@<TRIPOS>BOND
     1    41    42    1
     2    41    40    1
     3    42    36    1
     4    40    37    1
     5    28    29    1
     6    36    37    1
     7    36    30   am
     8    29    30    1
     9    29    32    1
    10    37    38    1
    11    30    31    2
    12    33    32    1
    13    33    35    1
    14    56    55    1
    15    32    34    1
    16    38    43   am
    17    38    39    2
    18    43    44    1
    19    55    54    1
    20    54    53    1
    21    46    45    2
    22    45    44    1
    23    45    48   am
    24    44    47    1
    25    23    22    2
    26    53    52    1
    27    20    21    1
    28    21    22    1
    29    21    24    1
    30    48    49    1
    31    49    52    1
    32    49    50    1
    33     8     6    1
    34    93    91    1
    35    25    24    1
    36    25    27    1
    37    24    26    1
    38    50    51    2
    39    91    90    1
    40     4     3    2
    41     6     5    1
    42     2     3    1
    43     2     5    1
    44     2     1    1
    45     3     9   am
    46     5     7    1
    47    90    92    1
    48    90    87    1
    49    12    11    2
    50    11    10    1
    51    89    88    2
    52    87    88    1
    53    87    86    1
    54     9    10    1
    55    61    62    1
    56    61    58    1
    57    10    13    1
    58    75    77   ar
    59    75    73   ar
    60    88    94   am
    61    63    62   ar
    62    63    65   ar
    63    71    70    2
    64    72    73    1
    65    72    69    1
    66    62    64   ar
    67    77    76   ar
    68    86    80   am
    69    73    74   ar
    70    65    67   ar
    71    68    69    1
    72    68    59   am
    73    58    59    1
    74    58    57    1
    75    64    66   ar
    76    81    80    2
    77    70    69    1
    78    70    78   am
    79    80    79    1
    80    99    98    1
    81    15    17   ar
    82    15    14   ar
    83    94    95    1
    84    67    66   ar
    85    13    14    1
    86    59    60    2
    87    76    74   ar
    88    17    19   ar
    89    95    98    1
    90    95    96    1
    91    14    16   ar
    92    78    79    1
    93    79    82    1
    94    96    97    2
    95    84    83   ar
    96   159   158    1
    97    19    18   ar
    98   160   158    1
    99    16    18   ar
   100    82    83    1
   101   125   124    1
   102    83    85   ar
   103   158   155    1
   104   112   111    2
   105   122   121    2
   106   151   150    2
   107   124   123    1
   108   124   126    1
   109   155   156    1
   110   155   154    1
   111   123   120    1
   112   119   120    1
   113   111   110    1
   114   121   120    1
   115   150   154   am
   116   150   149    1
   117   109   110    1
   118   156   157    2
   119   153   152    1
   120   152   149    1
   121   110   113    1
   122   113   114    1
   123   108   106   am
   124   100   101    1
   125   149   148    1
   126   114   115   ar
   127   114   116   ar
   128   115   117   ar
   129   165   166    1
   130   165   162    1
   131   116   118   ar
   132   117   118   ar
   133   168   166   am
   134   166   167    2
   135   106   105    1
   136   106   107    2
   137   101   102    1
   138   101   104    1
   139   148   141   am
   140   105   104    1
   141   102   103    2
   142   162   161    1
   143   162   163    1
   144   177   175   ar
   145   177   178   ar
   146   175   174   ar
   147   141   142    2
   148   141   140    1
   149   178   176   ar
   150   163   164    2
   151   147   145   am
   152   174   176   ar
   153   174   173    1
   154   144   145    1
   155   144   143    1
   156   170   173    1
   157   170   169    1
   158   170   171    1
   159   138   137    2
   160   140   143    1
   161   140   139    1
   162   145   146    2
   163   171   172    2
   164   137   139   am
   165   137   136    1
   166   134   132   am
   167   136   135    1
   168   131   132    1
   169   131   128    1
   170   132   133    2
   171   130   129    2
   172   127   128    1
   173   129   128    1
