@<TRIPOS>MOLECULE
tmp/5ipfA00.pdb
 119 116 0 0 0
SMALL
GASTEIGER

@<TRIPOS>ATOM
      1  N         -1.2200   -6.8800    0.5930 N.3   117  GLU117     -0.1231
      2  CA        -2.1290   -7.6190    1.4520 C.3   117  GLU117      0.1699
      3  C         -3.4700   -6.8970    1.5030 C.2   117  GLU117      0.2592
      4  O         -3.6220   -5.7740    1.0140 O.2   117  GLU117     -0.2718
      5  CB        -1.5520   -7.7870    2.8650 C.3   117  GLU117      0.0402
      6  CG        -2.0880   -9.0040    3.6120 C.3   117  GLU117      0.1161
      7  CD        -1.9200   -8.8930    5.1140 C.2   117  GLU117      0.3649
      8  OE1       -1.0000   -8.1760    5.5570 O.co2 117  GLU117     -0.2457
      9  OE2       -2.7140   -9.5180    5.8520 O.co2 117  GLU117     -0.2457
     10  N         -4.4480   -7.5560    2.1210 N.am  118  ASP118     -0.1960
     11  CA        -5.8360   -7.1200    2.0680 C.3   118  ASP118      0.1840
     12  C         -6.2100   -6.1700    3.2060 C.2   118  ASP118      0.2622
     13  O         -6.8210   -5.1240    2.9620 O.2   118  ASP118     -0.2715
     14  CB        -6.7480   -8.3490    2.0640 C.3   118  ASP118      0.1450
     15  CG        -6.4480   -9.3090    3.2030 C.2   118  ASP118      0.3671
     16  OD1       -5.3260   -9.2650    3.7480 O.co2 118  ASP118     -0.2456
     17  OD2       -7.3360  -10.1150    3.5520 O.co2 118  ASP118     -0.2456
     18  N         -5.8610   -6.5110    4.4470 N.am  119  ILE119     -0.1963
     19  CA        -6.2510   -5.6980    5.5950 C.3   119  ILE119      0.1727
     20  C         -5.3190   -6.0130    6.7570 C.2   119  ILE119      0.2616
     21  O         -4.8750   -7.1520    6.9250 O.2   119  ILE119     -0.2715
     22  CB        -7.7390   -5.9350    5.9640 C.3   119  ILE119      0.0290
     23  CG1       -8.1800   -4.9950    7.0870 C.3   119  ILE119      0.0022
     24  CG2       -7.9770   -7.3860    6.3470 C.3   119  ILE119      0.0023
     25  CD1       -9.6590   -5.0550    7.3880 C.3   119  ILE119      0.0001
     26  N         -5.0180   -4.9910    7.5560 N.am  120  ILE120     -0.1963
     27  CA        -4.1900   -5.1140    8.7510 C.3   120  ILE120      0.1727
     28  C         -5.0770   -4.9050    9.9710 C.2   120  ILE120      0.2616
     29  O         -5.8490   -3.9390   10.0260 O.2   120  ILE120     -0.2715
     30  CB        -3.0300   -4.1020    8.7410 C.3   120  ILE120      0.0290
     31  CG1       -2.1440   -4.3060    7.5110 C.3   120  ILE120      0.0022
     32  CG2       -2.2030   -4.2170   10.0140 C.3   120  ILE120      0.0023
     33  CD1       -1.4160   -5.6210    7.5050 C.3   120  ILE120      0.0001
     34  N         -4.9660   -5.8040   10.9490 N.am  121  ASP121     -0.1957
     35  CA        -5.7320   -5.6790   12.1830 C.3   121  ASP121      0.1840
     36  C         -4.7990   -5.6630   13.3880 C.2   121  ASP121      0.2623
     37  O         -4.4810   -4.5960   13.9210 O.2   121  ASP121     -0.2715
     38  CB        -6.7480   -6.8170   12.3040 C.3   121  ASP121      0.1450
     39  CG        -7.5690   -6.7380   13.5800 C.2   121  ASP121      0.3671
     40  OD1       -7.6720   -5.6380   14.1630 O.co2 121  ASP121     -0.2456
     41  OD2       -8.1210   -7.7800   13.9950 O.co2 121  ASP121     -0.2456
     42  N         -4.3590   -6.8440   13.8250 N.am  122  THR122     -0.1937
     43  CA        -3.4270   -6.9150   14.9440 C.3   122  THR122      0.2028
     44  C         -2.0000   -6.6160   14.5010 C.2   122  THR122      0.2643
     45  O         -1.2610   -5.9240   15.2090 O.2   122  THR122     -0.2714
     46  CB        -3.4970   -8.2910   15.6060 C.3   122  THR122      0.1808
     47  OG1       -2.9470   -9.2780   14.7240 O.3   122  THR122     -0.2208
     48  CG2       -4.9410   -8.6530   15.9240 C.3   122  THR122      0.0379
     49  N         -1.5960   -7.1290   13.3390 N.am  123  GLY123     -0.1939
     50  CA        -0.2730   -6.8830   12.8000 C.3   123  GLY123      0.2014
     51  C          0.6810   -8.0570   12.8500 C.2   123  GLY123      0.2639
     52  O          1.7970   -7.9400   12.3310 O.2   123  GLY123     -0.2714
     53  N          0.2930   -9.1840   13.4510 N.am  124  LYS124     -0.1963
     54  CA         1.2020  -10.3230   13.5420 C.3   124  LYS124      0.1728
     55  C          1.2860  -11.0830   12.2230 C.2   124  LYS124      0.2617
     56  O          2.3760  -11.5130   11.8210 O.2   124  LYS124     -0.2715
     57  CB         0.7630  -11.2610   14.6680 C.3   124  LYS124      0.0311
     58  CG         0.5950  -10.5750   16.0180 C.3   124  LYS124      0.0038
     59  CD         1.9280  -10.1340   16.6000 C.3   124  LYS124      0.0206
     60  CE         1.7630   -9.3820   17.9080 C.3   124  LYS124      0.1093
     61  NZ         1.4510   -7.9400   17.7020 N.3   124  LYS124     -0.1314
     62  N          0.1460  -11.2560   11.5460 N.am  125  THR125     -0.1937
     63  CA         0.1240  -11.9460   10.2580 C.3   125  THR125      0.2028
     64  C          1.1070  -11.3230    9.2770 C.2   125  THR125      0.2642
     65  O          1.8010  -12.0340    8.5400 O.2   125  THR125     -0.2714
     66  CB        -1.2900  -11.9170    9.6710 C.3   125  THR125      0.1808
     67  OG1       -2.2160  -12.4860   10.6050 O.3   125  THR125     -0.2208
     68  CG2       -1.3460  -12.6990    8.3670 C.3   125  THR125      0.0379
     69  N          1.1830   -9.9930    9.2580 N.am  126  ILE126     -0.1977
     70  CA         2.1170   -9.3290    8.3610 C.3   126  ILE126      0.1596
     71  C          3.5180   -9.2930    8.9610 C.2   126  ILE126      0.2287
     72  O          4.5090   -9.3520    8.2250 O.2   126  ILE126     -0.2864
     73  CB         1.6100   -7.9180    8.0170 C.3   126  ILE126      0.0276
     74  CG1        2.5340   -7.2470    7.0060 C.3   126  ILE126      0.0022
     75  CG2        1.4880   -7.0650    9.2700 C.3   126  ILE126      0.0022
     76  CD1        2.2320   -5.7960    6.8180 C.3   126  ILE126      0.0001
     77  N         -7.3780   -1.4890   10.2130 N.3   149  LYS149     -0.1245
     78  CA        -8.3610   -1.4030   11.2830 C.3   149  LYS149      0.1561
     79  C         -7.8810   -0.4570   12.3750 C.2   149  LYS149      0.2260
     80  O         -6.7210   -0.5120   12.7950 O.2   149  LYS149     -0.2867
     81  CB        -8.6340   -2.7860   11.8740 C.3   149  LYS149      0.0271
     82  CG        -9.8290   -3.4970   11.2690 C.3   149  LYS149      0.0035
     83  CD       -10.0660   -4.8300   11.9550 C.3   149  LYS149      0.0206
     84  CE       -11.3520   -5.4820   11.4810 C.3   149  LYS149      0.1093
     85  NZ       -11.5660   -6.8140   12.1140 N.3   149  LYS149     -0.1314
     86  N        -15.9250   -5.9470   11.6010 N.3   170  PHE170     -0.1227
     87  CA       -15.4900   -6.9520   10.6400 C.3   170  PHE170      0.1736
     88  C        -16.0510   -6.6330    9.2570 C.2   170  PHE170      0.2595
     89  O        -17.2410   -6.3350    9.1140 O.2   170  PHE170     -0.2718
     90  CB       -15.9260   -8.3460   11.0870 C.3   170  PHE170      0.0547
     91  CG       -15.1130   -9.4520   10.4810 C.ar  170  PHE170     -0.0202
     92  CD1      -13.9180   -9.8450   11.0590 C.ar  170  PHE170     -0.0042
     93  CD2      -15.5370  -10.0930    9.3310 C.ar  170  PHE170     -0.0042
     94  CE1      -13.1610  -10.8610   10.5030 C.ar  170  PHE170     -0.0003
     95  CE2      -14.7840  -11.1110    8.7690 C.ar  170  PHE170     -0.0003
     96  CZ       -13.5950  -11.4950    9.3570 C.ar  170  PHE170     -0.0000
     97  N        -15.1910   -6.6920    8.2380 N.am  171  VAL171     -0.1980
     98  CA       -15.5630   -6.3280    6.8770 C.3   171  VAL171      0.1595
     99  C        -15.3440   -7.5170    5.9490 C.2   171  VAL171      0.2287
    100  O        -14.4380   -8.3310    6.1510 O.2   171  VAL171     -0.2864
    101  CB       -14.7770   -5.0940    6.3780 C.3   171  VAL171      0.0276
    102  CG1      -15.2270   -3.8460    7.1180 C.3   171  VAL171      0.0022
    103  CG2      -13.2780   -5.3090    6.5420 C.3   171  VAL171      0.0022
    104  N        -12.1840   -9.9400    0.3990 N.3   176  LEU176     -0.1231
    105  CA       -12.1470  -10.1470    1.8430 C.3   176  LEU176      0.1693
    106  C        -13.1740  -11.2030    2.2230 C.2   176  LEU176      0.2592
    107  O        -14.3080  -11.1800    1.7380 O.2   176  LEU176     -0.2718
    108  CB       -12.4210   -8.8530    2.6020 C.3   176  LEU176      0.0284
    109  CG       -11.5770   -7.6330    2.2420 C.3   176  LEU176      0.0019
    110  CD1      -11.7390   -6.5290    3.2770 C.3   176  LEU176      0.0001
    111  CD2      -10.1370   -8.0320    2.1140 C.3   176  LEU176      0.0001
    112  N        -12.7870  -12.1250    3.0970 N.am  177  ASP177     -0.1974
    113  CA       -13.6040  -13.2940    3.3670 C.3   177  ASP177      0.1709
    114  C        -13.9420  -13.4120    4.8470 C.2   177  ASP177      0.2293
    115  O        -13.2460  -12.8810    5.7170 O.2   177  ASP177     -0.2864
    116  CB       -12.8900  -14.5670    2.9040 C.3   177  ASP177      0.1436
    117  CG       -11.6040  -14.8170    3.6620 C.2   177  ASP177      0.3671
    118  OD1      -10.5710  -14.2220    3.2880 O.co2 177  ASP177     -0.2456
    119  OD2      -11.6260  -15.6100    4.6270 O.co2 177  ASP177     -0.2456
@<TRIPOS>BOND
     1   104   105    1
     2     1     2    1
     3     4     3    2
     4     2     3    1
     5     2     5    1
     6     3    10   am
     7   107   106    2
     8   105   106    1
     9   105   108    1
    10    14    11    1
    11    14    15    1
    12    11    10    1
    13    11    12    1
    14   111   109    1
    15   106   112   am
    16   109   108    1
    17   109   110    1
    18     5     6    1
    19   116   113    1
    20   116   117    1
    21    13    12    2
    22   112   113    1
    23    15    17   ar
    24    15    16   ar
    25    12    18   am
    26   118   117   ar
    27   113   114    1
    28     6     7    1
    29   117   119   ar
    30    18    19    1
    31   114   115    2
    32     7     8   ar
    33     7     9   ar
    34    19    22    1
    35    19    20    1
    36    99   100    2
    37    99    98    1
    38    22    24    1
    39    22    23    1
    40   101   103    1
    41   101    98    1
    42   101   102    1
    43    20    21    2
    44    20    26   am
    45    76    74    1
    46    98    97    1
    47    74    73    1
    48    23    25    1
    49    33    31    1
    50    31    30    1
    51    26    27    1
    52    73    70    1
    53    73    75    1
    54    72    71    2
    55    97    88   am
    56    70    71    1
    57    70    69    1
    58    68    66    1
    59    65    64    2
    60    30    27    1
    61    30    32    1
    62    27    28    1
    63    95    93   ar
    64    95    96   ar
    65    89    88    2
    66    88    87    1
    67    69    64   am
    68    64    63    1
    69    93    91   ar
    70    96    94   ar
    71    66    63    1
    72    66    67    1
    73    28    29    2
    74    28    34   am
    75    77    78    1
    76    63    62    1
    77    91    92   ar
    78    91    90    1
    79    94    92   ar
    80    87    90    1
    81    87    86    1
    82    34    35    1
    83    82    81    1
    84    82    83    1
    85    78    81    1
    86    78    79    1
    87    84    83    1
    88    84    85    1
    89    62    55   am
    90    56    55    2
    91    35    38    1
    92    35    36    1
    93    55    54    1
    94    38    39    1
    95    52    51    2
    96    79    80    2
    97    50    51    1
    98    50    49    1
    99    51    53   am
   100    49    44   am
   101    36    42   am
   102    36    37    2
   103    53    54    1
   104    54    57    1
   105    39    41   ar
   106    39    40   ar
   107    42    43    1
   108    44    43    1
   109    44    45    2
   110    57    58    1
   111    47    46    1
   112    43    46    1
   113    46    48    1
   114    58    59    1
   115    59    60    1
   116    61    60    1
