@<TRIPOS>MOLECULE
tmp/5ipjA00.pdb
 169 158 0 0 0
SMALL
GASTEIGER

@<TRIPOS>ATOM
      1  N        -16.8080  -38.5520   -4.9250 N.3    12  LEU12      -0.1231
      2  CA       -18.2140  -38.3690   -5.3090 C.3    12  LEU12       0.1693
      3  C        -18.4300  -37.0570   -6.0680 C.2    12  LEU12       0.2592
      4  O        -19.2890  -36.9700   -6.9240 O.2    12  LEU12      -0.2718
      5  CB       -19.1220  -38.4460   -4.0790 C.3    12  LEU12       0.0284
      6  CG       -19.1560  -39.8130   -3.3860 C.3    12  LEU12       0.0019
      7  CD1      -19.8720  -39.7220   -2.0430 C.3    12  LEU12       0.0001
      8  CD2      -19.8160  -40.8630   -4.2690 C.3    12  LEU12       0.0001
      9  N        -17.6330  -36.0420   -5.7750 N.am   13  GLY13      -0.1957
     10  CA       -17.7250  -34.7850   -6.5030 C.3    13  GLY13       0.1869
     11  C        -16.8440  -33.7260   -5.8900 C.2    13  GLY13       0.2309
     12  O        -16.3220  -33.8950   -4.7810 O.2    13  GLY13      -0.2863
     13  N        -17.6660  -26.2220   -2.7750 N.3    17  PHE17      -0.1241
     14  CA       -17.7590  -26.8670   -1.4690 C.3    17  PHE17       0.1605
     15  C        -16.5170  -27.6440   -1.0050 C.2    17  PHE17       0.2264
     16  O        -16.4370  -28.0090    0.1640 O.2    17  PHE17      -0.2867
     17  CB       -18.9620  -27.8230   -1.4380 C.3    17  PHE17       0.0534
     18  CG       -18.9760  -28.8550   -2.5470 C.ar   17  PHE17      -0.0203
     19  CD1      -18.3020  -30.0670   -2.4060 C.ar   17  PHE17      -0.0042
     20  CD2      -19.7020  -28.6310   -3.7170 C.ar   17  PHE17      -0.0042
     21  CE1      -18.3330  -31.0210   -3.4180 C.ar   17  PHE17      -0.0003
     22  CE2      -19.7280  -29.5810   -4.7340 C.ar   17  PHE17      -0.0003
     23  CZ       -19.0450  -30.7780   -4.5810 C.ar   17  PHE17      -0.0000
     24  N        -15.5140  -34.2620   -1.8990 N.3    20  VAL20      -0.1245
     25  CA       -16.2750  -35.2220   -1.1060 C.3    20  VAL20       0.1561
     26  C        -16.0680  -36.6450   -1.6310 C.2    20  VAL20       0.2260
     27  O        -16.3020  -36.9030   -2.8120 O.2    20  VAL20      -0.2867
     28  CB       -17.7850  -34.8900   -1.1430 C.3    20  VAL20       0.0252
     29  CG1      -18.5940  -35.9540   -0.4150 C.3    20  VAL20       0.0019
     30  CG2      -18.0420  -33.5170   -0.5360 C.3    20  VAL20       0.0019
     31  N        -19.7400  -40.2600    4.0520 N.3    33  ALA33      -0.1245
     32  CA       -19.1600  -39.3600    3.0740 C.3    33  ALA33       0.1562
     33  C        -18.1040  -38.5210    3.7830 C.2    33  ALA33       0.2260
     34  O        -18.2810  -38.1110    4.9290 O.2    33  ALA33      -0.2867
     35  CB       -20.2320  -38.4790    2.4360 C.3    33  ALA33       0.0290
     36  N        -15.8420  -35.1980    3.5150 N.3    35  LYS35      -0.1245
     37  CA       -15.6940  -33.9030    2.8840 C.3    35  LYS35       0.1561
     38  C        -14.4200  -33.2090    3.3570 C.2    35  LYS35       0.2260
     39  O        -14.2300  -33.0030    4.5600 O.2    35  LYS35      -0.2867
     40  CB       -16.9140  -33.0420    3.2020 C.3    35  LYS35       0.0271
     41  CG       -16.8960  -31.6730    2.5580 C.3    35  LYS35       0.0035
     42  CD       -18.1340  -30.8760    2.9230 C.3    35  LYS35       0.0206
     43  CE       -18.1030  -29.5220    2.2390 C.3    35  LYS35       0.1093
     44  NZ       -19.2340  -28.6380    2.6310 N.3    35  LYS35      -0.1314
     45  N        -19.6650  -24.0110    9.1370 N.3    57  GLU57      -0.1245
     46  CA       -20.3620  -25.2180    8.7010 C.3    57  GLU57       0.1567
     47  C        -20.4450  -26.2950    9.7860 C.2    57  GLU57       0.2260
     48  O        -21.4790  -26.9440    9.9380 O.2    57  GLU57      -0.2867
     49  CB       -19.6750  -25.7740    7.4540 C.3    57  GLU57       0.0388
     50  CG       -20.3380  -27.0010    6.8590 C.3    57  GLU57       0.1160
     51  CD       -19.6340  -27.4860    5.6130 C.2    57  GLU57       0.3649
     52  OE1      -18.7820  -26.7650    5.0560 O.co2  57  GLU57      -0.2457
     53  OE2      -19.9310  -28.6090    5.1810 O.co2  57  GLU57      -0.2457
     54  N        -28.6420  -33.8920    6.5690 N.3    72  ILE72      -0.1245
     55  CA       -27.4760  -34.7720    6.6310 C.3    72  ILE72       0.1561
     56  C        -26.7980  -34.6370    8.0020 C.2    72  ILE72       0.2260
     57  O        -26.5280  -33.5240    8.4550 O.2    72  ILE72      -0.2867
     58  CB       -26.4770  -34.4320    5.5000 C.3    72  ILE72       0.0252
     59  CG1      -25.5560  -35.6220    5.2140 C.3    72  ILE72       0.0019
     60  CG2      -25.6990  -33.1460    5.7950 C.3    72  ILE72       0.0019
     61  CD1      -26.2210  -36.6500    4.3220 C.3    72  ILE72       0.0001
     62  N        -19.7040  -37.3370    7.1460 N.3    88  LEU88      -0.1231
     63  CA       -21.1450  -37.1780    7.0270 C.3    88  LEU88       0.1693
     64  C        -21.7920  -38.5330    6.8200 C.2    88  LEU88       0.2592
     65  O        -21.1690  -39.4400    6.2760 O.2    88  LEU88      -0.2718
     66  CB       -21.4560  -36.2560    5.8480 C.3    88  LEU88       0.0284
     67  CG       -20.7520  -34.9010    5.9460 C.3    88  LEU88       0.0019
     68  CD1      -20.7410  -34.1650    4.6180 C.3    88  LEU88       0.0001
     69  CD2      -21.4110  -34.0560    7.0240 C.3    88  LEU88       0.0001
     70  N        -23.0410  -38.6790    7.2460 N.am   89  GLU89      -0.1966
     71  CA       -23.7710  -39.9140    6.9700 C.3    89  GLU89       0.1733
     72  C        -23.9750  -39.9920    5.4610 C.2    89  GLU89       0.2616
     73  O        -23.9680  -38.9680    4.7920 O.2    89  GLU89      -0.2715
     74  CB       -25.1140  -39.9490    7.7060 C.3    89  GLU89       0.0429
     75  CG       -26.2650  -39.3420    6.9260 C.3    89  GLU89       0.1163
     76  CD       -27.5240  -39.2070    7.7470 C.2    89  GLU89       0.3649
     77  OE1      -27.8100  -38.0770    8.1890 O.co2  89  GLU89      -0.2457
     78  OE2      -28.2190  -40.2250    7.9430 O.co2  89  GLU89      -0.2457
     79  N        -24.1470  -41.2000    4.9340 N.am   90  ARG90      -0.1964
     80  CA       -24.3520  -41.4100    3.4980 C.3    90  ARG90       0.1714
     81  C        -25.4370  -42.4610    3.2670 C.2    90  ARG90       0.2458
     82  O        -25.2010  -43.6350    3.5150 O.2    90  ARG90      -0.2730
     83  CB       -23.0460  -41.8600    2.8230 C.3    90  ARG90       0.0347
     84  CG       -23.2060  -42.3700    1.3910 C.3    90  ARG90       0.0492
     85  CD       -21.8740  -42.4620    0.6480 C.3    90  ARG90       0.2205
     86  NE       -21.0010  -43.5240    1.1660 N.pl3  90  ARG90      -0.0865
     87  CZ       -21.0990  -44.8250    0.8680 C.cat  90  ARG90       0.5346
     88  NH1      -22.0460  -45.2780    0.0490 N.pl3  90  ARG90       0.1354
     89  NH2      -20.2350  -45.6860    1.3970 N.pl3  90  ARG90       0.1354
     90  N        -26.6260  -42.0420    2.7870 N.am   91  PRO91      -0.2727
     91  CA       -27.6640  -42.9940    2.3770 C.3    91  PRO91       0.1402
     92  C        -27.2330  -43.8320    1.1750 C.2    91  PRO91       0.2269
     93  O        -26.4200  -43.3840    0.3630 O.2    91  PRO91      -0.2865
     94  CB       -28.8500  -42.0970    1.9920 C.3    91  PRO91       0.0296
     95  CG       -28.5540  -40.7620    2.5750 C.3    91  PRO91       0.0237
     96  CD       -27.0640  -40.6470    2.6060 C.3    91  PRO91       0.0939
     97  N        -28.5590  -43.7510   -3.2350 N.3    94  VAL94      -0.1231
     98  CA       -28.8410  -42.3250   -3.1550 C.3    94  VAL94       0.1692
     99  C        -28.6630  -41.6920   -4.5360 C.2    94  VAL94       0.2592
    100  O        -27.9160  -42.1990   -5.3700 O.2    94  VAL94      -0.2718
    101  CB       -27.9140  -41.6550   -2.1060 C.3    94  VAL94       0.0266
    102  CG1      -26.4670  -41.6060   -2.5960 C.3    94  VAL94       0.0020
    103  CG2      -28.4010  -40.2660   -1.7270 C.3    94  VAL94       0.0020
    104  N        -29.3950  -40.6090   -4.7820 N.am   95  GLN95      -0.1966
    105  CA       -29.1910  -39.7610   -5.9540 C.3    95  GLN95       0.1733
    106  C        -29.5640  -38.3230   -5.5830 C.2    95  GLN95       0.2616
    107  O        -30.5940  -38.0980   -4.9420 O.2    95  GLN95      -0.2715
    108  CB       -30.0650  -40.2250   -7.1140 C.3    95  GLN95       0.0408
    109  CG       -29.8110  -39.4440   -8.3880 C.3    95  GLN95       0.0908
    110  CD       -30.5490  -40.0030   -9.5860 C.2    95  GLN95       0.2608
    111  OE1      -31.6910  -40.4430   -9.4750 O.2    95  GLN95      -0.2717
    112  NE2      -29.9050  -39.9650  -10.7470 N.am   95  GLN95      -0.0878
    113  N        -28.7440  -37.3570   -5.9910 N.am   96  ASP96      -0.1971
    114  CA       -29.0500  -35.9640   -5.7050 C.3    96  ASP96       0.1709
    115  C        -30.1690  -35.4880   -6.6270 C.2    96  ASP96       0.2293
    116  O        -30.3650  -36.0250   -7.7280 O.2    96  ASP96      -0.2864
    117  CB       -27.7970  -35.0710   -5.7550 C.3    96  ASP96       0.1436
    118  CG       -27.3090  -34.7740   -7.1680 C.2    96  ASP96       0.3671
    119  OD1      -28.1150  -34.4700   -8.0690 O.co2  96  ASP96      -0.2456
    120  OD2      -26.0810  -34.7980   -7.3630 O.co2  96  ASP96      -0.2456
    121  N        -29.4390  -34.4630  -10.4230 N.3    99  ASP99      -0.1239
    122  CA       -29.3080  -35.6070  -11.3300 C.3    99  ASP99       0.1674
    123  C        -30.6510  -36.2780  -11.5880 C.2    99  ASP99       0.2266
    124  O        -30.9310  -36.7060  -12.7090 O.2    99  ASP99      -0.2867
    125  CB       -28.3430  -36.6490  -10.7640 C.3    99  ASP99       0.1410
    126  CG       -26.8980  -36.2250  -10.8550 C.2    99  ASP99       0.3668
    127  OD1      -26.5830  -35.2430  -11.5550 O.co2  99  ASP99      -0.2456
    128  OD2      -26.0640  -36.8850  -10.2140 O.co2  99  ASP99      -0.2456
    129  N        -29.0790  -29.3840   -6.2380 N.3   139  GLU139     -0.1231
    130  CA       -27.7540  -29.9800   -6.0330 C.3   139  GLU139      0.1699
    131  C        -27.4390  -30.2290   -4.5590 C.2   139  GLU139      0.2592
    132  O        -26.5520  -31.0180   -4.2490 O.2   139  GLU139     -0.2718
    133  CB       -26.6590  -29.0830   -6.6130 C.3   139  GLU139      0.0402
    134  CG       -26.7230  -28.8880   -8.1180 C.3   139  GLU139      0.1161
    135  CD       -25.7210  -27.8580   -8.5970 C.2   139  GLU139      0.3649
    136  OE1      -25.8810  -26.6720   -8.2640 O.co2 139  GLU139     -0.2457
    137  OE2      -24.7730  -28.2380   -9.3030 O.co2 139  GLU139     -0.2457
    138  N        -28.1490  -29.5480   -3.6550 N.am  140  ASN140     -0.1974
    139  CA       -27.9210  -29.7030   -2.2100 C.3   140  ASN140      0.1688
    140  C        -28.9940  -30.5300   -1.5130 C.2   140  ASN140      0.2292
    141  O        -29.1850  -30.4350   -0.2980 O.2   140  ASN140     -0.2864
    142  CB       -27.7550  -28.3240   -1.5610 C.3   140  ASN140      0.1181
    143  CG       -26.4200  -27.6870   -1.9040 C.2   140  ASN140      0.2629
    144  OD1      -25.4580  -28.3920   -2.1920 O.2   140  ASN140     -0.2716
    145  ND2      -26.3470  -26.3550   -1.8670 N.am  140  ASN140     -0.0877
    146  N        -30.2670  -34.6020   -1.2990 N.3   142  LEU142     -0.1245
    147  CA       -30.0990  -36.0180   -1.6140 C.3   142  LEU142      0.1561
    148  C        -31.4150  -36.7460   -1.4420 C.2   142  LEU142      0.2260
    149  O        -32.1630  -36.4680   -0.5010 O.2   142  LEU142     -0.2867
    150  CB       -29.0650  -36.6700   -0.6960 C.3   142  LEU142      0.0270
    151  CG       -27.6340  -36.1530   -0.7540 C.3   142  LEU142      0.0019
    152  CD1      -26.7910  -36.9220    0.2510 C.3   142  LEU142      0.0001
    153  CD2      -27.0760  -36.2650   -2.1690 C.3   142  LEU142      0.0001
    154  N        -28.0420  -31.0020    2.3190 N.3   153  ILE153     -0.1231
    155  CA       -26.6010  -31.0840    2.4810 C.3   153  ILE153      0.1692
    156  C        -25.9490  -29.7260    2.2500 C.2   153  ILE153      0.2592
    157  O        -26.5690  -28.7980    1.7250 O.2   153  ILE153     -0.2718
    158  CB       -25.9670  -32.1320    1.5280 C.3   153  ILE153      0.0266
    159  CG1      -26.2980  -31.8230    0.0640 C.3   153  ILE153      0.0019
    160  CG2      -26.4450  -33.5340    1.8900 C.3   153  ILE153      0.0020
    161  CD1      -25.4090  -32.5300   -0.9360 C.3   153  ILE153      0.0001
    162  N        -24.6850  -29.6490    2.6570 N.am  154  ASP154     -0.1974
    163  CA       -23.8130  -28.5070    2.4410 C.3   154  ASP154      0.1709
    164  C        -24.2660  -27.2200    3.1260 C.2   154  ASP154      0.2293
    165  O        -24.9780  -26.4000    2.5450 O.2   154  ASP154     -0.2864
    166  CB       -23.5870  -28.2600    0.9550 C.3   154  ASP154      0.1436
    167  CG       -22.3340  -27.4350    0.6930 C.2   154  ASP154      0.3671
    168  OD1      -21.7430  -26.8900    1.6600 O.co2 154  ASP154     -0.2456
    169  OD2      -21.9250  -27.3420   -0.4840 O.co2 154  ASP154     -0.2456
@<TRIPOS>BOND
     1   124   123    2
     2   123   122    1
     3   127   126   ar
     4   122   125    1
     5   122   121    1
     6   126   125    1
     7   126   128   ar
     8   112   110   am
     9   110   111    2
    10   110   109    1
    11   137   135   ar
    12   135   136   ar
    13   135   134    1
    14   109   108    1
    15   134   133    1
    16   119   118   ar
    17   116   115    2
    18   120   118   ar
    19   118   117    1
    20   108   105    1
    21     4     3    2
    22   115   114    1
    23   133   130    1
    24    10    11    1
    25    10     9    1
    26   129   130    1
    27     3     9   am
    28     3     2    1
    29   130   131    1
    30   113   114    1
    31   113   106   am
    32   105   106    1
    33   105   104    1
    34    11    12    2
    35   117   114    1
    36   106   107    2
    37   100    99    2
    38     2     1    1
    39     2     5    1
    40   104    99   am
    41    22    23   ar
    42    22    20   ar
    43    23    21   ar
    44   131   132    2
    45   131   138   am
    46    99    98    1
    47     8     6    1
    48     5     6    1
    49    20    18   ar
    50   138   139    1
    51    21    19   ar
    52     6     7    1
    53    97    98    1
    54    98   101    1
    55    27    26    2
    56    13    14    1
    57   102   101    1
    58    18    19   ar
    59    18    17    1
    60   139   142    1
    61   139   140    1
    62   144   143    2
    63   153   151    1
    64   101   103    1
    65   143   145   am
    66   143   142    1
    67    24    25    1
    68    26    25    1
    69   147   148    1
    70   147   146    1
    71   147   150    1
    72   140   141    2
    73    14    17    1
    74    14    15    1
    75   148   149    2
    76    28    25    1
    77    28    30    1
    78    28    29    1
    79    15    16    2
    80   161   159    1
    81   151   150    1
    82   151   152    1
    83   169   167   ar
    84    88    87    1
    85   159   158    1
    86    93    92    2
    87    85    86    1
    88    85    84    1
    89   167   166    1
    90   167   168   ar
    91    87    86    2
    92    87    89    1
    93   166   163    1
    94    92    91    1
    95    84    83    1
    96   158   160    1
    97   158   155    1
    98   157   156    2
    99    94    91    1
   100    94    95    1
   101    43    44    1
   102    43    42    1
   103   156   155    1
   104   156   162   am
   105   154   155    1
   106    91    90    1
   107    35    32    1
   108   163   162    1
   109   163   164    1
   110   165   164    2
   111    41    42    1
   112    41    40    1
   113    95    96    1
   114    96    90    1
   115    90    81   am
   116    83    80    1
   117    37    40    1
   118    37    38    1
   119    37    36    1
   120    32    33    1
   121    32    31    1
   122    81    80    1
   123    81    82    2
   124    38    39    2
   125    80    79    1
   126    33    34    2
   127    61    59    1
   128    68    67    1
   129    73    72    2
   130    79    72   am
   131    52    51   ar
   132    53    51   ar
   133    59    58    1
   134    72    71    1
   135    58    60    1
   136    58    55    1
   137    51    50    1
   138    66    67    1
   139    66    63    1
   140    67    69    1
   141    65    64    2
   142    54    55    1
   143    55    56    1
   144    64    63    1
   145    64    70   am
   146    50    49    1
   147    75    74    1
   148    75    76    1
   149    71    70    1
   150    71    74    1
   151    63    62    1
   152    49    46    1
   153    76    78   ar
   154    76    77   ar
   155    56    57    2
   156    46    45    1
   157    46    47    1
   158    47    48    2
