@<TRIPOS>MOLECULE
tmp/5ippA00.pdb
 89 85 0 0 0
SMALL
GASTEIGER

@<TRIPOS>ATOM
      1  N         12.7170  -14.3180  113.3860 N.3   266  ARG266     -0.1245
      2  CA        12.1500  -12.9780  113.1580 C.3   266  ARG266      0.1563
      3  C         10.9050  -13.0750  112.3310 C.2   266  ARG266      0.2260
      4  O         10.9010  -13.7660  111.2830 O.2   266  ARG266     -0.2867
      5  CB        13.0620  -12.0800  112.3570 C.3   266  ARG266      0.0307
      6  CG        14.3030  -11.7140  113.0320 C.3   266  ARG266      0.0489
      7  CD        14.1160  -10.7390  114.1800 C.3   266  ARG266      0.2205
      8  NE        15.4660  -10.5120  114.6780 N.pl3 266  ARG266     -0.0865
      9  CZ        15.8510   -9.5610  115.5090 C.cat 266  ARG266      0.5346
     10  NH1       14.9880   -8.6960  116.0260 N.pl3 266  ARG266      0.1354
     11  NH2       17.1430   -9.4940  115.8260 N.pl3 266  ARG266      0.1354
     12  N          8.2380  -10.6630  110.1520 N.3   268  ARG268     -0.1245
     13  CA         7.9630   -9.3690  109.5410 C.3   268  ARG268      0.1563
     14  C          6.5950   -9.3760  108.8590 C.2   268  ARG268      0.2260
     15  O          6.3620  -10.1260  107.9120 O.2   268  ARG268     -0.2867
     16  CB         9.0540   -9.0090  108.5310 C.3   268  ARG268      0.0307
     17  CG        10.4320   -8.8250  109.1450 C.3   268  ARG268      0.0489
     18  CD        10.4790   -7.5970  110.0390 C.3   268  ARG268      0.2205
     19  NE        11.7950   -7.4110  110.6440 N.pl3 268  ARG268     -0.0865
     20  CZ        12.0840   -7.7050  111.9070 C.cat 268  ARG268      0.5346
     21  NH1       11.1490   -8.2000  112.7060 N.pl3 268  ARG268      0.1354
     22  NH2       13.3090   -7.5030  112.3730 N.pl3 268  ARG268      0.1354
     23  N          3.5570   -7.4390  106.7680 N.3   270  ARG270     -0.1245
     24  CA         3.2570   -6.3250  105.8640 C.3   270  ARG270      0.1563
     25  C          1.8180   -6.4180  105.3530 C.2   270  ARG270      0.2260
     26  O          1.3010   -7.5200  105.1700 O.2   270  ARG270     -0.2867
     27  CB         4.2350   -6.3090  104.6880 C.3   270  ARG270      0.0307
     28  CG         5.6520   -5.9060  105.0650 C.3   270  ARG270      0.0489
     29  CD         5.7160   -4.4490  105.4930 C.3   270  ARG270      0.2205
     30  NE         7.0900   -3.9980  105.6930 N.pl3 270  ARG270     -0.0865
     31  CZ         7.8220   -4.2840  106.7650 C.cat 270  ARG270      0.5346
     32  NH1        7.3120   -5.0240  107.7400 N.pl3 270  ARG270      0.1354
     33  NH2        9.0640   -3.8310  106.8630 N.pl3 270  ARG270      0.1354
     34  N          3.6660  -10.7320  120.8880 N.3   284  ASN284     -0.1225
     35  CA         4.6590   -9.9630  121.7080 C.3   284  ASN284      0.1785
     36  C          5.5290   -9.0060  120.9190 C.2   284  ASN284      0.2598
     37  O          6.6310   -8.6140  121.4070 O.2   284  ASN284     -0.2718
     38  CB         5.5380  -10.8550  122.6140 C.3   284  ASN284      0.1169
     39  CG         4.7400  -11.6550  123.5920 C.2   284  ASN284      0.2627
     40  OD1        4.1070  -11.1110  124.4940 O.2   284  ASN284     -0.2716
     41  ND2        4.7410  -12.9730  123.4040 N.am  284  ASN284     -0.0877
     42  N          5.0790   -8.6410  119.7120 N.am  285  GLY285     -0.1942
     43  CA         5.7870   -7.5730  118.9430 C.3   285  GLY285      0.2014
     44  C          4.9280   -6.3050  118.8360 C.2   285  GLY285      0.2639
     45  O          4.1430   -6.0060  119.7540 O.2   285  GLY285     -0.2714
     46  N          5.0170   -5.6060  117.7020 N.am  286  GLY286     -0.1939
     47  CA         4.1670   -4.4370  117.4400 C.3   286  GLY286      0.2014
     48  C          4.6920   -3.6830  116.2350 C.2   286  GLY286      0.2639
     49  O          5.4870   -4.2320  115.4690 O.2   286  GLY286     -0.2714
     50  N          4.2540   -2.4360  116.0630 N.am  287  GLY287     -0.1939
     51  CA         4.7300   -1.5820  114.9710 C.3   287  GLY287      0.2014
     52  C          3.5820   -0.7910  114.3800 C.2   287  GLY287      0.2638
     53  O          2.5910   -0.5600  115.0620 O.2   287  GLY287     -0.2714
     54  N          3.5340   -0.4410  113.1500 N.am  288  HIS288     -0.1973
     55  CA         2.5450    0.3010  112.3980 C.3   288  HIS288      0.1656
     56  C          1.4300   -0.5360  111.8280 C.2   288  HIS288      0.2291
     57  O          1.5660   -1.7250  111.6540 O.2   288  HIS288     -0.2864
     58  CB         3.2040    1.1060  111.2980 C.3   288  HIS288      0.0771
     59  CG         4.4620    1.8040  111.7210 C.ar  288  HIS288      0.0820
     60  ND1        4.6720    2.2200  112.9650 N.ar  288  HIS288     -0.2267
     61  CD2        5.5680    2.1590  111.0090 C.ar  288  HIS288      0.1154
     62  CE1        5.8670    2.7650  113.0550 C.ar  288  HIS288      0.1986
     63  NE2        6.4130    2.7430  111.8560 N.ar  288  HIS288     -0.2212
     64  N          2.8710   -2.3890  108.8810 N.3   291  ALA291     -0.1231
     65  CA         4.2620   -2.8360  108.8920 C.3   291  ALA291      0.1694
     66  C          4.6210   -3.0840  110.3550 C.2   291  ALA291      0.2593
     67  O          4.8100   -2.1270  111.1280 O.2   291  ALA291     -0.2718
     68  CB         5.2110   -1.7720  108.3050 C.3   291  ALA291      0.0304
     69  N          4.6960   -4.3620  110.7410 N.am  292  SER292     -0.1938
     70  CA         5.0160   -4.6770  112.1160 C.3   292  SER292      0.2055
     71  C          5.9440   -5.8340  112.1830 C.2   292  SER292      0.2644
     72  O          6.2110   -6.5010  111.1520 O.2   292  SER292     -0.2714
     73  CB         3.7320   -5.0620  112.8680 C.3   292  SER292      0.2130
     74  OG         3.0700   -3.8840  113.1210 O.3   292  SER292     -0.2179
     75  N          6.4370   -6.1090  113.3990 N.am  293  GLY293     -0.1939
     76  CA         7.3010   -7.2780  113.5520 C.3   293  GLY293      0.2014
     77  C          7.0950   -7.9380  114.9130 C.2   293  GLY293      0.2639
     78  O          6.4540   -7.3700  115.8190 O.2   293  GLY293     -0.2714
     79  N          7.6500   -9.1300  115.0420 N.am  294  ALA294     -0.1963
     80  CA         7.6760   -9.8780  116.3050 C.3   294  ALA294      0.1728
     81  C          8.8280  -10.8570  116.2290 C.2   294  ALA294      0.2616
     82  O          9.4390  -11.0160  115.1750 O.2   294  ALA294     -0.2715
     83  CB         6.3800  -10.6170  116.5360 C.3   294  ALA294      0.0334
     84  N          9.1050  -11.5310  117.3420 N.am  295  SER295     -0.1950
     85  CA        10.1190  -12.5660  117.4210 C.3   295  SER295      0.1924
     86  C          9.4960  -13.7650  118.1010 C.2   295  SER295      0.2314
     87  O          8.9030  -13.6160  119.1570 O.2   295  SER295     -0.2863
     88  CB        11.3120  -12.0940  118.2420 C.3   295  SER295      0.2116
     89  OG        12.1640  -11.2820  117.4640 O.3   295  SER295     -0.2180
@<TRIPOS>BOND
     1    27    28    1
     2    27    24    1
     3    28    29    1
     4    26    25    2
     5    25    24    1
     6    29    30    1
     7    30    31    2
     8    24    23    1
     9    31    33    1
    10    31    32    1
    11    15    14    2
    12    68    65    1
    13    16    17    1
    14    16    13    1
    15    14    13    1
    16    64    65    1
    17    65    66    1
    18    17    18    1
    19    13    12    1
    20    18    19    1
    21    66    69   am
    22    66    67    2
    23    19    20    2
    24    69    70    1
    25    61    59   ar
    26    61    63   ar
    27    72    71    2
    28     4     3    2
    29    58    59    1
    30    58    55    1
    31    57    56    2
    32    59    60   ar
    33    56    55    1
    34    63    62   ar
    35    20    22    1
    36    20    21    1
    37    70    71    1
    38    70    73    1
    39    71    75   am
    40     3     2    1
    41     5     6    1
    42     5     2    1
    43    55    54    1
    44    73    74    1
    45    60    62   ar
    46     6     7    1
    47    54    52   am
    48     2     1    1
    49    75    76    1
    50    76    77    1
    51     7     8    1
    52    52    51    1
    53    52    53    2
    54     8     9    2
    55    77    79   am
    56    77    78    2
    57    51    50    1
    58    79    80    1
    59    82    81    2
    60    49    48    2
    61     9    11    1
    62     9    10    1
    63    50    48   am
    64    81    80    1
    65    81    84   am
    66    48    47    1
    67    80    83    1
    68    84    85    1
    69    85    86    1
    70    85    88    1
    71    47    46    1
    72    89    88    1
    73    46    44   am
    74    86    87    2
    75    44    43    1
    76    44    45    2
    77    43    42    1
    78    42    36   am
    79    34    35    1
    80    36    37    2
    81    36    35    1
    82    35    38    1
    83    38    39    1
    84    41    39   am
    85    39    40    2
