@<TRIPOS>MOLECULE
tmp/5ipzC00.pdb
 150 144 0 0 0
SMALL
GASTEIGER

@<TRIPOS>ATOM
      1  N        -48.4230   62.6890   -0.0520 N.3     4  TRP4       -0.1241
      2  CA       -47.6820   61.8000    0.8380 C.3     4  TRP4        0.1605
      3  C        -48.6270   61.2000    1.8450 C.2     4  TRP4        0.2264
      4  O        -49.7370   61.7050    2.0250 O.2     4  TRP4       -0.2867
      5  CB       -46.5890   62.5730    1.5520 C.3     4  TRP4        0.0550
      6  CG       -47.0930   63.7550    2.3640 C.ar    4  TRP4        0.0003
      7  CD1      -47.1770   65.0860    1.9670 C.ar    4  TRP4        0.0946
      8  CD2      -47.5960   63.7420    3.7540 C.ar    4  TRP4        0.0152
      9  NE1      -47.6830   65.8710    2.9750 N.ar    4  TRP4       -0.2442
     10  CE2      -47.9550   65.1290    4.0730 C.ar    4  TRP4        0.0810
     11  CE3      -47.7800   62.7610    4.7240 C.ar    4  TRP4        0.0012
     12  CZ2      -48.4710   65.4870    5.3120 C.ar    4  TRP4        0.0191
     13  CZ3      -48.3000   63.1380    5.9650 C.ar    4  TRP4        0.0001
     14  CH2      -48.6370   64.4690    6.2500 C.ar    4  TRP4        0.0015
     15  N        -57.1540   68.2120    9.8530 N.3    67  ASN67      -0.1240
     16  CA       -56.3620   68.6040    8.6740 C.3    67  ASN67       0.1653
     17  C        -56.0200   67.4650    7.7060 C.2    67  ASN67       0.2266
     18  O        -55.1960   67.6240    6.7930 O.2    67  ASN67      -0.2867
     19  CB       -55.0790   69.3390    9.1020 C.3    67  ASN67       0.1155
     20  CG       -54.0450   68.4250    9.7530 C.2    67  ASN67       0.2627
     21  OD1      -54.2200   67.2060    9.8720 O.2    67  ASN67      -0.2716
     22  ND2      -52.9570   69.0280   10.1910 N.am   67  ASN67      -0.0877
     23  N        -54.7690   64.5690    8.7250 N.3    69  HIS69      -0.1226
     24  CA       -53.6740   63.8060    9.3350 C.3    69  HIS69       0.1752
     25  C        -53.6260   63.9210   10.8340 C.2    69  HIS69       0.2596
     26  O        -52.8740   63.1870   11.4810 O.2    69  HIS69      -0.2718
     27  CB       -52.3310   64.2410    8.7610 C.3    69  HIS69       0.0759
     28  CG       -52.3330   64.4310    7.2630 C.ar   69  HIS69       0.0818
     29  ND1      -52.5630   63.4170    6.4020 N.ar   69  HIS69      -0.2268
     30  CD2      -52.1170   65.5740    6.4820 C.ar   69  HIS69       0.1154
     31  CE1      -52.4950   63.8820    5.1320 C.ar   69  HIS69       0.1986
     32  NE2      -52.2240   65.2030    5.1840 N.ar   69  HIS69      -0.2212
     33  N        -54.4010   64.8460   11.3980 N.am   70  SER70      -0.1952
     34  CA       -54.4940   65.0090   12.8580 C.3    70  SER70       0.1924
     35  C        -55.6440   65.9000   13.3140 C.2    70  SER70       0.2314
     36  O        -56.2300   66.6380   12.5050 O.2    70  SER70      -0.2863
     37  CB       -53.1920   65.6110   13.3770 C.3    70  SER70       0.2116
     38  OG       -53.1240   65.5730   14.7880 O.3    70  SER70      -0.2180
     39  N        -55.9130   69.1990   14.7550 N.3    72  MET72      -0.1245
     40  CA       -55.0970   70.4190   14.9330 C.3    72  MET72       0.1570
     41  C        -55.8800   71.6660   15.3930 C.2    72  MET72       0.2261
     42  O        -56.5980   72.3090   14.6070 O.2    72  MET72      -0.2867
     43  CB       -54.3370   70.7000   13.6460 C.3    72  MET72       0.0387
     44  CG       -53.3340   71.8110   13.7620 C.3    72  MET72       0.0595
     45  SD       -53.5170   72.7900   12.2860 S.3    72  MET72      -0.1393
     46  CE       -52.2240   72.2140   11.2050 C.3    72  MET72       0.0692
     47  N        -49.5840   76.3700   16.0940 N.3    94  GLN94      -0.1245
     48  CA       -50.6470   75.3580   16.3040 C.3    94  GLN94       0.1566
     49  C        -50.3610   74.2620   17.3540 C.2    94  GLN94       0.2260
     50  O        -49.2190   74.0760   17.7560 O.2    94  GLN94      -0.2867
     51  CB       -51.1080   74.7720   14.9580 C.3    94  GLN94       0.0367
     52  CG       -50.0020   74.4670   13.9590 C.3    94  GLN94       0.0905
     53  CD       -49.6780   72.9950   13.9020 C.2    94  GLN94       0.2608
     54  OE1      -49.7660   72.2920   14.9000 O.2    94  GLN94      -0.2717
     55  NE2      -49.3330   72.5200   12.7320 N.am   94  GLN94      -0.0878
     56  N        -51.1630   70.1540   17.6170 N.3    96  HIS96      -0.1241
     57  CA       -51.6250   68.8650   17.0640 C.3    96  HIS96       0.1621
     58  C        -51.0860   67.6140   17.7440 C.2    96  HIS96       0.2264
     59  O        -50.1180   67.6460   18.5300 O.2    96  HIS96      -0.2867
     60  CB       -51.3240   68.8190   15.5760 C.3    96  HIS96       0.0745
     61  CG       -49.8580   68.6700   15.2590 C.ar   96  HIS96       0.0817
     62  ND1      -49.0890   69.7030   14.8810 N.ar   96  HIS96      -0.2268
     63  CD2      -49.0380   67.5480   15.2570 C.ar   96  HIS96       0.1154
     64  CE1      -47.8320   69.2750   14.6640 C.ar   96  HIS96       0.1986
     65  NE2      -47.8040   67.9480   14.8840 N.ar   96  HIS96      -0.2212
     66  N        -50.3040   63.1120   17.7130 N.3    98  HIS98      -0.1241
     67  CA       -50.0110   61.8410   17.0760 C.3    98  HIS98       0.1621
     68  C        -50.3290   60.7900   18.0450 C.2    98  HIS98       0.2264
     69  O        -49.9680   60.9250   19.2210 O.2    98  HIS98      -0.2867
     70  CB       -48.5380   61.7470   16.7380 C.3    98  HIS98       0.0745
     71  CG       -48.1010   62.7740   15.7590 C.ar   98  HIS98       0.0817
     72  ND1      -48.0860   62.5490   14.4540 N.ar   98  HIS98      -0.2268
     73  CD2      -47.6500   64.0860   15.9430 C.ar   98  HIS98       0.1154
     74  CE1      -47.6510   63.6820   13.8030 C.ar   98  HIS98       0.1986
     75  NE2      -47.3900   64.5980   14.7230 N.ar   98  HIS98      -0.2212
     76  N        -47.9270   67.7070   20.3080 N.3   121  HIS121     -0.1241
     77  CA       -47.0510   68.7230   19.7330 C.3   121  HIS121      0.1621
     78  C        -47.6690   70.1190   19.8550 C.2   121  HIS121      0.2264
     79  O        -48.7740   70.3590   19.3680 O.2   121  HIS121     -0.2867
     80  CB       -46.8000   68.4150   18.2530 C.3   121  HIS121      0.0745
     81  CG       -45.8500   67.2550   18.0050 C.ar  121  HIS121      0.0817
     82  ND1      -45.7540   66.6530   16.8090 N.ar  121  HIS121     -0.2268
     83  CD2      -44.9420   66.5910   18.8590 C.ar  121  HIS121      0.1154
     84  CE1      -44.7850   65.7060   16.8690 C.ar  121  HIS121      0.1986
     85  NE2      -44.2940   65.6700   18.1180 N.ar  121  HIS121     -0.2212
     86  N        -46.8450   73.8420   18.6700 N.3   123  VAL123     -0.1245
     87  CA       -45.9240   74.2950   17.6170 C.3   123  VAL123      0.1561
     88  C        -45.7560   75.8200   17.6730 C.2   123  VAL123      0.2260
     89  O        -46.7520   76.5410   17.8560 O.2   123  VAL123     -0.2867
     90  CB       -46.4490   73.8880   16.2270 C.3   123  VAL123      0.0252
     91  CG1      -45.4570   74.2110   15.1160 C.3   123  VAL123      0.0019
     92  CG2      -46.7780   72.4000   16.2060 C.3   123  VAL123      0.0019
     93  N        -38.1880   76.9570   14.1130 N.3   134  ILE134     -0.1245
     94  CA       -39.3420   76.4770   14.8980 C.3   134  ILE134      0.1561
     95  C        -38.8920   75.8020   16.1780 C.2   134  ILE134      0.2260
     96  O        -37.8510   75.1770   16.2070 O.2   134  ILE134     -0.2867
     97  CB       -40.2340   75.4940   14.0880 C.3   134  ILE134      0.0252
     98  CG1      -41.0810   76.2640   13.0920 C.3   134  ILE134      0.0019
     99  CG2      -41.1420   74.6500   14.9900 C.3   134  ILE134      0.0019
    100  CD1      -40.3510   76.5110   11.7990 C.3   134  ILE134      0.0001
    101  N        -40.7390   73.1110   18.9600 N.3   136  VAL136     -0.1245
    102  CA       -41.9400   72.3150   19.2750 C.3   136  VAL136      0.1561
    103  C        -41.8870   71.8730   20.7360 C.2   136  VAL136      0.2260
    104  O        -40.8740   71.3800   21.1970 O.2   136  VAL136     -0.2867
    105  CB       -42.0680   71.0640   18.3530 C.3   136  VAL136      0.0252
    106  CG1      -43.3300   70.2970   18.6640 C.3   136  VAL136      0.0019
    107  CG2      -42.0930   71.4380   16.8840 C.3   136  VAL136      0.0019
    108  N        -39.0330   68.9670   11.0110 N.3   195  LEU195     -0.1231
    109  CA       -40.4630   68.6710   10.9290 C.3   195  LEU195      0.1693
    110  C        -40.5940   67.1670   10.6580 C.2   195  LEU195      0.2593
    111  O        -39.6660   66.5400   10.1370 O.2   195  LEU195     -0.2718
    112  CB       -41.1040   69.4510    9.7650 C.3   195  LEU195      0.0284
    113  CG       -41.3560   70.9700    9.7050 C.3   195  LEU195      0.0019
    114  CD1      -40.2470   71.7940   10.3400 C.3   195  LEU195      0.0001
    115  CD2      -41.5690   71.4350    8.2570 C.3   195  LEU195      0.0001
    116  N        -41.7460   66.6050   11.0030 N.am  196  THR196     -0.1939
    117  CA       -41.9670   65.1640   10.9300 C.3   196  THR196      0.2028
    118  C        -43.0550   64.8470    9.9170 C.2   196  THR196      0.2642
    119  O        -43.5250   63.7070    9.8340 O.2   196  THR196     -0.2714
    120  CB       -42.4550   64.5910   12.2710 C.3   196  THR196      0.1808
    121  OG1      -43.7240   65.1760   12.5920 O.3   196  THR196     -0.2208
    122  CG2      -41.4470   64.8450   13.3730 C.3   196  THR196      0.0379
    123  N        -43.4770   65.8880    9.2060 N.am  197  THR197     -0.1950
    124  CA       -44.2670   65.7830    7.9940 C.3   197  THR197      0.1897
    125  C        -43.4780   66.5140    6.9030 C.2   197  THR197      0.2313
    126  O        -42.7150   67.4280    7.2040 O.2   197  THR197     -0.2863
    127  CB       -45.6550   66.4290    8.1830 C.3   197  THR197      0.1794
    128  OG1      -45.5250   67.6680    8.8920 O.3   197  THR197     -0.2208
    129  CG2      -46.5680   65.5120    8.9830 C.3   197  THR197      0.0378
    130  N        -35.9580   72.8370   13.3050 N.3   204  VAL204     -0.1245
    131  CA       -36.6790   72.7910   14.6020 C.3   204  VAL204      0.1561
    132  C        -35.7860   72.6270   15.8320 C.2   204  VAL204      0.2260
    133  O        -34.7510   71.9880   15.7800 O.2   204  VAL204     -0.2867
    134  CB       -37.7800   71.6830   14.6090 C.3   204  VAL204      0.0252
    135  CG1      -38.3920   71.5000   15.9890 C.3   204  VAL204      0.0019
    136  CG2      -38.8760   72.0260   13.6200 C.3   204  VAL204      0.0019
    137  N        -36.3450   71.0590   19.3400 N.3   206  TRP206     -0.1241
    138  CA       -37.2840   70.1820   19.9850 C.3   206  TRP206      0.1605
    139  C        -37.1380   70.2340   21.4370 C.2   206  TRP206      0.2264
    140  O        -36.0340   70.3260   21.9640 O.2   206  TRP206     -0.2867
    141  CB       -37.0000   68.7530   19.5560 C.3   206  TRP206      0.0550
    142  CG       -37.6070   68.4370   18.2210 C.ar  206  TRP206      0.0003
    143  CD1      -36.9750   68.4070   16.9750 C.ar  206  TRP206      0.0946
    144  CD2      -39.0050   68.0950   17.9560 C.ar  206  TRP206      0.0152
    145  NE1      -37.8650   68.0730   15.9870 N.ar  206  TRP206     -0.2442
    146  CE2      -39.1080   67.8830   16.5110 C.ar  206  TRP206      0.0810
    147  CE3      -40.1410   67.9750   18.7360 C.ar  206  TRP206      0.0012
    148  CZ2      -40.3070   67.5560   15.9030 C.ar  206  TRP206      0.0191
    149  CZ3      -41.3400   67.6220   18.1130 C.ar  206  TRP206      0.0001
    150  CH2      -41.4170   67.4310   16.7320 C.ar  206  TRP206      0.0015
@<TRIPOS>BOND
     1     1     2    1
     2     2     5    1
     3     2     3    1
     4     5     6    1
     5     3     4    2
     6     7     6   ar
     7     7     9   ar
     8     6     8   ar
     9     9    10   ar
    10     8    10   ar
    11     8    11   ar
    12    10    12   ar
    13    11    13   ar
    14    31    32   ar
    15    31    29   ar
    16    32    30   ar
    17    12    14   ar
    18    13    14   ar
    19    29    28   ar
    20    30    28   ar
    21    18    17    2
    22   125   126    2
    23   125   124    1
    24    28    27    1
    25    17    16    1
    26   124   127    1
    27   124   123    1
    28   127   128    1
    29   127   129    1
    30   115   113    1
    31    16    19    1
    32    16    15    1
    33    23    24    1
    34    27    24    1
    35    19    20    1
    36   123   118   am
    37    24    25    1
    38   113   112    1
    39   113   114    1
    40    20    21    2
    41    20    22   am
    42   112   109    1
    43   119   118    2
    44   118   117    1
    45   111   110    2
    46   110   109    1
    47   110   116   am
    48    25    33   am
    49    25    26    2
    50   109   108    1
    51   117   116    1
    52   117   120    1
    53    46    45    1
    54    33    34    1
    55   100    98    1
    56   120   121    1
    57   120   122    1
    58    45    44    1
    59    36    35    2
    60    55    53   am
    61    34    35    1
    62    34    37    1
    63    98    97    1
    64   130   131    1
    65    37    38    1
    66   136   134    1
    67    43    44    1
    68    43    40    1
    69    74    72   ar
    70    74    75   ar
    71    53    52    1
    72    53    54    2
    73    52    51    1
    74    97    94    1
    75    97    99    1
    76    93    94    1
    77    72    71   ar
    78   131   134    1
    79   131   132    1
    80    42    41    2
    81   134   135    1
    82    64    62   ar
    83    64    65   ar
    84    75    73   ar
    85    39    40    1
    86    62    61   ar
    87    65    63   ar
    88    94    95    1
    89    40    41    1
    90    51    48    1
    91    91    90    1
    92    63    61   ar
    93    61    60    1
    94    60    57    1
    95    71    73   ar
    96    71    70    1
    97   133   132    2
    98   148   146   ar
    99   148   150   ar
   100   145   146   ar
   101   145   143   ar
   102    47    48    1
   103    95    96    2
   104    92    90    1
   105    90    87    1
   106    48    49    1
   107   146   144   ar
   108   150   149   ar
   109    70    67    1
   110    82    84   ar
   111    82    81   ar
   112    84    85   ar
   113   107   105    1
   114   143   142   ar
   115    57    56    1
   116    57    58    1
   117    67    66    1
   118    67    68    1
   119    49    50    2
   120    87    88    1
   121    87    86    1
   122    88    89    2
   123    58    59    2
   124   144   142   ar
   125   144   147   ar
   126    81    80    1
   127    81    83   ar
   128    68    69    2
   129   149   147   ar
   130    85    83   ar
   131   142   141    1
   132    80    77    1
   133   105   106    1
   134   105   102    1
   135   101   102    1
   136   102   103    1
   137   137   138    1
   138    79    78    2
   139   141   138    1
   140    77    78    1
   141    77    76    1
   142   138   139    1
   143   103   104    2
   144   139   140    2
