@<TRIPOS>MOLECULE
tmp/5iq4B00.pdb
 198 191 0 0 0
SMALL
GASTEIGER

@<TRIPOS>ATOM
      1  N         26.6660   18.0430   18.8030 N.3    66  TYR66      -0.1241
      2  CA        26.3490   17.3160   17.5820 C.3    66  TYR66       0.1605
      3  C         27.6170   17.0060   16.8140 C.2    66  TYR66       0.2264
      4  O         28.6870   17.5280   17.1310 O.2    66  TYR66      -0.2867
      5  CB        25.4030   18.1450   16.7080 C.3    66  TYR66       0.0534
      6  CG        25.6420   19.6370   16.8150 C.ar   66  TYR66      -0.0201
      7  CD1       24.9820   20.3970   17.7750 C.ar   66  TYR66      -0.0009
      8  CD2       26.5280   20.2850   15.9630 C.ar   66  TYR66      -0.0009
      9  CE1       25.2030   21.7600   17.8860 C.ar   66  TYR66       0.0417
     10  CE2       26.7540   21.6500   16.0700 C.ar   66  TYR66       0.0417
     11  CZ        26.0840   22.3820   17.0320 C.ar   66  TYR66       0.1957
     12  OH        26.2920   23.7450   17.1480 O.3    66  TYR66      -0.2866
     13  N         30.6040   19.7150   15.2410 N.3    69  LEU69      -0.1245
     14  CA        30.7310   20.8760   16.1100 C.3    69  LEU69       0.1561
     15  C         32.1910   21.3050   16.2450 C.2    69  LEU69       0.2260
     16  O         33.0710   20.4800   16.4930 O.2    69  LEU69      -0.2867
     17  CB        30.1260   20.5940   17.4860 C.3    69  LEU69       0.0270
     18  CG        30.1470   21.7860   18.4510 C.3    69  LEU69       0.0019
     19  CD1       28.8910   21.8350   19.3160 C.3    69  LEU69       0.0001
     20  CD2       31.4010   21.7740   19.3170 C.3    69  LEU69       0.0001
     21  N         33.0630   27.5150   19.2270 N.3    72  ASN72      -0.1240
     22  CA        32.1710   28.5840   18.7800 C.3    72  ASN72       0.1653
     23  C         32.8030   29.9690   18.8520 C.2    72  ASN72       0.2266
     24  O         32.3820   30.8880   18.1550 O.2    72  ASN72      -0.2867
     25  CB        30.8760   28.5760   19.5910 C.3    72  ASN72       0.1155
     26  CG        30.9950   29.3640   20.8800 C.2    72  ASN72       0.2627
     27  OD1       31.5570   28.8840   21.8630 O.2    72  ASN72      -0.2716
     28  ND2       30.4640   30.5840   20.8820 N.am   72  ASN72      -0.0877
     29  N         22.2460   23.5410   29.9700 N.3   164  PHE164     -0.1241
     30  CA        21.9910   23.4780   28.5320 C.3   164  PHE164      0.1605
     31  C         21.6640   22.0560   28.1060 C.2   164  PHE164      0.2264
     32  O         22.1110   21.6080   27.0500 O.2   164  PHE164     -0.2867
     33  CB        23.1960   23.9920   27.7370 C.3   164  PHE164      0.0534
     34  CG        23.5490   25.4290   28.0170 C.ar  164  PHE164     -0.0203
     35  CD1       22.5680   26.4070   28.0820 C.ar  164  PHE164     -0.0042
     36  CD2       24.8760   25.8020   28.2300 C.ar  164  PHE164     -0.0042
     37  CE1       22.9020   27.7420   28.3380 C.ar  164  PHE164     -0.0003
     38  CE2       25.2150   27.1320   28.4820 C.ar  164  PHE164     -0.0003
     39  CZ        24.2240   28.0990   28.5430 C.ar  164  PHE164     -0.0000
     40  N         13.9040   23.6840   26.2470 N.3   168  ASN168     -0.1240
     41  CA        12.6630   24.4220   26.1000 C.3   168  ASN168      0.1653
     42  C         12.0490   24.0130   24.7660 C.2   168  ASN168      0.2266
     43  O         12.5980   24.3340   23.7220 O.2   168  ASN168     -0.2867
     44  CB        12.9530   25.9190   26.0870 C.3   168  ASN168      0.1155
     45  CG        11.7170   26.7410   25.8290 C.2   168  ASN168      0.2627
     46  OD1       10.6580   26.4790   26.4050 O.2   168  ASN168     -0.2716
     47  ND2       11.8380   27.7440   24.9620 N.am  168  ASN168     -0.0877
     48  N          8.6960   24.4130   22.7420 N.3   170  PRO170     -0.2116
     49  CA         7.3580   24.9860   22.5660 C.3   170  PRO170      0.1372
     50  C          6.5040   24.1720   21.6010 C.2   170  PRO170      0.2244
     51  O          7.0320   23.4890   20.7240 O.2   170  PRO170     -0.2868
     52  CB         7.6490   26.3640   21.9630 C.3   170  PRO170      0.0268
     53  CG         8.9400   26.1640   21.2200 C.3   170  PRO170      0.0207
     54  CD         9.7380   25.1990   22.0620 C.3   170  PRO170      0.0892
     55  N          3.6240   24.6110   18.6590 N.3   172  TYR172     -0.1241
     56  CA         2.9220   25.5030   17.7450 C.3   172  TYR172      0.1605
     57  C          1.8820   24.6890   16.9990 C.2   172  TYR172      0.2264
     58  O          2.0810   23.4940   16.7510 O.2   172  TYR172     -0.2867
     59  CB         3.8840   26.1690   16.7500 C.3   172  TYR172      0.0534
     60  CG         4.6840   27.3060   17.3390 C.ar  172  TYR172     -0.0201
     61  CD1        5.7780   27.0630   18.1640 C.ar  172  TYR172     -0.0009
     62  CD2        4.3450   28.6300   17.0740 C.ar  172  TYR172     -0.0009
     63  CE1        6.5110   28.1010   18.7000 C.ar  172  TYR172      0.0417
     64  CE2        5.0760   29.6790   17.6090 C.ar  172  TYR172      0.0417
     65  CZ         6.1540   29.4060   18.4230 C.ar  172  TYR172      0.1957
     66  OH         6.8860   30.4340   18.9620 O.3   172  TYR172     -0.2866
     67  N         14.1200   27.3870   14.1460 N.3   202  MET202     -0.1230
     68  CA        13.4610   28.3520   15.0200 C.3   202  MET202      0.1702
     69  C         14.4280   28.8370   16.0810 C.2   202  MET202      0.2593
     70  O         14.9650   28.0440   16.8480 O.2   202  MET202     -0.2718
     71  CB        12.2310   27.7380   15.7000 C.3   202  MET202      0.0401
     72  CG        11.5230   28.7210   16.6340 C.3   202  MET202      0.0596
     73  SD        10.0570   28.0440   17.4280 S.3   202  MET202     -0.1393
     74  CE         8.9520   27.8880   16.0270 C.3   202  MET202      0.0692
     75  N         14.6520   30.1450   16.1250 N.am  203  GLY203     -0.1942
     76  CA        15.5670   30.7010   17.0970 C.3   203  GLY203      0.2014
     77  C         16.4480   31.7590   16.4750 C.2   203  GLY203      0.2639
     78  O         16.5130   31.8780   15.2460 O.2   203  GLY203     -0.2714
     79  N         17.1330   32.5250   17.3190 N.am  204  ALA204     -0.1963
     80  CA        17.9720   33.6140   16.8280 C.3   204  ALA204      0.1728
     81  C         19.1680   33.8690   17.7320 C.2   204  ALA204      0.2617
     82  O         19.6750   34.9980   17.8120 O.2   204  ALA204     -0.2715
     83  CB        17.1500   34.8800   16.6590 C.3   204  ALA204      0.0334
     84  N         19.6290   32.8140   18.3990 N.am  205  SER205     -0.1936
     85  CA        20.7700   32.9110   19.2970 C.3   205  SER205      0.2055
     86  C         21.8720   31.9390   18.8690 C.2   205  SER205      0.2644
     87  O         21.9260   31.5390   17.7050 O.2   205  SER205     -0.2714
     88  CB        20.3190   32.6710   20.7410 C.3   205  SER205      0.2130
     89  OG        21.3610   32.9150   21.6720 O.3   205  SER205     -0.2179
     90  N         22.7440   31.5670   19.8040 N.am  206  SER206     -0.1935
     91  CA        23.8940   30.7220   19.4980 C.3   206  SER206      0.2055
     92  C         23.5500   29.4420   18.7470 C.2   206  SER206      0.2643
     93  O         24.1900   29.1210   17.7470 O.2   206  SER206     -0.2714
     94  CB        24.6640   30.3750   20.7750 C.3   206  SER206      0.2130
     95  OG        25.1700   31.5450   21.3860 O.3   206  SER206     -0.2179
     96  N         22.5570   28.7010   19.2320 N.am  207  SER207     -0.1949
     97  CA        22.2140   27.4240   18.6070 C.3   207  SER207      0.1924
     98  C         21.6750   27.5640   17.1890 C.2   207  SER207      0.2314
     99  O         22.0550   26.8000   16.3020 O.2   207  SER207     -0.2863
    100  CB        21.2360   26.6200   19.4740 C.3   207  SER207      0.2116
    101  OG        21.9030   26.0950   20.6010 O.3   207  SER207     -0.2180
    102  N         24.5920   28.2870   14.6880 N.3   210  ASP210     -0.1239
    103  CA        25.5050   27.1950   14.3750 C.3   210  ASP210      0.1674
    104  C         24.8380   25.9600   13.7810 C.2   210  ASP210      0.2266
    105  O         25.3640   25.3710   12.8510 O.2   210  ASP210     -0.2867
    106  CB        26.3760   26.8120   15.5720 C.3   210  ASP210      0.1410
    107  CG        27.6460   26.1050   15.1470 C.2   210  ASP210      0.3668
    108  OD1       28.5520   26.7860   14.6230 O.co2 210  ASP210     -0.2456
    109  OD2       27.7370   24.8700   15.3090 O.co2 210  ASP210     -0.2456
    110  N         13.7220   31.5600   11.8610 N.3   226  CYS226     -0.1221
    111  CA        12.7130   32.5250   12.2750 C.3   226  CYS226      0.1808
    112  C         12.9340   33.0430   13.6850 C.2   226  CYS226      0.2601
    113  O         13.3150   32.3000   14.5890 O.2   226  CYS226     -0.2717
    114  CB        11.2910   31.9880   12.0880 C.3   226  CYS226      0.0970
    115  SG        10.9330   30.4500   12.9470 S.3   226  CYS226     -0.0800
    116  N         12.6750   34.3350   13.8540 N.am  227  TYR227     -0.1962
    117  CA        12.9090   35.0320   15.1050 C.3   227  TYR227      0.1771
    118  C         11.6010   35.6060   15.6280 C.2   227  TYR227      0.2619
    119  O         10.6960   35.9040   14.8520 O.2   227  TYR227     -0.2715
    120  CB        13.9140   36.1710   14.8790 C.3   227  TYR227      0.0574
    121  CG        13.4430   37.2300   13.8960 C.ar  227  TYR227     -0.0198
    122  CD1       12.6780   38.3150   14.3160 C.ar  227  TYR227     -0.0009
    123  CD2       13.7780   37.1550   12.5490 C.ar  227  TYR227     -0.0009
    124  CE1       12.2470   39.2790   13.4210 C.ar  227  TYR227      0.0417
    125  CE2       13.3520   38.1190   11.6480 C.ar  227  TYR227      0.0417
    126  CZ        12.5870   39.1780   12.0900 C.ar  227  TYR227      0.1957
    127  OH        12.1680   40.1420   11.1910 O.3   227  TYR227     -0.2866
    128  N         11.4980   35.7650   16.9430 N.am  228  ARG228     -0.1963
    129  CA        10.3290   36.4290   17.5230 C.3   228  ARG228      0.1729
    130  C         10.7090   37.7290   18.2230 C.2   228  ARG228      0.2616
    131  O          9.8400   38.4620   18.6970 O.2   228  ARG228     -0.2715
    132  CB         9.5910   35.5070   18.4900 C.3   228  ARG228      0.0348
    133  CG        10.4380   35.0450   19.6590 C.3   228  ARG228      0.0492
    134  CD         9.5960   34.3770   20.7280 C.3   228  ARG228      0.2205
    135  NE        10.3870   34.1200   21.9200 N.pl3 228  ARG228     -0.0865
    136  CZ         9.9490   33.4490   22.9810 C.cat 228  ARG228      0.5346
    137  NH1        8.7160   32.9620   23.0020 N.pl3 228  ARG228      0.1354
    138  NH2       10.7450   33.2730   24.0230 N.pl3 228  ARG228      0.1354
    139  N         12.0060   38.0100   18.2810 N.am  229  SER229     -0.1950
    140  CA        12.4940   39.2640   18.8470 C.3   229  SER229      0.1924
    141  C         13.3480   40.0060   17.8270 C.2   229  SER229      0.2314
    142  O         12.8460   40.4910   16.8180 O.2   229  SER229     -0.2863
    143  CB        13.3020   38.9990   20.1180 C.3   229  SER229      0.2116
    144  OG        12.4720   38.4860   21.1400 O.3   229  SER229     -0.2180
    145  N         15.7130   25.5910   17.9010 N.3   270  CYS270     -0.1221
    146  CA        16.8930   26.0930   18.6030 C.3   270  CYS270      0.1808
    147  C         16.4440   27.1090   19.6370 C.2   270  CYS270      0.2602
    148  O         16.8780   28.2610   19.6490 O.2   270  CYS270     -0.2717
    149  CB        17.8980   26.6850   17.6110 C.3   270  CYS270      0.0970
    150  SG        18.4900   25.4340   16.4380 S.3   270  CYS270     -0.0800
    151  N         15.5660   26.6410   20.5160 N.am  271  THR271     -0.1939
    152  CA        14.7830   27.5060   21.3810 C.3   271  THR271      0.2028
    153  C         15.3130   27.5250   22.8180 C.2   271  THR271      0.2643
    154  O         14.6390   27.9810   23.7430 O.2   271  THR271     -0.2714
    155  CB        13.3030   27.0790   21.3380 C.3   271  THR271      0.1808
    156  OG1       13.2250   25.6550   21.4950 O.3   271  THR271     -0.2208
    157  CG2       12.7030   27.4220   19.9880 C.3   271  THR271      0.0379
    158  N         16.5320   27.0340   23.0010 N.am  272  GLY272     -0.1939
    159  CA        17.1950   27.1610   24.2850 C.3   272  GLY272      0.2014
    160  C         16.7690   26.1160   25.2960 C.2   272  GLY272      0.2638
    161  O         16.1160   25.1240   24.9490 O.2   272  GLY272     -0.2714
    162  N         17.1290   26.3670   26.5530 N.am  273  TYR273     -0.1973
    163  CA        17.0060   25.3920   27.6270 C.3   273  TYR273      0.1639
    164  C         16.4610   26.0280   28.8780 C.2   273  TYR273      0.2290
    165  O         16.4420   27.2530   29.0100 O.2   273  TYR273     -0.2864
    166  CB        18.3830   24.8070   27.9490 C.3   273  TYR273      0.0560
    167  CG        18.9760   24.0890   26.7720 C.ar  273  TYR273     -0.0198
    168  CD1       19.7090   24.7760   25.8150 C.ar  273  TYR273     -0.0009
    169  CD2       18.7660   22.7320   26.5950 C.ar  273  TYR273     -0.0009
    170  CE1       20.2260   24.1310   24.7270 C.ar  273  TYR273      0.0417
    171  CE2       19.2830   22.0720   25.5120 C.ar  273  TYR273      0.0417
    172  CZ        20.0140   22.7750   24.5780 C.ar  273  TYR273      0.1957
    173  OH        20.5360   22.1310   23.4850 O.3   273  TYR273     -0.2866
    174  N         18.2310   32.3910   32.2490 N.3   290  ASN290     -0.1240
    175  CA        19.5550   32.2630   31.6760 C.3   290  ASN290      0.1653
    176  C         20.0710   33.6400   31.2960 C.2   290  ASN290      0.2266
    177  O         19.5630   34.2550   30.3570 O.2   290  ASN290     -0.2867
    178  CB        19.4900   31.3920   30.4230 C.3   290  ASN290      0.1155
    179  CG        20.8540   31.1430   29.8290 C.2   290  ASN290      0.2627
    180  OD1       21.8080   30.8320   30.5480 O.2   290  ASN290     -0.2716
    181  ND2       20.9660   31.2970   28.5190 N.am  290  ASN290     -0.0877
    182  N         24.6270   32.3290   31.7370 N.3   316  ASP316     -0.1225
    183  CA        24.8860   32.2580   30.3040 C.3   316  ASP316      0.1805
    184  C         26.3620   32.6070   30.0870 C.2   316  ASP316      0.2597
    185  O         26.9670   33.2900   30.9190 O.2   316  ASP316     -0.2718
    186  CB        23.9940   33.2380   29.5490 C.3   316  ASP316      0.1424
    187  CG        24.1500   33.1130   28.0640 C.2   316  ASP316      0.3668
    188  OD1       24.1560   31.9730   27.5990 O.co2 316  ASP316     -0.2456
    189  OD2       24.3140   34.1260   27.3660 O.co2 316  ASP316     -0.2456
    190  N         26.9370   32.1700   28.9710 N.am  317  GLN317     -0.1979
    191  CA        28.3920   32.1650   28.8390 C.3   317  GLN317      0.1601
    192  C         28.9920   32.8380   27.6030 C.2   317  GLN317      0.2287
    193  O         28.8420   32.3630   26.4740 O.2   317  GLN317     -0.2864
    194  CB        28.9140   30.7350   28.9420 C.3   317  GLN317      0.0394
    195  CG        28.6920   30.1300   30.3150 C.3   317  GLN317      0.0908
    196  CD        28.4600   28.6150   30.2890 C.2   317  GLN317      0.2608
    197  OE1       28.8490   27.9180   29.3470 O.2   317  GLN317     -0.2717
    198  NE2       27.8200   28.1030   31.3400 N.am  317  GLN317     -0.0878
@<TRIPOS>BOND
     1   127   126    1
     2   125   126   ar
     3   125   123   ar
     4   110   111    1
     5   114   111    1
     6   114   115    1
     7   126   124   ar
     8   111   112    1
     9   123   121   ar
    10   105   104    2
    11   124   122   ar
    12   112   116   am
    13   112   113    2
    14   104   103    1
    15   116   117    1
    16   121   122   ar
    17   121   120    1
    18    67    68    1
    19   103   102    1
    20   103   106    1
    21   108   107   ar
    22   119   118    2
    23   120   117    1
    24    68    71    1
    25    68    69    1
    26   117   118    1
    27   107   109   ar
    28   107   106    1
    29    13    14    1
    30    78    77    2
    31   118   128   am
    32    71    72    1
    33     8    10   ar
    34     8     6   ar
    35    74    73    1
    36    10    11   ar
    37    69    75   am
    38    69    70    2
    39    14    15    1
    40    14    17    1
    41    75    76    1
    42    15    16    2
    43    99    98    2
    44   150   149    1
    45    77    76    1
    46    77    79   am
    47    72    73    1
    48    83    80    1
    49     5     6    1
    50     5     2    1
    51    59    60    1
    52    59    56    1
    53    58    57    2
    54     3     4    2
    55     3     2    1
    56     6     7   ar
    57   142   141    2
    58    80    79    1
    59    80    81    1
    60   128   129    1
    61    57    56    1
    62    11    12    1
    63    11     9   ar
    64    62    60   ar
    65    62    64   ar
    66    98    97    1
    67    60    61   ar
    68    17    18    1
    69   129   130    1
    70   129   132    1
    71     2     1    1
    72    64    65   ar
    73   149   146    1
    74    87    86    2
    75    81    82    2
    76    81    84   am
    77    56    55    1
    78    93    92    2
    79     7     9   ar
    80   141   140    1
    81   145   146    1
    82    24    23    2
    83    61    63   ar
    84   130   139   am
    85   130   131    2
    86   139   140    1
    87    84    85    1
    88    65    63   ar
    89    65    66    1
    90    18    19    1
    91    18    20    1
    92   132   133    1
    93   146   147    1
    94    97    96    1
    95    97   100    1
    96    92    96   am
    97    92    91    1
    98    22    23    1
    99    22    21    1
   100    22    25    1
   101   140   143    1
   102    86    85    1
   103    86    90   am
   104    85    88    1
   105   100   101    1
   106    91    90    1
   107    91    94    1
   108    25    26    1
   109   147   148    2
   110   147   151   am
   111   133   134    1
   112   157   155    1
   113   143   144    1
   114   151   152    1
   115    51    50    2
   116   134   135    1
   117    88    89    1
   118    94    95    1
   119    26    28   am
   120    26    27    2
   121    53    52    1
   122    53    54    1
   123   155   152    1
   124   155   156    1
   125   152   153    1
   126    50    49    1
   127   135   136    2
   128    52    49    1
   129    54    48    1
   130    49    48    1
   131   153   158   am
   132   153   154    2
   133   136   137    1
   134   136   138    1
   135   158   159    1
   136   173   172    1
   137    43    42    2
   138   159   160    1
   139   172   170   ar
   140   172   171   ar
   141   170   168   ar
   142    42    41    1
   143   161   160    2
   144    47    45   am
   145   160   162   am
   146   171   169   ar
   147   168   167   ar
   148    45    44    1
   149    45    46    2
   150    44    41    1
   151    41    40    1
   152   193   192    2
   153   162   163    1
   154   169   167   ar
   155   167   166    1
   156    32    31    2
   157   189   187   ar
   158   188   187   ar
   159   192   191    1
   160   163   166    1
   161   163   164    1
   162    33    34    1
   163    33    30    1
   164    34    35   ar
   165    34    36   ar
   166   187   186    1
   167    35    37   ar
   168    31    30    1
   169    36    38   ar
   170    37    39   ar
   171    38    39   ar
   172   181   179   am
   173    30    29    1
   174   191   194    1
   175   191   190    1
   176   164   165    2
   177   194   195    1
   178   190   184   am
   179   197   196    2
   180   186   183    1
   181   179   178    1
   182   179   180    2
   183   184   183    1
   184   184   185    2
   185   196   195    1
   186   196   198   am
   187   183   182    1
   188   177   176    2
   189   178   175    1
   190   176   175    1
   191   175   174    1
