@<TRIPOS>MOLECULE
tmp/5iqbB01.pdb
 149 139 0 0 0
SMALL
GASTEIGER

@<TRIPOS>ATOM
      1  N         42.2890    1.6860    8.3660 N.3   187  ASN187     -0.1225
      2  CA        42.7800    0.3590    8.7520 C.3   187  ASN187      0.1785
      3  C         42.1040   -0.3220    9.9680 C.2   187  ASN187      0.2597
      4  O         42.5950   -1.2960   10.5050 O.2   187  ASN187     -0.2718
      5  CB        44.2670    0.4340    8.9840 C.3   187  ASN187      0.1169
      6  CG        44.9560   -0.9080    8.8490 C.2   187  ASN187      0.2627
      7  OD1       44.5240   -1.7680    8.1250 O.2   187  ASN187     -0.2716
      8  ND2       46.0200   -1.0900    9.5940 N.am  187  ASN187     -0.0877
      9  N         40.9470    0.1600   10.3650 N.am  188  ASP188     -0.1974
     10  CA        40.0870   -0.5540   11.3000 C.3   188  ASP188      0.1709
     11  C         38.6450   -0.0660   11.0380 C.2   188  ASP188      0.2293
     12  O         37.8780    0.3190   11.9460 O.2   188  ASP188     -0.2864
     13  CB        40.5160   -0.3090   12.7170 C.3   188  ASP188      0.1436
     14  CG        39.9230   -1.3200   13.6880 C.2   188  ASP188      0.3671
     15  OD1       39.2670   -2.2990   13.2610 O.co2 188  ASP188     -0.2456
     16  OD2       40.0900   -1.1130   14.9070 O.co2 188  ASP188     -0.2456
     17  N         35.3640   -0.3530   10.5680 N.3   190  SER190     -0.1217
     18  CA        34.2500   -1.2300   10.8510 C.3   190  SER190      0.1889
     19  C         33.1330   -0.3700   11.3920 C.2   190  SER190      0.2288
     20  O         33.3430    0.8050   11.6960 O.2   190  SER190     -0.2866
     21  CB        34.6390   -2.2510   11.8780 C.3   190  SER190      0.2089
     22  OG        35.2070   -1.5930   12.9960 O.3   190  SER190     -0.2183
     23  N         31.4310   -0.0970   14.1510 N.3   192  ASN192     -0.1225
     24  CA        31.5130    0.4770   15.5040 C.3   192  ASN192      0.1785
     25  C         32.4190    1.7290   15.5490 C.2   192  ASN192      0.2597
     26  O         32.6070    2.3360   16.5820 O.2   192  ASN192     -0.2718
     27  CB        31.9990   -0.5720   16.4930 C.3   192  ASN192      0.1169
     28  CG        33.4730   -0.8720   16.3310 C.2   192  ASN192      0.2627
     29  OD1       33.9360   -1.2060   15.2440 O.2   192  ASN192     -0.2716
     30  ND2       34.2060   -0.7600   17.3930 N.am  192  ASN192     -0.0877
     31  N         32.9860    2.0990   14.4090 N.am  193  HIS193     -0.1975
     32  CA        33.7400    3.3430   14.3080 C.3   193  HIS193      0.1656
     33  C         33.0730    4.4060   13.4110 C.2   193  HIS193      0.2291
     34  O         33.6420    5.4620   13.2060 O.2   193  HIS193     -0.2864
     35  CB        35.1370    3.0330   13.8340 C.3   193  HIS193      0.0771
     36  CG        35.9360    2.2830   14.8440 C.ar  193  HIS193      0.0820
     37  ND1       36.9080    1.3790   14.4990 N.ar  193  HIS193     -0.2267
     38  CD2       35.8910    2.2960   16.1900 C.ar  193  HIS193      0.1154
     39  CE1       37.4550    0.8870   15.5920 C.ar  193  HIS193      0.1986
     40  NE2       36.8390    1.4100   16.6380 N.ar  193  HIS193     -0.2212
     41  N         38.6150    6.5260   15.8080 N.3   207  ASP207     -0.1239
     42  CA        39.6090    5.4670   15.9880 C.3   207  ASP207      0.1674
     43  C         40.4490    5.2350   14.7560 C.2   207  ASP207      0.2266
     44  O         40.3580    4.2000   14.1010 O.2   207  ASP207     -0.2867
     45  CB        38.9510    4.1550   16.4470 C.3   207  ASP207      0.1410
     46  CG        39.9740    3.1720   17.0510 C.2   207  ASP207      0.3668
     47  OD1       41.1750    3.4680   16.9320 O.co2 207  ASP207     -0.2456
     48  OD2       39.5990    2.1530   17.6540 O.co2 207  ASP207     -0.2456
     49  N         44.9040    2.5340   14.2010 N.3   210  ASP210     -0.1239
     50  CA        45.6840    1.5750   13.4410 C.3   210  ASP210      0.1674
     51  C         46.0090    2.0980   12.0470 C.2   210  ASP210      0.2266
     52  O         46.5270    1.3680   11.2240 O.2   210  ASP210     -0.2867
     53  CB        44.8730    0.2800   13.2660 C.3   210  ASP210      0.1410
     54  CG        44.6640   -0.4990   14.5590 C.2   210  ASP210      0.3668
     55  OD1       45.3370   -0.2710   15.5620 O.co2 210  ASP210     -0.2456
     56  OD2       43.8160   -1.4080   14.5730 O.co2 210  ASP210     -0.2456
     57  N         36.4090   -4.9410    6.7150 N.3   222  TYR222     -0.1241
     58  CA        35.2800   -5.1140    7.6260 C.3   222  TYR222      0.1605
     59  C         33.9810   -4.7570    6.9270 C.2   222  TYR222      0.2264
     60  O         32.9540   -5.3160    7.2210 O.2   222  TYR222     -0.2867
     61  CB        35.5100   -4.3160    8.9130 C.3   222  TYR222      0.0534
     62  CG        36.7570   -4.8060    9.6200 C.ar  222  TYR222     -0.0201
     63  CD1       36.8840   -6.1320    9.9570 C.ar  222  TYR222     -0.0009
     64  CD2       37.8130   -3.9600    9.8970 C.ar  222  TYR222     -0.0009
     65  CE1       38.0130   -6.6200   10.5930 C.ar  222  TYR222      0.0417
     66  CE2       38.9450   -4.4140   10.5460 C.ar  222  TYR222      0.0417
     67  CZ        39.0480   -5.7610   10.8940 C.ar  222  TYR222      0.1957
     68  OH        40.1720   -6.2780   11.5420 O.3   222  TYR222     -0.2866
     69  N         33.0270   -7.9270    5.6070 N.3   225  GLU225     -0.1245
     70  CA        32.9190   -9.0280    6.5690 C.3   225  GLU225      0.1567
     71  C         31.4870   -9.5020    6.7080 C.2   225  GLU225      0.2260
     72  O         30.5400   -8.7120    6.7600 O.2   225  GLU225     -0.2867
     73  CB        33.4780   -8.6250    7.9340 C.3   225  GLU225      0.0388
     74  CG        33.3840   -9.6850    9.0320 C.3   225  GLU225      0.1160
     75  CD        34.1670   -9.2620   10.2720 C.2   225  GLU225      0.3649
     76  OE1       33.5160   -8.9690   11.3160 O.co2 225  GLU225     -0.2457
     77  OE2       35.4280   -9.1580   10.1850 O.co2 225  GLU225     -0.2457
     78  N         29.4410  -11.2660    9.3760 N.3   227  SER227     -0.1217
     79  CA        29.4640  -11.5920   10.8070 C.3   227  SER227      0.1889
     80  C         28.3660  -10.8250   11.5180 C.2   227  SER227      0.2288
     81  O         27.7580   -9.9290   10.9580 O.2   227  SER227     -0.2866
     82  CB        30.8250  -11.2230   11.4460 C.3   227  SER227      0.2089
     83  OG        30.9760   -9.8030   11.5390 O.3   227  SER227     -0.2183
     84  N         28.7740   -8.6970   13.8560 N.3   229  GLU229     -0.1231
     85  CA        29.1700   -7.3120   14.1140 C.3   229  GLU229      0.1699
     86  C         29.0290   -6.4010   12.8960 C.2   229  GLU229      0.2592
     87  O         28.9250   -5.1850   13.0380 O.2   229  GLU229     -0.2718
     88  CB        30.6040   -7.2700   14.6010 C.3   229  GLU229      0.0402
     89  CG        30.7860   -7.8920   15.9700 C.3   229  GLU229      0.1161
     90  CD        32.2410   -7.9370   16.4110 C.2   229  GLU229      0.3649
     91  OE1       32.5170   -8.7230   17.3540 O.co2 229  GLU229     -0.2457
     92  OE2       33.1200   -7.2340   15.8080 O.co2 229  GLU229     -0.2457
     93  N         29.0640   -6.9640   11.6980 N.am  230  GLU230     -0.1979
     94  CA        29.1530   -6.1210   10.5040 C.3   230  GLU230      0.1602
     95  C         27.9150   -6.3180    9.6720 C.2   230  GLU230      0.2287
     96  O         27.1280   -7.2300    9.9390 O.2   230  GLU230     -0.2864
     97  CB        30.4220   -6.4000    9.6770 C.3   230  GLU230      0.0415
     98  CG        31.7260   -6.2290   10.4540 C.3   230  GLU230      0.1163
     99  CD        31.9340   -4.8390   11.0890 C.2   230  GLU230      0.3649
    100  OE1       31.5950   -3.7800   10.4860 O.co2 230  GLU230     -0.2457
    101  OE2       32.5240   -4.8240   12.1900 O.co2 230  GLU230     -0.2457
    102  N         42.8380  -12.0320    6.0150 N.3   258  VAL258     -0.1231
    103  CA        42.8610  -11.3770    7.3250 C.3   258  VAL258      0.1692
    104  C         41.9560  -12.1530    8.2760 C.2   258  VAL258      0.2591
    105  O         42.2810  -12.3300    9.4390 O.2   258  VAL258     -0.2718
    106  CB        42.4260   -9.9100    7.2030 C.3   258  VAL258      0.0266
    107  CG1       42.1520   -9.3140    8.5520 C.3   258  VAL258      0.0020
    108  CG2       43.5040   -9.0930    6.5260 C.3   258  VAL258      0.0020
    109  N         40.8130  -12.6200    7.7910 N.am  259  GLU259     -0.1979
    110  CA        39.9370  -13.3770    8.6680 C.3   259  GLU259      0.1602
    111  C         40.5600  -14.7520    9.0290 C.2   259  GLU259      0.2287
    112  O         40.3950  -15.2440   10.1420 O.2   259  GLU259     -0.2864
    113  CB        38.5570  -13.5320    8.0540 C.3   259  GLU259      0.0415
    114  CG        37.5160  -14.0270    9.0360 C.3   259  GLU259      0.1163
    115  CD        36.1200  -13.4260    8.7670 C.2   259  GLU259      0.3649
    116  OE1       35.5140  -12.8000    9.6870 O.co2 259  GLU259     -0.2457
    117  OE2       35.6110  -13.5800    7.6270 O.co2 259  GLU259     -0.2457
    118  N         42.9620  -14.2490   12.0330 N.3   262  TYR262     -0.1241
    119  CA        42.4190  -13.7930   13.3170 C.3   262  TYR262      0.1605
    120  C         42.7140  -14.6470   14.5580 C.2   262  TYR262      0.2264
    121  O         43.1750  -14.1500   15.5650 O.2   262  TYR262     -0.2867
    122  CB        40.9030  -13.5550   13.1600 C.3   262  TYR262      0.0534
    123  CG        40.2180  -13.1330   14.4040 C.ar  262  TYR262     -0.0201
    124  CD1       40.4580  -11.8920   14.9580 C.ar  262  TYR262     -0.0009
    125  CD2       39.3450  -13.9960   15.0610 C.ar  262  TYR262     -0.0009
    126  CE1       39.8250  -11.5100   16.1270 C.ar  262  TYR262      0.0417
    127  CE2       38.6750  -13.6140   16.2110 C.ar  262  TYR262      0.0417
    128  CZ        38.9160  -12.3790   16.7340 C.ar  262  TYR262      0.1957
    129  OH        38.2840  -12.0190   17.8710 O.3   262  TYR262     -0.2866
    130  N         46.3730  -14.2360   15.3480 N.3   265  GLU265     -0.1245
    131  CA        46.6140  -12.9310   15.9050 C.3   265  GLU265      0.1567
    132  C         46.1990  -12.8640   17.3560 C.2   265  GLU265      0.2260
    133  O         46.8290  -12.2160   18.1810 O.2   265  GLU265     -0.2867
    134  CB        45.8260  -11.8990   15.1500 C.3   265  GLU265      0.0388
    135  CG        46.1800  -10.4950   15.5780 C.3   265  GLU265      0.1160
    136  CD        45.3950   -9.4910   14.8130 C.2   265  GLU265      0.3649
    137  OE1       44.1410   -9.5570   14.9250 O.co2 265  GLU265     -0.2457
    138  OE2       46.0180   -8.6540   14.1050 O.co2 265  GLU265     -0.2457
    139  N         37.0310  -23.7480   13.9680 N.3   289  ARG289     -0.1245
    140  CA        37.1310  -23.5990   12.5190 C.3   289  ARG289      0.1563
    141  C         37.4830  -24.9260   11.8710 C.2   289  ARG289      0.2260
    142  O         36.9240  -25.2840   10.8440 O.2   289  ARG289     -0.2867
    143  CB        38.1420  -22.4970   12.1350 C.3   289  ARG289      0.0307
    144  CG        37.6520  -21.0610   12.3380 C.3   289  ARG289      0.0489
    145  CD        38.7960  -20.0730   12.5110 C.3   289  ARG289      0.2205
    146  NE        38.3080  -18.7120   12.6890 N.pl3 289  ARG289     -0.0865
    147  CZ        38.6710  -17.6810   11.9440 C.cat 289  ARG289      0.5346
    148  NH1       39.5140  -17.8380   10.9600 N.pl3 289  ARG289      0.1354
    149  NH2       38.1950  -16.4690   12.1850 N.pl3 289  ARG289      0.1354
@<TRIPOS>BOND
     1    69    70    1
     2   102   103    1
     3   108   106    1
     4    70    71    1
     5    70    73    1
     6    71    72    2
     7    57    58    1
     8    59    60    2
     9    59    58    1
    10   106   103    1
    11   106   107    1
    12   103   104    1
    13    58    61    1
    14   117   115   ar
    15   109   104   am
    16   109   110    1
    17    73    74    1
    18   113   110    1
    19   113   114    1
    20     7     6    2
    21   104   105    2
    22     1     2    1
    23   110   111    1
    24     2     5    1
    25     2     3    1
    26   115   114    1
    27   115   116   ar
    28     6     5    1
    29     6     8   am
    30    61    62    1
    31   111   112    2
    32    74    75    1
    33    78    79    1
    34    62    64   ar
    35    62    63   ar
    36    95    96    2
    37    95    94    1
    38    97    98    1
    39    97    94    1
    40    64    66   ar
    41    63    65   ar
    42     3     9   am
    43     3     4    2
    44    77    75   ar
    45    75    76   ar
    46     9    10    1
    47    98    99    1
    48   100    99   ar
    49    94    93    1
    50    66    67   ar
    51    17    18    1
    52    65    67   ar
    53    79    82    1
    54    79    80    1
    55   142   141    2
    56    18    19    1
    57    18    21    1
    58    67    68    1
    59    81    80    2
    60   148   147    1
    61    11    10    1
    62    11    12    2
    63    99   101   ar
    64    52    51    2
    65    10    13    1
    66    19    20    2
    67    82    83    1
    68    93    86   am
    69   141   140    1
    70    21    22    1
    71   147   149    1
    72   147   146    2
    73   118   119    1
    74    51    50    1
    75   143   144    1
    76   143   140    1
    77   144   145    1
    78   145   146    1
    79   140   139    1
    80    13    14    1
    81    86    87    2
    82    86    85    1
    83   122   119    1
    84   122   123    1
    85    34    33    2
    86    15    14   ar
    87    53    50    1
    88    53    54    1
    89   119   120    1
    90    33    32    1
    91    50    49    1
    92    14    16   ar
    93    35    32    1
    94    35    36    1
    95    84    85    1
    96    44    43    2
    97   138   136   ar
    98    85    88    1
    99    23    24    1
   100    32    31    1
   101   123   124   ar
   102   123   125   ar
   103    31    25   am
   104    37    36   ar
   105    37    39   ar
   106   120   121    2
   107    54    56   ar
   108    54    55   ar
   109    88    89    1
   110    43    42    1
   111   136   137   ar
   112   136   135    1
   113    36    38   ar
   114   124   126   ar
   115   125   127   ar
   116   134   135    1
   117   134   131    1
   118    29    28    2
   119   130   131    1
   120    24    25    1
   121    24    27    1
   122    25    26    2
   123    39    40   ar
   124    41    42    1
   125    92    90   ar
   126   131   132    1
   127    89    90    1
   128    42    45    1
   129   126   128   ar
   130    38    40   ar
   131   127   128   ar
   132    28    27    1
   133    28    30   am
   134    90    91   ar
   135    45    46    1
   136   128   129    1
   137    47    46   ar
   138    46    48   ar
   139   132   133    2
