@<TRIPOS>MOLECULE
tmp/5iqcD01.pdb
 107 100 0 0 0
SMALL
GASTEIGER

@<TRIPOS>ATOM
      1  N         69.5660   33.0590   30.4220 N.3   187  ASP187     -0.1239
      2  CA        70.3670   33.7300   31.4610 C.3   187  ASP187      0.1674
      3  C         71.8320   33.3330   31.2500 C.2   187  ASP187      0.2266
      4  O         72.5420   32.9330   32.1850 O.2   187  ASP187     -0.2867
      5  CB        69.8790   33.3470   32.8680 C.3   187  ASP187      0.1410
      6  CG        70.3660   34.3150   33.9280 C.2   187  ASP187      0.3668
      7  OD1       70.8610   35.4010   33.5730 O.co2 187  ASP187     -0.2456
      8  OD2       70.2530   34.0120   35.1320 O.co2 187  ASP187     -0.2456
      9  N         75.0720   33.7690   30.8760 N.3   189  SER189     -0.1217
     10  CA        76.1170   34.6670   31.2340 C.3   189  SER189      0.1889
     11  C         77.2750   33.7960   31.7600 C.2   189  SER189      0.2288
     12  O         77.0910   32.5980   32.0310 O.2   189  SER189     -0.2866
     13  CB        75.6140   35.6290   32.3040 C.3   189  SER189      0.2089
     14  OG        74.9670   34.9310   33.3510 O.3   189  SER189     -0.2183
     15  N         78.9110   33.4020   34.4790 N.3   191  ASN191     -0.1225
     16  CA        78.7540   32.7820   35.7820 C.3   191  ASN191      0.1785
     17  C         77.8890   31.4980   35.7550 C.2   191  ASN191      0.2597
     18  O         77.6600   30.8640   36.8020 O.2   191  ASN191     -0.2718
     19  CB        78.1670   33.8020   36.7730 C.3   191  ASN191      0.1169
     20  CG        76.7140   34.1400   36.4870 C.2   191  ASN191      0.2627
     21  OD1       76.3130   34.3320   35.3480 O.2   191  ASN191     -0.2716
     22  ND2       75.9120   34.1690   37.5190 N.am  191  ASN191     -0.0877
     23  N         77.3630   31.1340   34.5860 N.am  192  HIS192     -0.1975
     24  CA        76.6800   29.8550   34.4370 C.3   192  HIS192      0.1656
     25  C         77.4310   28.8640   33.5920 C.2   192  HIS192      0.2291
     26  O         76.9400   27.7660   33.3150 O.2   192  HIS192     -0.2864
     27  CB        75.2910   30.0940   33.8970 C.3   192  HIS192      0.0771
     28  CG        74.3910   30.7640   34.8820 C.ar  192  HIS192      0.0820
     29  ND1       73.3790   31.6200   34.5160 N.ar  192  HIS192     -0.2267
     30  CD2       74.3880   30.7450   36.2350 C.ar  192  HIS192      0.1154
     31  CE1       72.7700   32.0720   35.5990 C.ar  192  HIS192      0.1986
     32  NE2       73.3580   31.5470   36.6540 N.ar  192  HIS192     -0.2212
     33  N         74.1520   38.4860   27.1270 N.3   221  TYR221     -0.1241
     34  CA        75.2390   38.6390   28.0740 C.3   221  TYR221      0.1605
     35  C         76.5940   38.3180   27.4380 C.2   221  TYR221      0.2264
     36  O         77.6160   38.9130   27.8270 O.2   221  TYR221     -0.2867
     37  CB        74.9790   37.8020   29.3130 C.3   221  TYR221      0.0534
     38  CG        73.6630   38.2200   29.9070 C.ar  221  TYR221     -0.0201
     39  CD1       73.4340   39.5510   30.2580 C.ar  221  TYR221     -0.0009
     40  CD2       72.6180   37.3090   30.0740 C.ar  221  TYR221     -0.0009
     41  CE1       72.2300   39.9780   30.7910 C.ar  221  TYR221      0.0417
     42  CE2       71.3840   37.7270   30.5970 C.ar  221  TYR221      0.0417
     43  CZ        71.1970   39.0680   30.9490 C.ar  221  TYR221      0.1957
     44  OH        70.0250   39.5440   31.4960 O.3   221  TYR221     -0.2866
     45  N         77.6650   41.5350   26.2950 N.3   224  GLU224     -0.1245
     46  CA        77.7020   42.5780   27.2990 C.3   224  GLU224      0.1567
     47  C         79.1280   43.0890   27.5800 C.2   224  GLU224      0.2260
     48  O         80.0780   42.2920   27.7150 O.2   224  GLU224     -0.2867
     49  CB        77.0450   42.0860   28.5900 C.3   224  GLU224      0.0388
     50  CG        77.0280   43.0990   29.7340 C.3   224  GLU224      0.1160
     51  CD        76.2210   42.5830   30.9230 C.2   224  GLU224      0.3649
     52  OE1       76.8360   42.3340   31.9950 O.co2 224  GLU224     -0.2457
     53  OE2       74.9940   42.3790   30.7870 O.co2 224  GLU224     -0.2457
     54  N         80.9140   44.6870   30.4750 N.3   226  SER226     -0.1217
     55  CA        80.8260   44.9330   31.9150 C.3   226  SER226      0.1889
     56  C         81.9100   44.1450   32.6220 C.2   226  SER226      0.2288
     57  O         82.5910   43.3080   32.0210 O.2   226  SER226     -0.2866
     58  CB        79.4400   44.5590   32.5090 C.3   226  SER226      0.2089
     59  OG        79.2470   43.1490   32.5330 O.3   226  SER226     -0.2183
     60  N         81.5880   41.8900   34.8750 N.3   228  GLU228     -0.1231
     61  CA        81.2020   40.4840   35.0200 C.3   228  GLU228      0.1699
     62  C         81.3220   39.6570   33.7520 C.2   228  GLU228      0.2592
     63  O         81.3000   38.4300   33.8140 O.2   228  GLU228     -0.2718
     64  CB        79.7200   40.3710   35.4100 C.3   228  GLU228      0.0402
     65  CG        79.4010   40.8320   36.8020 C.3   228  GLU228      0.1161
     66  CD        77.9210   40.7380   37.1360 C.2   228  GLU228      0.3649
     67  OE1       77.0790   40.4530   36.2570 O.co2 228  GLU228     -0.2457
     68  OE2       77.5780   41.0030   38.3000 O.co2 228  GLU228     -0.2457
     69  N         81.2840   40.3030   32.5890 N.am  229  GLU229     -0.1979
     70  CA        81.2550   39.5340   31.3460 C.3   229  GLU229      0.1602
     71  C         82.5380   39.7810   30.5900 C.2   229  GLU229      0.2287
     72  O         83.2990   40.7010   30.9060 O.2   229  GLU229     -0.2864
     73  CB        80.0090   39.8560   30.5080 C.3   229  GLU229      0.0415
     74  CG        78.6790   39.7130   31.2500 C.3   229  GLU229      0.1163
     75  CD        78.3910   38.3040   31.7500 C.2   229  GLU229      0.3649
     76  OE1       78.8460   37.2910   31.1360 O.co2 229  GLU229     -0.2457
     77  OE2       77.6800   38.2090   32.7730 O.co2 229  GLU229     -0.2457
     78  N         69.4590   46.1430   28.0300 N.3   258  GLU258     -0.1245
     79  CA        70.3190   46.9660   28.8560 C.3   258  GLU258      0.1567
     80  C         69.5910   48.2490   29.2430 C.2   258  GLU258      0.2260
     81  O         69.6670   48.6760   30.3730 O.2   258  GLU258     -0.2867
     82  CB        71.6370   47.2670   28.1500 C.3   258  GLU258      0.0388
     83  CG        72.6440   48.0100   28.9900 C.3   258  GLU258      0.1160
     84  CD        73.0030   47.2100   30.2410 C.2   258  GLU258      0.3649
     85  OE1       73.2790   45.9910   30.1400 O.co2 258  GLU258     -0.2457
     86  OE2       73.0130   47.7970   31.3280 O.co2 258  GLU258     -0.2457
     87  N         67.2950   47.6710   32.1860 N.3   261  TYR261     -0.1241
     88  CA        67.8550   47.1590   33.4320 C.3   261  TYR261      0.1605
     89  C         67.5280   48.0120   34.6680 C.2   261  TYR261      0.2264
     90  O         67.1290   47.4760   35.6820 O.2   261  TYR261     -0.2867
     91  CB        69.3690   46.9310   33.2710 C.3   261  TYR261      0.0534
     92  CG        70.0650   46.4730   34.5140 C.ar  261  TYR261     -0.0201
     93  CD1       69.8420   45.1920   35.0330 C.ar  261  TYR261     -0.0009
     94  CD2       70.9470   47.3250   35.1860 C.ar  261  TYR261     -0.0009
     95  CE1       70.4770   44.7590   36.1890 C.ar  261  TYR261      0.0417
     96  CE2       71.5880   46.9070   36.3400 C.ar  261  TYR261      0.0417
     97  CZ        71.3550   45.6280   36.8380 C.ar  261  TYR261      0.1957
     98  OH        72.0020   45.2280   37.9800 O.3   261  TYR261     -0.2866
     99  N         63.8850   47.3970   35.3740 N.3   264  GLU264     -0.1245
    100  CA        63.7800   46.0480   35.9510 C.3   264  GLU264      0.1567
    101  C         64.1590   46.0720   37.4430 C.2   264  GLU264      0.2260
    102  O         63.5200   45.4250   38.2830 O.2   264  GLU264     -0.2867
    103  CB        64.6600   45.0460   35.1950 C.3   264  GLU264      0.0388
    104  CG        64.5880   43.6450   35.7850 C.3   264  GLU264      0.1160
    105  CD        65.3540   42.5670   35.0340 C.2   264  GLU264      0.3649
    106  OE1       66.2720   41.8780   35.5860 O.co2 264  GLU264     -0.2457
    107  OE2       64.9780   42.3510   33.8910 O.co2 264  GLU264     -0.2457
@<TRIPOS>BOND
     1    45    46    1
     2    33    34    1
     3    46    47    1
     4    46    49    1
     5    35    36    2
     6    35    34    1
     7    47    48    2
     8    78    79    1
     9    34    37    1
    10    82    79    1
    11    82    83    1
    12    49    50    1
    13    79    80    1
    14    83    84    1
    15    80    81    2
    16    37    38    1
    17    50    51    1
    18    38    40   ar
    19    38    39   ar
    20    40    42   ar
    21    85    84   ar
    22    84    86   ar
    23    39    41   ar
    24     1     2    1
    25    54    55    1
    26    73    74    1
    27    73    70    1
    28    71    72    2
    29    71    70    1
    30    42    43   ar
    31    53    51   ar
    32    41    43   ar
    33     9    10    1
    34    51    52   ar
    35    43    44    1
    36    76    75   ar
    37    10    11    1
    38    10    13    1
    39     3     2    1
    40     3     4    2
    41    74    75    1
    42    70    69    1
    43     2     5    1
    44    75    77   ar
    45    11    12    2
    46    55    58    1
    47    55    56    1
    48    57    56    2
    49    87    88    1
    50    13    14    1
    51    58    59    1
    52    69    62   am
    53     5     6    1
    54    91    88    1
    55    91    92    1
    56    26    25    2
    57    88    89    1
    58     7     6   ar
    59    25    24    1
    60    62    63    2
    61    62    61    1
    62   107   105   ar
    63    27    24    1
    64    27    28    1
    65     6     8   ar
    66    24    23    1
    67    15    16    1
    68    92    93   ar
    69    92    94   ar
    70    29    28   ar
    71    29    31   ar
    72    23    17   am
    73    89    90    2
    74    60    61    1
    75    28    30   ar
    76    61    64    1
    77    93    95   ar
    78   105   106   ar
    79   105   104    1
    80    94    96   ar
    81   103   104    1
    82   103   100    1
    83    21    20    2
    84    99   100    1
    85    64    65    1
    86    31    32   ar
    87    17    16    1
    88    17    18    2
    89    16    19    1
    90   100   101    1
    91    95    97   ar
    92    30    32   ar
    93    67    66   ar
    94    96    97   ar
    95    20    19    1
    96    20    22   am
    97    65    66    1
    98    97    98    1
    99    66    68   ar
   100   101   102    2
