@<TRIPOS>MOLECULE
tmp/5iqeB01.pdb
 168 158 0 0 0
SMALL
GASTEIGER

@<TRIPOS>ATOM
      1  N         44.2120   -3.3510   26.5760 N.3    35  ASP35      -0.1239
      2  CA        45.3480   -2.5760   27.0790 C.3    35  ASP35       0.1674
      3  C         45.2470   -1.0750   26.8430 C.2    35  ASP35       0.2266
      4  O         46.2350   -0.3660   26.7860 O.2    35  ASP35      -0.2867
      5  CB        46.6500   -3.1480   26.5390 C.3    35  ASP35       0.1410
      6  CG        46.5620   -3.4360   25.0700 C.2    35  ASP35       0.3668
      7  OD1       46.1270   -2.5110   24.3260 O.co2  35  ASP35      -0.2456
      8  OD2       46.9100   -4.5820   24.6860 O.co2  35  ASP35      -0.2456
      9  N         42.6050    1.4620    8.6490 N.3   190  ASN190     -0.1225
     10  CA        43.1350    0.1510    9.0110 C.3   190  ASN190      0.1785
     11  C         42.4580   -0.5010   10.2190 C.2   190  ASN190      0.2597
     12  O         42.9380   -1.4990   10.7360 O.2   190  ASN190     -0.2718
     13  CB        44.6600    0.1760    9.1640 C.3   190  ASN190      0.1169
     14  CG        45.3000   -1.2110    9.1000 C.2   190  ASN190      0.2627
     15  OD1       44.8390   -2.1070    8.3930 O.2   190  ASN190     -0.2716
     16  ND2       46.3780   -1.3930    9.8730 N.am  190  ASN190     -0.0877
     17  N         41.2810   -0.0190   10.5770 N.am  191  ASP191     -0.1974
     18  CA        40.4240   -0.7190   11.5360 C.3   191  ASP191      0.1709
     19  C         39.0130   -0.2230   11.2640 C.2   191  ASP191      0.2293
     20  O         38.2820    0.2130   12.1640 O.2   191  ASP191     -0.2864
     21  CB        40.8480   -0.3670   12.9370 C.3   191  ASP191      0.1436
     22  CG        40.3960   -1.3770   13.9490 C.2   191  ASP191      0.3671
     23  OD1       39.6890   -2.3400   13.5890 O.co2 191  ASP191     -0.2456
     24  OD2       40.7240   -1.2100   15.1440 O.co2 191  ASP191     -0.2456
     25  N         35.7700   -0.5680   10.8600 N.3   193  SER193     -0.1217
     26  CA        34.6020   -1.3700   11.1670 C.3   193  SER193      0.1889
     27  C         33.4720   -0.4590   11.5700 C.2   193  SER193      0.2288
     28  O         33.6990    0.7000   11.8720 O.2   193  SER193     -0.2866
     29  CB        34.9550   -2.3140   12.3150 C.3   193  SER193      0.2089
     30  OG        35.6410   -1.6140   13.3500 O.3   193  SER193     -0.2183
     31  N         31.7850   -0.1650   14.3260 N.3   195  ASN195     -0.1225
     32  CA        31.8730    0.4310   15.6670 C.3   195  ASN195      0.1785
     33  C         32.7970    1.6610   15.7200 C.2   195  ASN195      0.2597
     34  O         33.0210    2.2250   16.7740 O.2   195  ASN195     -0.2718
     35  CB        32.3260   -0.6180   16.6800 C.3   195  ASN195      0.1169
     36  CG        33.7680   -1.0290   16.4660 C.2   195  ASN195      0.2627
     37  OD1       34.2010   -1.2340   15.3330 O.2   195  ASN195     -0.2716
     38  ND2       34.5020   -1.1610   17.5190 N.am  195  ASN195     -0.0877
     39  N         33.3810    2.0490   14.5860 N.am  196  HIS196     -0.1975
     40  CA        34.1000    3.3160   14.5400 C.3   196  HIS196      0.1656
     41  C         33.4340    4.3610   13.6320 C.2   196  HIS196      0.2291
     42  O         34.0250    5.3930   13.3700 O.2   196  HIS196     -0.2864
     43  CB        35.5100    3.0820   14.0700 C.3   196  HIS196      0.0771
     44  CG        36.3290    2.3010   15.0180 C.ar  196  HIS196      0.0820
     45  ND1       37.2780    1.4120   14.5930 N.ar  196  HIS196     -0.2267
     46  CD2       36.3330    2.2540   16.3690 C.ar  196  HIS196      0.1154
     47  CE1       37.8720    0.8800   15.6390 C.ar  196  HIS196      0.1986
     48  NE2       37.3000    1.3620   16.7300 N.ar  196  HIS196     -0.2212
     49  N         45.3170    2.4240   14.4000 N.3   213  ASP213     -0.1239
     50  CA        46.0830    1.4310   13.6790 C.3   213  ASP213      0.1674
     51  C         46.4310    1.9240   12.2900 C.2   213  ASP213      0.2266
     52  O         46.9660    1.1800   11.4890 O.2   213  ASP213     -0.2867
     53  CB        45.3010    0.1160   13.6250 C.3   213  ASP213      0.1410
     54  CG        45.2230   -0.5840   14.9740 C.2   213  ASP213      0.3668
     55  OD1       46.0480   -0.3200   15.8710 O.co2 213  ASP213     -0.2456
     56  OD2       44.3260   -1.4110   15.1620 O.co2 213  ASP213     -0.2456
     57  N         36.5350   -5.1340    6.9170 N.3   225  TYR225     -0.1241
     58  CA        35.3940   -5.2910    7.8340 C.3   225  TYR225      0.1605
     59  C         34.0980   -4.9660    7.1230 C.2   225  TYR225      0.2264
     60  O         33.0500   -5.5480    7.4050 O.2   225  TYR225     -0.2867
     61  CB        35.5690   -4.4450    9.1140 C.3   225  TYR225      0.0534
     62  CG        36.8190   -4.8530    9.8110 C.ar  225  TYR225     -0.0201
     63  CD1       36.9420   -6.1200   10.3150 C.ar  225  TYR225     -0.0009
     64  CD2       37.8980   -4.0140    9.9000 C.ar  225  TYR225     -0.0009
     65  CE1       38.1060   -6.5460   10.9400 C.ar  225  TYR225      0.0417
     66  CE2       39.0620   -4.4090   10.5170 C.ar  225  TYR225      0.0417
     67  CZ        39.1730   -5.6950   11.0290 C.ar  225  TYR225      0.1957
     68  OH        40.3380   -6.1270   11.6620 O.3   225  TYR225     -0.2866
     69  N         33.1110   -8.1990    5.8360 N.3   228  GLU228     -0.1245
     70  CA        32.9730   -9.2790    6.8040 C.3   228  GLU228      0.1567
     71  C         31.5150   -9.7040    7.0010 C.2   228  GLU228      0.2260
     72  O         30.5920   -8.8760    7.0660 O.2   228  GLU228     -0.2867
     73  CB        33.6140   -8.8680    8.1250 C.3   228  GLU228      0.0388
     74  CG        33.4440   -9.8650    9.2690 C.3   228  GLU228      0.1160
     75  CD        34.2020   -9.4290   10.5150 C.2   228  GLU228      0.3649
     76  OE1       33.5530   -9.0250   11.5110 O.co2 228  GLU228     -0.2457
     77  OE2       35.4530   -9.4530   10.4800 O.co2 228  GLU228     -0.2457
     78  N         29.4450  -11.3430    9.7880 N.3   230  SER230     -0.1217
     79  CA        29.4590  -11.6390   11.2310 C.3   230  SER230      0.1889
     80  C         28.3900  -10.8470   11.9490 C.2   230  SER230      0.2288
     81  O         27.8010   -9.9310   11.3830 O.2   230  SER230     -0.2866
     82  CB        30.8280  -11.3240   11.8590 C.3   230  SER230      0.2089
     83  OG        31.1030   -9.9280   11.8530 O.3   230  SER230     -0.2183
     84  N         28.7950   -8.6650   14.2810 N.3   232  GLU232     -0.1231
     85  CA        29.2510   -7.2960   14.5220 C.3   232  GLU232      0.1699
     86  C         29.2140   -6.3820   13.2990 C.2   232  GLU232      0.2592
     87  O         29.1850   -5.1600   13.4460 O.2   232  GLU232     -0.2718
     88  CB        30.6840   -7.3110   15.0160 C.3   232  GLU232      0.0402
     89  CG        30.8910   -7.8430   16.4150 C.3   232  GLU232      0.1161
     90  CD        32.3410   -8.1720   16.6970 C.2   232  GLU232      0.3649
     91  OE1       33.2450   -7.6120   16.0210 O.co2 232  GLU232     -0.2457
     92  OE2       32.5780   -8.9880   17.6230 O.co2 232  GLU232     -0.2457
     93  N         29.2630   -6.9540   12.1000 N.am  233  GLU233     -0.1979
     94  CA        29.3170   -6.1410   10.8820 C.3   233  GLU233      0.1602
     95  C         28.0640   -6.3350   10.0330 C.2   233  GLU233      0.2287
     96  O         27.2430   -7.2130   10.3100 O.2   233  GLU233     -0.2864
     97  CB        30.5740   -6.4360   10.0480 C.3   233  GLU233      0.0415
     98  CG        31.8910   -6.3380   10.8070 C.3   233  GLU233      0.1163
     99  CD        32.2080   -4.9490   11.3770 C.2   233  GLU233      0.3649
    100  OE1       31.8950   -3.9120   10.7310 O.co2 233  GLU233     -0.2457
    101  OE2       32.8280   -4.9150   12.4640 O.co2 233  GLU233     -0.2457
    102  N         43.2210  -12.4330    6.3080 N.3   261  VAL261     -0.1231
    103  CA        43.1900  -11.8240    7.6130 C.3   261  VAL261      0.1692
    104  C         42.3070  -12.6220    8.5620 C.2   261  VAL261      0.2591
    105  O         42.6590  -12.8510    9.7190 O.2   261  VAL261     -0.2718
    106  CB        42.7090  -10.3840    7.4970 C.3   261  VAL261      0.0266
    107  CG1       42.3480   -9.8310    8.8620 C.3   261  VAL261      0.0020
    108  CG2       43.7750   -9.5320    6.8110 C.3   261  VAL261      0.0020
    109  N         41.1730  -13.0910    8.0690 N.am  262  GLU262     -0.1979
    110  CA        40.2710  -13.9170    8.8930 C.3   262  GLU262      0.1602
    111  C         40.9460  -15.2350    9.2460 C.2   262  GLU262      0.2287
    112  O         40.8810  -15.6770   10.3900 O.2   262  GLU262     -0.2864
    113  CB        38.9450  -14.1560    8.1500 C.3   262  GLU262      0.0415
    114  CG        37.8300  -14.8440    8.9440 C.3   262  GLU262      0.1163
    115  CD        37.2730  -13.9950   10.0900 C.2   262  GLU262      0.3649
    116  OE1       37.8410  -14.0570   11.2300 O.co2 262  GLU262     -0.2457
    117  OE2       36.2310  -13.2920    9.8650 O.co2 262  GLU262     -0.2457
    118  N         43.3070  -14.8690   12.3020 N.3   265  TYR265     -0.1241
    119  CA        42.8090  -14.4000   13.5920 C.3   265  TYR265      0.1605
    120  C         43.1860  -15.2620   14.8160 C.2   265  TYR265      0.2264
    121  O         43.6620  -14.7520   15.8100 O.2   265  TYR265     -0.2867
    122  CB        41.3050  -14.1770   13.4800 C.3   265  TYR265      0.0534
    123  CG        40.5680  -13.9060   14.7600 C.ar  265  TYR265     -0.0201
    124  CD1       40.7660  -12.7280   15.4540 C.ar  265  TYR265     -0.0009
    125  CD2       39.6420  -14.8230   15.2610 C.ar  265  TYR265     -0.0009
    126  CE1       40.0760  -12.4820   16.6340 C.ar  265  TYR265      0.0417
    127  CE2       38.9330  -14.5790   16.4260 C.ar  265  TYR265      0.0417
    128  CZ        39.1540  -13.4090   17.1060 C.ar  265  TYR265      0.1957
    129  OH        38.4520  -13.1740   18.2610 O.3   265  TYR265     -0.2866
    130  N         46.8970  -14.8540   15.5780 N.3   268  GLU268     -0.1231
    131  CA        47.0800  -13.5400   16.1620 C.3   268  GLU268      0.1699
    132  C         46.7070  -13.5250   17.6350 C.2   268  GLU268      0.2592
    133  O         47.3830  -12.9030   18.4720 O.2   268  GLU268     -0.2718
    134  CB        46.2190  -12.5310   15.4190 C.3   268  GLU268      0.0402
    135  CG        46.6700  -11.1080   15.6560 C.3   268  GLU268      0.1161
    136  CD        45.6320  -10.1000   15.2330 C.2   268  GLU268      0.3649
    137  OE1       44.4100  -10.4190   15.2750 O.co2 268  GLU268     -0.2457
    138  OE2       46.0480   -8.9710   14.8830 O.co2 268  GLU268     -0.2457
    139  N         45.6130  -14.2150   17.9370 N.am  269  THR269     -0.1953
    140  CA        45.1250  -14.3300   19.3010 C.3   269  THR269      0.1897
    141  C         46.1810  -15.0230   20.1750 C.2   269  THR269      0.2313
    142  O         46.4790  -14.5660   21.2790 O.2   269  THR269     -0.2863
    143  CB        43.7600  -15.0510   19.3550 C.3   269  THR269      0.1794
    144  OG1       42.7530  -14.2700   18.6730 O.3   269  THR269     -0.2208
    145  CG2       43.3210  -15.2280   20.7860 C.3   269  THR269      0.0378
    146  N         49.2320  -12.8150   20.7900 N.3   272  TYR272     -0.1241
    147  CA        48.9590  -11.7440   21.7300 C.3   272  TYR272      0.1605
    148  C         49.1330  -12.3150   23.1400 C.2   272  TYR272      0.2264
    149  O         49.7340  -11.6850   24.0010 O.2   272  TYR272     -0.2867
    150  CB        47.5500  -11.2210   21.5310 C.3   272  TYR272      0.0534
    151  CG        47.1360  -10.1790   22.5290 C.ar  272  TYR272     -0.0201
    152  CD1       47.3390   -8.8350   22.2670 C.ar  272  TYR272     -0.0009
    153  CD2       46.5130  -10.5280   23.7350 C.ar  272  TYR272     -0.0009
    154  CE1       46.9540   -7.8520   23.1740 C.ar  272  TYR272      0.0417
    155  CE2       46.1350   -9.5570   24.6500 C.ar  272  TYR272      0.0417
    156  CZ        46.3510   -8.2200   24.3670 C.ar  272  TYR272      0.1957
    157  OH        45.9560   -7.2360   25.2640 O.3   272  TYR272     -0.2866
    158  N         37.5610  -24.3470   14.0230 N.3   292  ARG292     -0.1245
    159  CA        37.6070  -24.1130   12.6010 C.3   292  ARG292      0.1563
    160  C         37.8870  -25.4230   11.8820 C.2   292  ARG292      0.2260
    161  O         37.3220  -25.6870   10.8270 O.2   292  ARG292     -0.2867
    162  CB        38.6330  -23.0100   12.2680 C.3   292  ARG292      0.0307
    163  CG        38.1340  -21.5650   12.4870 C.3   292  ARG292      0.0489
    164  CD        39.2390  -20.5170   12.6840 C.3   292  ARG292      0.2205
    165  NE        38.7460  -19.1360   12.8190 N.pl3 292  ARG292     -0.0865
    166  CZ        38.9050  -18.1340   11.9610 C.cat 292  ARG292      0.5346
    167  NH1       39.5060  -18.3030   10.7950 N.pl3 292  ARG292      0.1354
    168  NH2       38.4150  -16.9360   12.2670 N.pl3 292  ARG292      0.1354
@<TRIPOS>BOND
     1    69    70    1
     2   102   103    1
     3    70    71    1
     4    70    73    1
     5   108   106    1
     6    57    58    1
     7    71    72    2
     8    59    60    2
     9    59    58    1
    10   106   103    1
    11   106   107    1
    12   103   104    1
    13    58    61    1
    14   109   104   am
    15   109   110    1
    16    73    74    1
    17   113   110    1
    18   113   114    1
    19    15    14    2
    20   104   105    2
    21     9    10    1
    22   110   111    1
    23   114   115    1
    24    10    13    1
    25    10    11    1
    26    14    13    1
    27    14    16   am
    28    61    62    1
    29   111   112    2
    30    74    75    1
    31    78    79    1
    32    62    64   ar
    33    62    63   ar
    34   117   115   ar
    35    64    66   ar
    36    95    96    2
    37    95    94    1
    38    97    98    1
    39    97    94    1
    40   115   116   ar
    41    11    17   am
    42    11    12    2
    43    63    65   ar
    44    77    75   ar
    45    75    76   ar
    46    66    67   ar
    47    17    18    1
    48   100    99   ar
    49   167   166    1
    50    98    99    1
    51   161   160    2
    52    25    26    1
    53    94    93    1
    54    65    67   ar
    55    67    68    1
    56    26    27    1
    57    26    29    1
    58    79    82    1
    59    79    80    1
    60    19    18    1
    61    19    20    2
    62    99   101   ar
    63    81    80    2
    64    52    51    2
    65    18    21    1
    66    27    28    2
    67    83    82    1
    68   160   159    1
    69   166   168    1
    70   166   165    2
    71    93    86   am
    72   162   163    1
    73   162   159    1
    74    51    50    1
    75   118   119    1
    76    29    30    1
    77   163   164    1
    78   159   158    1
    79   164   165    1
    80    21    22    1
    81    86    87    2
    82    86    85    1
    83    42    41    2
    84   122   119    1
    85   122   123    1
    86    23    22   ar
    87   119   120    1
    88    53    50    1
    89    53    54    1
    90    41    40    1
    91    50    49    1
    92    22    24   ar
    93    43    40    1
    94    43    44    1
    95    84    85    1
    96    31    32    1
    97    85    88    1
    98    40    39    1
    99    39    33   am
   100    45    44   ar
   101    45    47   ar
   102   123   125   ar
   103   123   124   ar
   104   120   121    2
   105   138   136   ar
   106    54    56   ar
   107    54    55   ar
   108    88    89    1
   109    44    46   ar
   110   136   137   ar
   111   136   135    1
   112   125   127   ar
   113    37    36    2
   114   134   135    1
   115   134   131    1
   116   124   126   ar
   117   130   131    1
   118    47    48   ar
   119    32    33    1
   120    32    35    1
   121    33    34    2
   122    91    90   ar
   123   131   132    1
   124    46    48   ar
   125    89    90    1
   126   127   128   ar
   127    36    35    1
   128    36    38   am
   129   126   128   ar
   130    90    92   ar
   131   128   129    1
   132   132   139   am
   133   132   133    2
   134   139   140    1
   135   144   143    1
   136   140   143    1
   137   140   141    1
   138   143   145    1
   139   141   142    2
   140   146   147    1
   141   150   147    1
   142   150   151    1
   143   147   148    1
   144   152   151   ar
   145   152   154   ar
   146   151   153   ar
   147   148   149    2
   148   154   156   ar
   149   153   155   ar
   150     7     6   ar
   151   156   155   ar
   152   156   157    1
   153     8     6   ar
   154     6     5    1
   155     5     2    1
   156     1     2    1
   157     4     3    2
   158     3     2    1
