@<TRIPOS>MOLECULE
tmp/5iqfD00.pdb
 185 177 0 0 0
SMALL
GASTEIGER

@<TRIPOS>ATOM
      1  N         78.0120   27.9150   48.5680 N.3    31  ILE31      -0.1231
      2  CA        79.0940   28.1400   47.6180 C.3    31  ILE31       0.1692
      3  C         78.8440   29.3090   46.6700 C.2    31  ILE31       0.2593
      4  O         79.7510   29.7430   45.9630 O.2    31  ILE31      -0.2718
      5  CB        79.4920   26.8780   46.8500 C.3    31  ILE31       0.0266
      6  CG1       78.3020   26.2280   46.1860 C.3    31  ILE31       0.0019
      7  CG2       80.1780   25.9100   47.8010 C.3    31  ILE31       0.0020
      8  CD1       78.0410   26.7550   44.8050 C.3    31  ILE31       0.0001
      9  N         77.6220   29.8200   46.6670 N.am   32  GLY32      -0.1942
     10  CA        77.3210   31.0220   45.9020 C.3    32  GLY32       0.2014
     11  C         75.8790   31.4360   45.9980 C.2    32  GLY32       0.2640
     12  O         75.0230   30.7080   46.5440 O.2    32  GLY32      -0.2714
     13  N         75.6190   32.6170   45.4660 N.am   33  SER33      -0.1935
     14  CA        74.2510   33.0750   45.3250 C.3    33  SER33       0.2055
     15  C         74.1490   34.0930   44.2000 C.2    33  SER33       0.2644
     16  O         75.1000   34.7740   43.8750 O.2    33  SER33      -0.2714
     17  CB        73.7320   33.6980   46.6230 C.3    33  SER33       0.2130
     18  OG        74.3840   34.9110   46.8660 O.3    33  SER33      -0.2179
     19  N         72.9740   34.1450   43.6060 N.am   34  GLY34      -0.1939
     20  CA        72.6570   35.1710   42.6270 C.3    34  GLY34       0.2014
     21  C         71.5970   36.1140   43.1470 C.2    34  GLY34       0.2639
     22  O         71.3940   36.1990   44.3620 O.2    34  GLY34      -0.2714
     23  N         70.9330   36.8000   42.2170 N.am   35  TYR35      -0.1959
     24  CA        69.7520   37.6140   42.5020 C.3    35  TYR35       0.1771
     25  C         68.4730   36.8160   42.6790 C.2    35  TYR35       0.2620
     26  O         67.4670   37.3880   43.0730 O.2    35  TYR35      -0.2715
     27  CB        69.5410   38.6600   41.4250 C.3    35  TYR35       0.0574
     28  CG        70.6290   39.6720   41.4270 C.ar   35  TYR35      -0.0198
     29  CD1       70.7520   40.5870   42.4810 C.ar   35  TYR35      -0.0009
     30  CD2       71.5610   39.7230   40.4030 C.ar   35  TYR35      -0.0009
     31  CE1       71.7640   41.5410   42.5000 C.ar   35  TYR35       0.0417
     32  CE2       72.5780   40.6630   40.4110 C.ar   35  TYR35       0.0417
     33  CZ        72.6810   41.5650   41.4530 C.ar   35  TYR35       0.1957
     34  OH        73.6910   42.4990   41.4210 O.3    35  TYR35      -0.2866
     35  N         68.5050   35.5140   42.3950 N.am   36  ASP36      -0.1957
     36  CA        67.3290   34.6600   42.5510 C.3    36  ASP36       0.1840
     37  C         67.4830   33.5760   43.5880 C.2    36  ASP36       0.2622
     38  O         66.5190   33.2710   44.2580 O.2    36  ASP36      -0.2715
     39  CB        66.9250   33.9960   41.2380 C.3    36  ASP36       0.1450
     40  CG        66.4220   34.9890   40.2140 C.2    36  ASP36       0.3671
     41  OD1       65.6140   35.8670   40.5510 O.co2  36  ASP36      -0.2456
     42  OD2       66.7930   34.8850   39.0220 O.co2  36  ASP36      -0.2456
     43  N         68.6820   33.0090   43.7470 N.am   37  SER37      -0.1950
     44  CA        68.8440   31.8060   44.5270 C.3    37  SER37       0.1924
     45  C         70.0980   31.8270   45.3660 C.2    37  SER37       0.2314
     46  O         70.9950   32.7190   45.2510 O.2    37  SER37      -0.2863
     47  CB        68.8020   30.6160   43.5600 C.3    37  SER37       0.2116
     48  OG        67.6300   30.6210   42.7390 O.3    37  SER37      -0.2180
     49  N         72.8650   28.9360   46.5720 N.3    39  ALA39      -0.1245
     50  CA        73.3530   27.6090   46.1970 C.3    39  ALA39       0.1562
     51  C         74.2550   26.9860   47.2430 C.2    39  ALA39       0.2260
     52  O         75.2200   27.5910   47.6930 O.2    39  ALA39      -0.2867
     53  CB        74.0910   27.7060   44.8780 C.3    39  ALA39       0.0290
     54  N         74.8870   20.2110   44.1450 N.3    47  ILE47      -0.1245
     55  CA        74.3950   21.5770   44.3170 C.3    47  ILE47       0.1561
     56  C         72.9250   21.5010   44.6170 C.2    47  ILE47       0.2260
     57  O         72.1660   20.7890   43.9400 O.2    47  ILE47      -0.2867
     58  CB        74.5470   22.4300   43.0650 C.3    47  ILE47       0.0252
     59  CG1       76.0280   22.6480   42.7280 C.3    47  ILE47       0.0019
     60  CG2       73.8590   23.7780   43.2510 C.3    47  ILE47       0.0019
     61  CD1       76.7770   23.4770   43.7500 C.3    47  ILE47       0.0001
     62  N         70.0630   24.2940   45.1070 N.3    49  LYS49      -0.1245
     63  CA        69.8220   25.6740   44.7730 C.3    49  LYS49       0.1561
     64  C         68.4400   25.9020   45.4210 C.2    49  LYS49       0.2260
     65  O         67.5150   25.1330   45.1430 O.2    49  LYS49      -0.2867
     66  CB        69.7410   25.6790   43.2290 C.3    49  LYS49       0.0271
     67  CG        69.7650   26.9850   42.5600 C.3    49  LYS49       0.0035
     68  CD        69.6770   26.8180   41.0460 C.3    49  LYS49       0.0206
     69  CE        68.9020   27.9670   40.4420 C.3    49  LYS49       0.1093
     70  NZ        69.4440   28.3760   39.1310 N.3    49  LYS49      -0.1314
     71  N         71.1630   18.9520   41.8310 N.3    97  TYR97      -0.1241
     72  CA        71.8720   18.3060   40.7450 C.3    97  TYR97       0.1605
     73  C         73.3170   18.2060   41.1120 C.2    97  TYR97       0.2264
     74  O         73.7730   18.9030   42.0140 O.2    97  TYR97      -0.2867
     75  CB        71.7500   19.1240   39.4610 C.3    97  TYR97       0.0534
     76  CG        72.1240   20.5920   39.6180 C.ar   97  TYR97      -0.0201
     77  CD1       71.1670   21.5320   39.9710 C.ar   97  TYR97      -0.0009
     78  CD2       73.4180   21.0480   39.3810 C.ar   97  TYR97      -0.0009
     79  CE1       71.4870   22.8910   40.0990 C.ar   97  TYR97       0.0417
     80  CE2       73.7540   22.3920   39.5330 C.ar   97  TYR97       0.0417
     81  CZ        72.7910   23.3020   39.8890 C.ar   97  TYR97       0.1957
     82  OH        73.0700   24.6280   39.9660 O.3    97  TYR97      -0.2866
     83  N         77.1070   18.7770   41.1950 N.3    99  GLU99      -0.1231
     84  CA        77.9160   19.9430   40.9770 C.3    99  GLU99       0.1699
     85  C         78.6350   19.7860   39.6480 C.2    99  GLU99       0.2592
     86  O         79.1990   18.7500   39.3390 O.2    99  GLU99      -0.2718
     87  CB        78.9520   20.1020   42.0640 C.3    99  GLU99       0.0402
     88  CG        79.8050   21.3680   41.9530 C.3    99  GLU99       0.1161
     89  CD        81.1000   21.3060   42.7630 C.2    99  GLU99       0.3649
     90  OE1       81.5050   20.2150   43.2070 O.co2  99  GLU99      -0.2457
     91  OE2       81.7240   22.3610   42.9350 O.co2  99  GLU99      -0.2457
     92  N         78.5780   20.8350   38.8530 N.am  100  ILE100     -0.1966
     93  CA        79.4400   20.9260   37.6900 C.3   100  ILE100      0.1727
     94  C         80.7400   21.5140   38.1490 C.2   100  ILE100      0.2616
     95  O         80.7680   22.6170   38.7090 O.2   100  ILE100     -0.2715
     96  CB        78.8220   21.7630   36.5780 C.3   100  ILE100      0.0290
     97  CG1       77.4900   21.1130   36.1730 C.3   100  ILE100      0.0022
     98  CG2       79.7740   21.8570   35.3900 C.3   100  ILE100      0.0023
     99  CD1       76.7530   21.8540   35.0950 C.3   100  ILE100      0.0001
    100  N         81.8120   20.7650   37.9040 N.am  101  LYS101     -0.1963
    101  CA        83.1280   21.1290   38.3910 C.3   101  LYS101      0.1728
    102  C         83.9520   21.9150   37.3760 C.2   101  LYS101      0.2616
    103  O         83.8210   21.7390   36.1790 O.2   101  LYS101     -0.2715
    104  CB        83.8770   19.8880   38.8280 C.3   101  LYS101      0.0311
    105  CG        83.0820   19.0300   39.8000 C.3   101  LYS101      0.0038
    106  CD        83.9360   18.4990   40.9490 C.3   101  LYS101      0.0206
    107  CE        83.0570   17.7860   41.9610 C.3   101  LYS101      0.1093
    108  NZ        83.3780   18.1730   43.3640 N.3   101  LYS101     -0.1314
    109  N         84.7800   22.8090   37.8740 N.am  102  GLY102     -0.1955
    110  CA        85.6300   23.5960   37.0150 C.3   102  GLY102      0.1869
    111  C         85.8360   24.9670   37.5890 C.2   102  GLY102      0.2309
    112  O         85.5300   25.2250   38.7450 O.2   102  GLY102     -0.2863
    113  N         85.4050   29.1530   36.9940 N.3   104  PHE104     -0.1241
    114  CA        84.5750   30.1250   36.3320 C.3   104  PHE104      0.1605
    115  C         85.4580   31.0650   35.5300 C.2   104  PHE104      0.2264
    116  O         86.4760   31.5400   36.0140 O.2   104  PHE104     -0.2867
    117  CB        83.6980   30.8680   37.3280 C.3   104  PHE104      0.0534
    118  CG        82.4870   30.0640   37.7720 C.ar  104  PHE104     -0.0203
    119  CD1       81.4690   29.7740   36.8820 C.ar  104  PHE104     -0.0042
    120  CD2       82.3790   29.6000   39.1000 C.ar  104  PHE104     -0.0042
    121  CE1       80.3580   29.0390   37.2830 C.ar  104  PHE104     -0.0003
    122  CE2       81.2790   28.8570   39.5030 C.ar  104  PHE104     -0.0003
    123  CZ        80.2590   28.5820   38.5900 C.ar  104  PHE104     -0.0000
    124  N         70.9500   34.4470   30.2130 N.3   197  ASP197     -0.1239
    125  CA        71.7340   35.0630   31.3050 C.3   197  ASP197      0.1674
    126  C         73.1780   34.6660   31.1270 C.2   197  ASP197      0.2266
    127  O         73.8450   34.1780   32.0390 O.2   197  ASP197     -0.2867
    128  CB        71.1910   34.6410   32.7090 C.3   197  ASP197      0.1410
    129  CG        71.6460   35.5540   33.8130 C.2   197  ASP197      0.3668
    130  OD1       72.2250   36.6330   33.5220 O.co2 197  ASP197     -0.2456
    131  OD2       71.4070   35.2330   34.9920 O.co2 197  ASP197     -0.2456
    132  N         80.3160   34.5200   34.3780 N.3   201  ASN201     -0.1225
    133  CA        80.1920   33.8610   35.6900 C.3   201  ASN201      0.1785
    134  C         79.2680   32.6090   35.7080 C.2   201  ASN201      0.2597
    135  O         79.0950   31.9920   36.7440 O.2   201  ASN201     -0.2718
    136  CB        79.7560   34.8400   36.7610 C.3   201  ASN201      0.1169
    137  CG        78.2810   35.1260   36.6860 C.2   201  ASN201      0.2627
    138  OD1       77.7880   35.5690   35.6600 O.2   201  ASN201     -0.2716
    139  ND2       77.5570   34.8400   37.7520 N.am  201  ASN201     -0.0877
    140  N         78.6750   32.2520   34.5720 N.am  202  HIS202     -0.1975
    141  CA        78.0180   30.9720   34.4140 C.3   202  HIS202      0.1656
    142  C         78.7650   29.9940   33.5170 C.2   202  HIS202      0.2291
    143  O         78.2780   28.9140   33.2410 O.2   202  HIS202     -0.2864
    144  CB        76.6190   31.1810   33.8480 C.3   202  HIS202      0.0771
    145  CG        75.6980   31.8850   34.7990 C.ar  202  HIS202      0.0820
    146  ND1       74.7670   32.8070   34.3820 N.ar  202  HIS202     -0.2267
    147  CD2       75.6020   31.8330   36.1430 C.ar  202  HIS202      0.1154
    148  CE1       74.1170   33.2710   35.4310 C.ar  202  HIS202      0.1986
    149  NE2       74.6360   32.7280   36.5130 N.ar  202  HIS202     -0.2212
    150  N         82.0420   27.5770   32.8990 N.3   204  LEU204     -0.1245
    151  CA        83.0670   26.8220   33.5860 C.3   204  LEU204      0.1561
    152  C         84.1070   26.2570   32.6360 C.2   204  LEU204      0.2260
    153  O         83.7820   25.6950   31.6050 O.2   204  LEU204     -0.2867
    154  CB        82.4250   25.7010   34.3890 C.3   204  LEU204      0.0270
    155  CG        81.6870   26.1960   35.6490 C.3   204  LEU204      0.0019
    156  CD1       80.6460   25.2070   36.1210 C.3   204  LEU204      0.0001
    157  CD2       82.6710   26.4280   36.7860 C.3   204  LEU204      0.0001
    158  N         76.0060   26.7980   33.7320 N.3   215  ILE215     -0.1231
    159  CA        74.9960   26.7470   34.7740 C.3   215  ILE215      0.1692
    160  C         73.9370   27.8410   34.6280 C.2   215  ILE215      0.2592
    161  O         74.0440   28.6920   33.7600 O.2   215  ILE215     -0.2718
    162  CB        75.6210   26.8820   36.1530 C.3   215  ILE215      0.0266
    163  CG1       76.3360   28.2350   36.3010 C.3   215  ILE215      0.0019
    164  CG2       76.5550   25.7180   36.3910 C.3   215  ILE215      0.0020
    165  CD1       76.7630   28.4880   37.7170 C.3   215  ILE215      0.0001
    166  N         72.9530   27.7920   35.5240 N.am  216  ASP216     -0.1974
    167  CA        71.9100   28.8310   35.6840 C.3   216  ASP216      0.1709
    168  C         71.1080   29.1090   34.4160 C.2   216  ASP216      0.2293
    169  O         71.2270   30.1720   33.8230 O.2   216  ASP216     -0.2864
    170  CB        72.4840   30.1290   36.2280 C.3   216  ASP216      0.1436
    171  CG        71.4100   31.0940   36.7170 C.2   216  ASP216      0.3671
    172  OD1       70.2220   30.7890   36.6090 O.co2 216  ASP216     -0.2456
    173  OD2       71.7590   32.1800   37.2390 O.co2 216  ASP216     -0.2456
    174  N         68.1180   29.4360   34.7050 N.3   218  GLY218     -0.1210
    175  CA        66.9530   29.9370   35.4270 C.3   218  GLY218      0.1956
    176  C         66.1710   31.0290   34.7470 C.2   218  GLY218      0.2611
    177  O         65.0110   31.2550   35.1050 O.2   218  GLY218     -0.2717
    178  N         66.7610   31.6930   33.7630 N.am  219  ASP219     -0.1973
    179  CA        66.0240   32.6720   32.9990 C.3   219  ASP219      0.1709
    180  C         65.7970   32.2160   31.5380 C.2   219  ASP219      0.2293
    181  O         65.3890   33.0060   30.7340 O.2   219  ASP219     -0.2864
    182  CB        66.7470   34.0240   32.9630 C.3   219  ASP219      0.1436
    183  CG        66.8580   34.7100   34.3140 C.2   219  ASP219      0.3671
    184  OD1       66.3710   34.1900   35.3460 O.co2 219  ASP219     -0.2456
    185  OD2       67.4800   35.7930   34.3410 O.co2 219  ASP219     -0.2456
@<TRIPOS>BOND
     1   124   125    1
     2   181   180    2
     3   126   125    1
     4   126   127    2
     5   125   128    1
     6   180   179    1
     7   153   152    2
     8   152   151    1
     9   128   129    1
    10   150   151    1
    11   182   179    1
    12   182   183    1
    13   179   178    1
    14   143   142    2
    15   142   141    1
    16   130   129   ar
    17   151   154    1
    18   158   159    1
    19   161   160    2
    20   178   176   am
    21   129   131   ar
    22   169   168    2
    23   144   141    1
    24   144   145    1
    25   183   185   ar
    26   183   184   ar
    27   132   133    1
    28   146   145   ar
    29   146   148   ar
    30   154   155    1
    31   141   140    1
    32   168   167    1
    33   140   134   am
    34   160   159    1
    35   160   166   am
    36   174   175    1
    37   176   177    2
    38   176   175    1
    39   159   162    1
    40   145   147   ar
    41    99    97    1
    42    98    96    1
    43   148   149   ar
    44   166   167    1
    45   115   116    2
    46   115   114    1
    47   155   156    1
    48   155   157    1
    49   138   137    2
    50   167   170    1
    51   133   134    1
    52   133   136    1
    53   134   135    2
    54   147   149   ar
    55   162   163    1
    56   162   164    1
    57    97    96    1
    58   103   102    2
    59   170   171    1
    60   163   165    1
    61   114   113    1
    62   114   117    1
    63    96    93    1
    64   172   171   ar
    65   137   136    1
    66   137   139   am
    67   171   173   ar
    68   119   121   ar
    69   119   118   ar
    70   110   111    1
    71   110   109    1
    72   121   123   ar
    73   117   118    1
    74   102   109   am
    75   102   101    1
    76   111   112    2
    77    93    94    1
    78    93    92    1
    79   118   120   ar
    80   100    94   am
    81   100   101    1
    82    94    95    2
    83   101   104    1
    84   123   122   ar
    85   104   105    1
    86    92    85   am
    87    42    40   ar
    88   120   122   ar
    89    70    69    1
    90    86    85    2
    91    78    80   ar
    92    78    76   ar
    93    75    76    1
    94    75    72    1
    95    80    81   ar
    96    76    77   ar
    97    85    84    1
    98   105   106    1
    99    81    82    1
   100    81    79   ar
   101    77    79   ar
   102    40    41   ar
   103    40    39    1
   104    30    32   ar
   105    30    28   ar
   106    32    33   ar
   107    69    68    1
   108    72    73    1
   109    72    71    1
   110   106   107    1
   111    84    83    1
   112    84    87    1
   113    68    67    1
   114    73    74    2
   115    39    36    1
   116    34    33    1
   117    27    28    1
   118    27    24    1
   119    28    29   ar
   120    33    31   ar
   121    88    87    1
   122    88    89    1
   123   107   108    1
   124    23    24    1
   125    23    21   am
   126    35    36    1
   127    35    25   am
   128    29    31   ar
   129    24    25    1
   130    36    37    1
   131    67    66    1
   132    20    21    1
   133    20    19    1
   134    25    26    2
   135    59    58    1
   136    59    61    1
   137    48    47    1
   138    89    91   ar
   139    89    90   ar
   140    58    60    1
   141    58    55    1
   142    21    22    2
   143    66    63    1
   144    47    44    1
   145    37    43   am
   146    37    38    2
   147    19    15   am
   148    43    44    1
   149    16    15    2
   150    57    56    2
   151    54    55    1
   152    15    14    1
   153    55    56    1
   154    44    45    1
   155    63    62    1
   156    63    64    1
   157     8     6    1
   158    53    50    1
   159    65    64    2
   160    46    45    2
   161    14    13    1
   162    14    17    1
   163    13    11   am
   164    10    11    1
   165    10     9    1
   166     4     3    2
   167    11    12    2
   168     6     5    1
   169    50    49    1
   170    50    51    1
   171    17    18    1
   172     9     3   am
   173     3     2    1
   174     5     2    1
   175     5     7    1
   176    51    52    2
   177     2     1    1
