@<TRIPOS>MOLECULE
tmp/5iqgC01.pdb
 138 130 0 0 0
SMALL
GASTEIGER

@<TRIPOS>ATOM
      1  N         66.0380   29.4110   87.1460 N.3   187  ASN187     -0.1225
      2  CA        67.3640   28.8120   86.9620 C.3   187  ASN187      0.1785
      3  C         68.1750   29.3590   85.7970 C.2   187  ASN187      0.2597
      4  O         69.1900   28.7810   85.4510 O.2   187  ASN187     -0.2718
      5  CB        67.2710   27.3030   86.8430 C.3   187  ASN187      0.1169
      6  CG        68.5820   26.6110   87.1420 C.2   187  ASN187      0.2627
      7  OD1       69.3350   26.9920   88.0540 O.2   187  ASN187     -0.2716
      8  ND2       68.8350   25.5400   86.4200 N.am  187  ASN187     -0.0877
      9  N         67.7800   30.4880   85.2520 N.am  188  ASP188     -0.1974
     10  CA        68.6160   31.2420   84.3210 C.3   188  ASP188      0.1709
     11  C         68.1810   32.7070   84.4040 C.2   188  ASP188      0.2293
     12  O         67.8900   33.3660   83.4100 O.2   188  ASP188     -0.2864
     13  CB        68.4280   30.6950   82.9300 C.3   188  ASP188      0.1436
     14  CG        69.5260   31.1460   81.9230 C.2   188  ASP188      0.3671
     15  OD1       70.5760   31.6900   82.3190 O.co2 188  ASP188     -0.2456
     16  OD2       69.3200   30.8910   80.7120 O.co2 188  ASP188     -0.2456
     17  N         68.5230   36.0480   84.6290 N.3   190  SER190     -0.1217
     18  CA        69.4470   37.1440   84.3240 C.3   190  SER190      0.1889
     19  C         68.6700   38.2470   83.6960 C.2   190  SER190      0.2288
     20  O         67.5240   38.0660   83.2720 O.2   190  SER190     -0.2866
     21  CB        70.5140   36.6540   83.3890 C.3   190  SER190      0.2089
     22  OG        69.9320   35.8120   82.4010 O.3   190  SER190     -0.2183
     23  N         68.6620   39.8290   80.8890 N.3   192  ASN192     -0.1225
     24  CA        68.1910   39.6190   79.5020 C.3   192  ASN192      0.1785
     25  C         66.9400   38.7280   79.3680 C.2   192  ASN192      0.2597
     26  O         66.4550   38.4650   78.2620 O.2   192  ASN192     -0.2718
     27  CB        69.2860   39.0010   78.6490 C.3   192  ASN192      0.1169
     28  CG        69.6110   37.5900   79.0850 C.2   192  ASN192      0.2627
     29  OD1       69.6900   37.3130   80.2890 O.2   192  ASN192     -0.2716
     30  ND2       69.7620   36.6800   78.1410 N.am  192  ASN192     -0.0877
     31  N         66.4160   38.2030   80.4820 N.am  193  HIS193     -0.1975
     32  CA        65.1530   37.5220   80.4570 C.3   193  HIS193      0.1656
     33  C         64.0620   38.2720   81.1660 C.2   193  HIS193      0.2291
     34  O         62.9640   37.7530   81.3400 O.2   193  HIS193     -0.2864
     35  CB        65.2880   36.1460   81.0480 C.3   193  HIS193      0.0771
     36  CG        66.1570   35.2500   80.2290 C.ar  193  HIS193      0.0820
     37  ND1       67.0190   34.3380   80.7930 N.ar  193  HIS193     -0.2267
     38  CD2       66.3360   35.1610   78.8880 C.ar  193  HIS193      0.1154
     39  CE1       67.6590   33.6980   79.8330 C.ar  193  HIS193      0.1986
     40  NE2       67.2690   34.1830   78.6660 N.ar  193  HIS193     -0.2212
     41  N         65.6240   26.2060   81.5040 N.3   210  ASP210     -0.1239
     42  CA        66.4830   25.4470   82.4180 C.3   210  ASP210      0.1674
     43  C         65.8440   25.2650   83.7760 C.2   210  ASP210      0.2266
     44  O         66.4960   24.8070   84.7570 O.2   210  ASP210     -0.2867
     45  CB        67.8290   26.1490   82.5510 C.3   210  ASP210      0.1410
     46  CG        68.6250   26.0570   81.2930 C.2   210  ASP210      0.3668
     47  OD1       68.8340   24.9250   80.8260 O.co2 210  ASP210     -0.2456
     48  OD2       68.9950   27.0960   80.7390 O.co2 210  ASP210     -0.2456
     49  N         71.8540   33.9160   91.4890 N.3   221  ILE221     -0.1231
     50  CA        73.2120   33.8290   90.9810 C.3   221  ILE221      0.1692
     51  C         73.4960   34.9480   89.9840 C.2   221  ILE221      0.2592
     52  O         74.6300   35.4460   90.0110 O.2   221  ILE221     -0.2718
     53  CB        73.6980   32.4380   90.5410 C.3   221  ILE221      0.0266
     54  CG1       73.0620   32.0100   89.2570 C.3   221  ILE221      0.0019
     55  CG2       73.4770   31.4180   91.6480 C.3   221  ILE221      0.0020
     56  CD1       73.6550   30.7220   88.7300 C.3   221  ILE221      0.0001
     57  N         72.5730   35.3110   89.0790 N.am  222  TYR222     -0.1976
     58  CA        72.8510   36.3730   88.1330 C.3   222  TYR222      0.1639
     59  C         72.5240   37.7520   88.7170 C.2   222  TYR222      0.2290
     60  O         73.2350   38.7410   88.4610 O.2   222  TYR222     -0.2864
     61  CB        72.1840   36.0860   86.7670 C.3   222  TYR222      0.0560
     62  CG        72.6640   34.7460   86.2740 C.ar  222  TYR222     -0.0198
     63  CD1       74.0320   34.5250   86.0400 C.ar  222  TYR222     -0.0009
     64  CD2       71.7940   33.6840   86.1340 C.ar  222  TYR222     -0.0009
     65  CE1       74.5010   33.2840   85.6470 C.ar  222  TYR222      0.0417
     66  CE2       72.2490   32.4390   85.7570 C.ar  222  TYR222      0.0417
     67  CZ        73.5960   32.2430   85.5150 C.ar  222  TYR222      0.1957
     68  OH        74.0240   31.0050   85.1360 O.3   222  TYR222     -0.2866
     69  N         75.5650   38.8950   90.3070 N.3   225  GLU225     -0.1245
     70  CA        76.7790   38.9120   89.4820 C.3   225  GLU225      0.1567
     71  C         77.2570   40.3400   89.1940 C.2   225  GLU225      0.2260
     72  O         76.4590   41.2650   88.9050 O.2   225  GLU225     -0.2867
     73  CB        76.4930   38.1940   88.1710 C.3   225  GLU225      0.0388
     74  CG        77.6500   38.0930   87.2040 C.3   225  GLU225      0.1160
     75  CD        77.2150   37.4240   85.9080 C.2   225  GLU225      0.3649
     76  OE1       76.8930   36.2090   85.9660 O.co2 225  GLU225     -0.2457
     77  OE2       77.1760   38.1270   84.8500 O.co2 225  GLU225     -0.2457
     78  N         79.1150   42.0350   86.5380 N.3   227  SER227     -0.1217
     79  CA        79.6040   41.9600   85.1510 C.3   227  SER227      0.1889
     80  C         78.9780   43.0670   84.3490 C.2   227  SER227      0.2288
     81  O         78.0930   43.7510   84.8180 O.2   227  SER227     -0.2866
     82  CB        79.2920   40.5950   84.5180 C.3   227  SER227      0.2089
     83  OG        77.9240   40.4970   84.1740 O.3   227  SER227     -0.2183
     84  N         77.1200   42.6540   81.8200 N.3   229  GLU229     -0.1231
     85  CA        75.7740   42.2030   81.4230 C.3   229  GLU229      0.1699
     86  C         74.7000   42.3500   82.4850 C.2   229  GLU229      0.2592
     87  O         73.5140   42.4340   82.1880 O.2   229  GLU229     -0.2718
     88  CB        75.7840   40.7000   81.0860 C.3   229  GLU229      0.0402
     89  CG        76.2830   40.3260   79.7070 C.3   229  GLU229      0.1161
     90  CD        76.4800   38.8260   79.5580 C.2   229  GLU229      0.3649
     91  OE1       75.7190   38.0310   80.1370 O.co2 229  GLU229     -0.2457
     92  OE2       77.4060   38.4310   78.8350 O.co2 229  GLU229     -0.2457
     93  N         75.1130   42.3290   83.7520 N.am  230  GLU230     -0.1979
     94  CA        74.1670   42.3030   84.8770 C.3   230  GLU230      0.1602
     95  C         74.2380   43.6280   85.6110 C.2   230  GLU230      0.2287
     96  O         75.1800   44.4100   85.4390 O.2   230  GLU230     -0.2864
     97  CB        74.4510   41.1220   85.8110 C.3   230  GLU230      0.0415
     98  CG        74.4200   39.7520   85.1370 C.3   230  GLU230      0.1163
     99  CD        73.0840   39.4030   84.4900 C.2   230  GLU230      0.3649
    100  OE1       72.0250   39.8780   84.9470 O.co2 230  GLU230     -0.2457
    101  OE2       73.1140   38.6680   83.4850 O.co2 230  GLU230     -0.2457
    102  N         79.3920   28.5030   91.5300 N.3   258  VAL258     -0.1231
    103  CA        78.9250   28.3490   90.1680 C.3   258  VAL258      0.1692
    104  C         79.8050   29.1040   89.2290 C.2   258  VAL258      0.2591
    105  O         80.1450   28.6230   88.1660 O.2   258  VAL258     -0.2718
    106  CB        77.4700   28.7880   90.0400 C.3   258  VAL258      0.0266
    107  CG1       77.0290   28.9070   88.6050 C.3   258  VAL258      0.0020
    108  CG2       76.6090   27.7650   90.7420 C.3   258  VAL258      0.0020
    109  N         80.2920   30.2770   89.6060 N.am  259  GLU259     -0.1979
    110  CA        81.1460   31.0930   88.7590 C.3   259  GLU259      0.1602
    111  C         82.4840   30.3960   88.5810 C.2   259  GLU259      0.2287
    112  O         83.0000   30.3460   87.5030 O.2   259  GLU259     -0.2864
    113  CB        81.3160   32.4860   89.3400 C.3   259  GLU259      0.0415
    114  CG        82.1520   33.3950   88.4560 C.3   259  GLU259      0.1163
    115  CD        81.4570   33.6960   87.1220 C.2   259  GLU259      0.3649
    116  OE1       81.9990   33.3310   86.0460 O.co2 259  GLU259     -0.2457
    117  OE2       80.3450   34.2840   87.1270 O.co2 259  GLU259     -0.2457
    118  N         82.3200   27.6310   85.9410 N.3   262  TYR262     -0.1241
    119  CA        81.9840   28.0060   84.5730 C.3   262  TYR262      0.1605
    120  C         82.9550   27.5500   83.4800 C.2   262  TYR262      0.2264
    121  O         82.5410   26.9980   82.4990 O.2   262  TYR262     -0.2867
    122  CB        81.7320   29.4910   84.5070 C.3   262  TYR262      0.0534
    123  CG        81.2290   30.0250   83.1800 C.ar  262  TYR262     -0.0201
    124  CD1       79.9980   29.6280   82.6740 C.ar  262  TYR262     -0.0009
    125  CD2       81.9490   30.9860   82.4790 C.ar  262  TYR262     -0.0009
    126  CE1       79.4980   30.1500   81.5030 C.ar  262  TYR262      0.0417
    127  CE2       81.4580   31.5110   81.3030 C.ar  262  TYR262      0.0417
    128  CZ        80.2340   31.0910   80.8250 C.ar  262  TYR262      0.1957
    129  OH        79.7290   31.6120   79.6620 O.3   262  TYR262     -0.2866
    130  N         82.5880   23.8420   83.0920 N.3   265  GLU265     -0.1245
    131  CA        81.3180   23.5970   82.4290 C.3   265  GLU265      0.1567
    132  C         81.4600   23.7950   80.9260 C.2   265  GLU265      0.2260
    133  O         80.8880   23.0640   80.1530 O.2   265  GLU265     -0.2867
    134  CB        80.2520   24.5570   82.9550 C.3   265  GLU265      0.0388
    135  CG        78.8380   24.1220   82.6040 C.3   265  GLU265      0.1160
    136  CD        77.8100   25.2400   82.7650 C.2   265  GLU265      0.3649
    137  OE1       78.1450   26.4210   82.6480 O.co2 265  GLU265     -0.2457
    138  OE2       76.6300   24.9410   82.9780 O.co2 265  GLU265     -0.2457
@<TRIPOS>BOND
     1    30    28   am
     2    26    25    2
     3    27    28    1
     4    27    24    1
     5    40    38   ar
     6    40    39   ar
     7    92    90   ar
     8    38    36   ar
     9    28    29    2
    10    25    24    1
    11    25    31   am
    12    24    23    1
    13    90    89    1
    14    90    91   ar
    15   129   128    1
    16    89    88    1
    17    39    37   ar
    18   133   132    2
    19    36    37   ar
    20    36    35    1
    21    32    31    1
    22    32    35    1
    23    32    33    1
    24    16    14   ar
    25    48    46   ar
    26   128   127   ar
    27   128   126   ar
    28    47    46   ar
    29   132   131    1
    30    88    85    1
    31    33    34    2
    32    46    45    1
    33   127   125   ar
    34    85    84    1
    35    85    86    1
    36   126   124   ar
    37    41    42    1
    38    14    15   ar
    39    14    13    1
    40    87    86    2
    41    22    21    1
    42    42    45    1
    43    42    43    1
    44   131   134    1
    45   131   130    1
    46   125   123   ar
    47    86    93   am
    48   121   120    2
    49   135   136    1
    50   135   134    1
    51   137   136   ar
    52   124   123   ar
    53   136   138   ar
    54    13    10    1
    55   123   122    1
    56    20    19    2
    57    21    18    1
    58    12    11    2
    59   120   119    1
    60   101    99   ar
    61    19    18    1
    62    93    94    1
    63    43    44    2
    64    83    82    1
    65    10    11    1
    66    10     9    1
    67    18    17    1
    68    80    81    2
    69    80    79    1
    70    99   100   ar
    71    99    98    1
    72   122   119    1
    73    82    79    1
    74   119   118    1
    75    77    75   ar
    76    94    95    1
    77    94    97    1
    78    68    67    1
    79    98    97    1
    80    79    78    1
    81     9     3   am
    82    96    95    2
    83     4     3    2
    84    67    65   ar
    85    67    66   ar
    86    65    63   ar
    87    66    64   ar
    88     3     2    1
    89    75    76   ar
    90    75    74    1
    91    63    62   ar
    92   116   115   ar
    93    64    62   ar
    94    62    61    1
    95     8     6   am
    96    61    58    1
    97     5     2    1
    98     5     6    1
    99     2     1    1
   100   115   117   ar
   101   115   114    1
   102     6     7    2
   103    74    73    1
   104   112   111    2
   105    58    59    1
   106    58    57    1
   107   105   104    2
   108    73    70    1
   109   114   113    1
   110    60    59    2
   111   111   110    1
   112   107   106    1
   113    56    54    1
   114   110   113    1
   115   110   109    1
   116    72    71    2
   117    57    51   am
   118    71    70    1
   119   104   109   am
   120   104   103    1
   121    54    53    1
   122    70    69    1
   123    51    52    2
   124    51    50    1
   125   106   103    1
   126   106   108    1
   127   103   102    1
   128    53    50    1
   129    53    55    1
   130    50    49    1
