@<TRIPOS>MOLECULE
tmp/5iqjA00.pdb
 79 76 0 0 0
SMALL
GASTEIGER

@<TRIPOS>ATOM
      1  N         17.5260   27.9760   73.8570 N.3    10  HIS10      -0.1226
      2  CA        18.6840   28.3600   73.0370 C.3    10  HIS10       0.1752
      3  C         18.4310   28.1510   71.5440 C.2    10  HIS10       0.2595
      4  O         18.5760   29.0880   70.7390 O.2    10  HIS10      -0.2718
      5  CB        19.8830   27.5240   73.4830 C.3    10  HIS10       0.0759
      6  CG        21.1550   27.8590   72.7990 C.ar   10  HIS10       0.0818
      7  ND1       22.1260   28.6230   73.3980 N.ar   10  HIS10      -0.2268
      8  CD2       21.6410   27.5090   71.5830 C.ar   10  HIS10       0.1154
      9  CE1       23.1510   28.7460   72.5750 C.ar   10  HIS10       0.1986
     10  NE2       22.8850   28.0740   71.4710 N.ar   10  HIS10      -0.2212
     11  N         18.0550   26.9330   71.1710 N.am   11  GLU11      -0.1979
     12  CA        17.7690   26.6410   69.7600 C.3    11  GLU11       0.1602
     13  C         16.5100   27.3610   69.2870 C.2    11  GLU11       0.2287
     14  O         16.4290   27.7600   68.1250 O.2    11  GLU11      -0.2864
     15  CB        17.6260   25.1250   69.4950 C.3    11  GLU11       0.0415
     16  CG        18.7930   24.2780   69.9870 C.3    11  GLU11       0.1163
     17  CD        20.1280   24.7430   69.4570 C.2    11  GLU11       0.3649
     18  OE1       20.1660   25.4080   68.3800 O.co2  11  GLU11      -0.2457
     19  OE2       21.1530   24.4500   70.1260 O.co2  11  GLU11      -0.2457
     20  N         17.4590   30.9910   68.4750 N.3    14  HIS14      -0.1241
     21  CA        18.1310   31.0230   67.1640 C.3    14  HIS14       0.1621
     22  C         17.1140   30.9790   66.0340 C.2    14  HIS14       0.2264
     23  O         17.1860   31.7680   65.0860 O.2    14  HIS14      -0.2867
     24  CB        19.0520   29.8220   66.9220 C.3    14  HIS14       0.0745
     25  CG        20.3610   29.8890   67.6230 C.ar   14  HIS14       0.0817
     26  ND1       21.2740   30.8960   67.3940 N.ar   14  HIS14      -0.2268
     27  CD2       20.9470   29.0420   68.4990 C.ar   14  HIS14       0.1154
     28  CE1       22.3390   30.7110   68.1530 C.ar   14  HIS14       0.1986
     29  NE2       22.1780   29.5750   68.8140 N.ar   14  HIS14      -0.2212
     30  N         18.6180   16.9010   72.1410 N.3    31  TYR31      -0.1241
     31  CA        19.0000   15.5060   72.4150 C.3    31  TYR31       0.1605
     32  C         20.0480   15.4190   73.5240 C.2    31  TYR31       0.2264
     33  O         20.7620   16.3830   73.8080 O.2    31  TYR31      -0.2867
     34  CB        19.4710   14.8330   71.1110 C.3    31  TYR31       0.0534
     35  CG        20.6450   15.5240   70.4520 C.ar   31  TYR31      -0.0201
     36  CD1       20.4760   16.6960   69.7160 C.ar   31  TYR31      -0.0009
     37  CD2       21.9260   15.0050   70.5650 C.ar   31  TYR31      -0.0009
     38  CE1       21.5590   17.3350   69.1250 C.ar   31  TYR31       0.0417
     39  CE2       23.0130   15.6320   69.9740 C.ar   31  TYR31       0.0417
     40  CZ        22.8260   16.7910   69.2620 C.ar   31  TYR31       0.1957
     41  OH        23.9120   17.3850   68.6740 O.3    31  TYR31      -0.2866
     42  N         21.7160   20.6560   71.3710 N.3    45  GLY45      -0.1210
     43  CA        20.6960   21.0900   70.4590 C.3    45  GLY45       0.1956
     44  C         21.3160   21.2700   69.0910 C.2    45  GLY45       0.2612
     45  O         22.5570   21.3740   68.9740 O.2    45  GLY45      -0.2717
     46  N         20.4560   21.3050   68.0750 N.am   46  LYS46      -0.1965
     47  CA        20.8600   21.5380   66.6890 C.3    46  LYS46       0.1728
     48  C         19.7290   22.3220   66.0100 C.2    46  LYS46       0.2616
     49  O         18.5430   21.9540   66.1280 O.2    46  LYS46      -0.2715
     50  CB        21.1110   20.2140   65.9570 C.3    46  LYS46       0.0311
     51  CG        21.5720   20.3260   64.5040 C.3    46  LYS46       0.0038
     52  CD        23.0190   20.7770   64.3840 C.3    46  LYS46       0.0206
     53  CE        23.4870   20.8630   62.9280 C.3    46  LYS46       0.1093
     54  NZ        23.0340   22.1160   62.2430 N.3    46  LYS46      -0.1314
     55  N         20.1150   23.4020   65.3180 N.am   47  ALA47      -0.1977
     56  CA        19.2010   24.2680   64.5770 C.3    47  ALA47       0.1597
     57  C         19.4600   24.0950   63.0700 C.2    47  ALA47       0.2287
     58  O         20.5550   23.6950   62.6710 O.2    47  ALA47      -0.2864
     59  CB        19.4150   25.7330   64.9870 C.3    47  ALA47       0.0319
     60  N         29.4670   28.1860   71.6990 N.3    93  SER93      -0.1217
     61  CA        29.9160   27.2670   70.6360 C.3    93  SER93       0.1889
     62  C         30.6930   27.9670   69.5350 C.2    93  SER93       0.2288
     63  O         30.4550   29.1320   69.2510 O.2    93  SER93      -0.2866
     64  CB        28.7270   26.5410   70.0010 C.3    93  SER93       0.2089
     65  OG        27.9000   27.4520   69.2850 O.3    93  SER93      -0.2183
     66  N         30.4250   27.4840   66.3680 N.3    95  SER95      -0.1202
     67  CA        29.5390   27.8160   65.2520 C.3    95  SER95       0.2020
     68  C         28.8080   29.1370   65.5210 C.2    95  SER95       0.2618
     69  O         28.6440   29.9280   64.6010 O.2    95  SER95      -0.2717
     70  CB        28.5740   26.6720   64.9200 C.3    95  SER95       0.2103
     71  OG        27.8770   26.2540   66.0680 O.3    95  SER95      -0.2182
     72  N         28.3880   29.3840   66.7690 N.am   96  ASP96      -0.1973
     73  CA        27.7850   30.6900   67.1110 C.3    96  ASP96       0.1709
     74  C         28.8370   31.7770   66.9310 C.2    96  ASP96       0.2293
     75  O         28.5500   32.8330   66.3750 O.2    96  ASP96      -0.2864
     76  CB        27.2150   30.7510   68.5440 C.3    96  ASP96       0.1436
     77  CG        25.9060   29.9650   68.7070 C.2    96  ASP96       0.3671
     78  OD1       25.3730   29.4440   67.7040 O.co2  96  ASP96      -0.2456
     79  OD2       25.4040   29.8940   69.8530 O.co2  96  ASP96      -0.2456
@<TRIPOS>BOND
     1    54    53    1
     2    58    57    2
     3    53    52    1
     4    57    56    1
     5    52    51    1
     6    51    50    1
     7    56    59    1
     8    56    55    1
     9    69    68    2
    10    70    67    1
    11    70    71    1
    12    23    22    2
    13    67    68    1
    14    67    66    1
    15    55    48   am
    16    68    72   am
    17    50    47    1
    18    48    49    2
    19    48    47    1
    20    22    21    1
    21    75    74    2
    22    47    46    1
    23    72    73    1
    24    24    21    1
    25    24    25    1
    26    74    73    1
    27    73    76    1
    28    21    20    1
    29    26    25   ar
    30    26    28   ar
    31    25    27   ar
    32    78    77   ar
    33    46    44   am
    34    14    13    2
    35    28    29   ar
    36    18    17   ar
    37    27    29   ar
    38    76    77    1
    39    41    40    1
    40    77    79   ar
    41    45    44    2
    42    44    43    1
    43    38    40   ar
    44    38    36   ar
    45    63    62    2
    46    40    39   ar
    47    65    64    1
    48    13    12    1
    49    17    16    1
    50    17    19   ar
    51    15    12    1
    52    15    16    1
    53    62    61    1
    54    36    35   ar
    55    12    11    1
    56    39    37   ar
    57    64    61    1
    58    35    37   ar
    59    35    34    1
    60    43    42    1
    61    61    60    1
    62     4     3    2
    63    34    31    1
    64    11     3   am
    65    10     8   ar
    66    10     9   ar
    67     3     2    1
    68     8     6   ar
    69    30    31    1
    70    31    32    1
    71     9     7   ar
    72     6     7   ar
    73     6     5    1
    74     2     5    1
    75     2     1    1
    76    32    33    2
