@<TRIPOS>MOLECULE
tmp/5iqnA00.pdb
 76 71 0 0 0
SMALL
GASTEIGER

@<TRIPOS>ATOM
      1  N         -4.4990    8.1890   37.4640 N.3    18  LEU18      -0.1231
      2  CA        -5.8770    8.5270   37.8080 C.3    18  LEU18       0.1693
      3  C         -5.8550    9.0970   39.2090 C.2    18  LEU18       0.2592
      4  O         -4.8750    8.8950   39.9570 O.2    18  LEU18      -0.2718
      5  CB        -6.7610    7.2880   37.7530 C.3    18  LEU18       0.0284
      6  CG        -6.6920    6.5250   36.4260 C.3    18  LEU18       0.0019
      7  CD1       -7.6130    5.3090   36.5100 C.3    18  LEU18       0.0001
      8  CD2       -7.0540    7.3810   35.2260 C.3    18  LEU18       0.0001
      9  N         -6.8980    9.7920   39.6140 N.am   19  TYR19      -0.1962
     10  CA        -6.9390   10.4840   40.9050 C.3    19  TYR19       0.1771
     11  C         -8.0870    9.9360   41.7310 C.2    19  TYR19       0.2620
     12  O         -9.2460   10.0010   41.3390 O.2    19  TYR19      -0.2715
     13  CB        -7.0590   12.0140   40.6870 C.3    19  TYR19       0.0574
     14  CG        -5.8500   12.5020   39.9860 C.ar   19  TYR19      -0.0198
     15  CD1       -4.6640   12.6840   40.6710 C.ar   19  TYR19      -0.0009
     16  CD2       -5.8340   12.6280   38.6040 C.ar   19  TYR19      -0.0009
     17  CE1       -3.4930   13.0120   40.0190 C.ar   19  TYR19       0.0417
     18  CE2       -4.6660   12.9650   37.9300 C.ar   19  TYR19       0.0417
     19  CZ        -3.4970   13.1550   38.6510 C.ar   19  TYR19       0.1957
     20  OH        -2.3510   13.4840   37.9930 O.3    19  TYR19      -0.2866
     21  N         -7.7510    9.4950   42.9420 N.am   20  SER20      -0.1950
     22  CA        -8.7690    9.0490   43.8790 C.3    20  SER20       0.1924
     23  C         -9.8120   10.1330   44.1420 C.2    20  SER20       0.2314
     24  O        -10.9800    9.8220   44.3190 O.2    20  SER20      -0.2863
     25  CB        -8.1530    8.5720   45.1870 C.3    20  SER20       0.2116
     26  OG        -7.5920    9.6360   45.8880 O.3    20  SER20      -0.2180
     27  N        -12.4740    9.6110   41.7470 N.3    23  LEU23      -0.1245
     28  CA       -12.9560    8.2330   41.7370 C.3    23  LEU23       0.1561
     29  C        -13.5490    7.9320   43.1260 C.2    23  LEU23       0.2260
     30  O        -13.4260    6.8360   43.6650 O.2    23  LEU23      -0.2867
     31  CB       -11.8200    7.2590   41.3790 C.3    23  LEU23       0.0270
     32  CG       -11.3270    7.3690   39.9360 C.3    23  LEU23       0.0019
     33  CD1      -10.0000    6.6490   39.7700 C.3    23  LEU23       0.0001
     34  CD2      -12.3450    6.8780   38.9490 C.3    23  LEU23       0.0001
     35  N         -4.5640   -0.6110   44.3600 N.3    69  ALA69      -0.1245
     36  CA        -5.6580    0.3440   44.5020 C.3    69  ALA69       0.1562
     37  C         -6.9590   -0.3950   44.7740 C.2    69  ALA69       0.2260
     38  O         -7.3050   -1.3160   44.0410 O.2    69  ALA69      -0.2867
     39  CB        -5.7890    1.1780   43.2470 C.3    69  ALA69       0.0290
     40  N        -11.2770   -0.3920   42.6040 N.3    72  ILE72      -0.1245
     41  CA       -11.0940   -0.2170   41.1690 C.3    72  ILE72       0.1561
     42  C        -11.2670   -1.5700   40.5360 C.2    72  ILE72       0.2260
     43  O        -10.7040   -2.5620   41.0160 O.2    72  ILE72      -0.2867
     44  CB        -9.6710    0.2980   40.8290 C.3    72  ILE72       0.0252
     45  CG1       -9.4450    1.7140   41.3550 C.3    72  ILE72       0.0019
     46  CG2       -9.4020    0.2260   39.3010 C.3    72  ILE72       0.0019
     47  CD1      -10.3270    2.7610   40.7090 C.3    72  ILE72       0.0001
     48  N        -12.4440    4.7460   45.7050 N.3   116  ALA116     -0.1231
     49  CA       -11.1790    4.1770   45.2730 C.3   116  ALA116      0.1694
     50  C        -10.0510    4.6750   46.1670 C.2   116  ALA116      0.2593
     51  O        -10.0460    5.8530   46.6020 O.2   116  ALA116     -0.2718
     52  CB       -10.9030    4.5490   43.8430 C.3   116  ALA116      0.0304
     53  N         -9.0440    3.8220   46.3710 N.am  117  THR117     -0.1939
     54  CA        -7.8780    4.2140   47.1440 C.3   117  THR117      0.2028
     55  C         -6.6290    4.2000   46.2540 C.2   117  THR117      0.2642
     56  O         -6.5680    3.5650   45.1930 O.2   117  THR117     -0.2714
     57  CB        -7.6440    3.3250   48.3530 C.3   117  THR117      0.1808
     58  OG1       -7.3350    1.9930   47.8980 O.3   117  THR117     -0.2208
     59  CG2       -8.8640    3.3170   49.2860 C.3   117  THR117      0.0379
     60  N         -5.6150    4.9470   46.7060 N.am  118  GLN118     -0.1976
     61  CA        -4.3490    5.0320   46.0050 C.3   118  GLN118      0.1601
     62  C         -3.7080    3.6590   45.8670 C.2   118  GLN118      0.2287
     63  O         -3.7890    2.8080   46.7210 O.2   118  GLN118     -0.2864
     64  CB        -3.4400    5.9990   46.6890 C.3   118  GLN118      0.0394
     65  CG        -2.9040    5.5590   47.9560 C.3   118  GLN118      0.0908
     66  CD        -1.8330    6.5170   48.4310 C.2   118  GLN118      0.2608
     67  OE1       -2.1350    7.6440   48.8330 O.2   118  GLN118     -0.2717
     68  NE2       -0.5760    6.0840   48.4000 N.am  118  GLN118     -0.0878
     69  N         -2.6950   -0.1560   39.5260 N.3   121  ILE121     -0.1245
     70  CA        -3.6750   -0.8500   38.7140 C.3   121  ILE121      0.1561
     71  C         -2.9340   -1.8230   37.8120 C.2   121  ILE121      0.2260
     72  O         -2.0160   -1.4160   37.0970 O.2   121  ILE121     -0.2867
     73  CB        -4.5220    0.1360   37.8480 C.3   121  ILE121      0.0252
     74  CG1       -5.2400    1.1460   38.7420 C.3   121  ILE121      0.0019
     75  CG2       -5.5010   -0.6510   36.9650 C.3   121  ILE121      0.0019
     76  CD1       -5.9110    2.2510   37.9630 C.3   121  ILE121      0.0001
@<TRIPOS>BOND
     1     8     6    1
     2     6     7    1
     3     6     5    1
     4    75    73    1
     5    72    71    2
     6     1     2    1
     7     5     2    1
     8     2     3    1
     9    71    70    1
    10    73    70    1
    11    73    74    1
    12    18    16   ar
    13    18    19   ar
    14    76    74    1
    15    20    19    1
    16    16    14   ar
    17    19    17   ar
    18    70    69    1
    19    34    32    1
    20     3     9   am
    21     3     4    2
    22    46    44    1
    23     9    10    1
    24    33    32    1
    25    32    31    1
    26    14    15   ar
    27    14    13    1
    28    17    15   ar
    29    42    43    2
    30    42    41    1
    31    13    10    1
    32    47    45    1
    33    44    41    1
    34    44    45    1
    35    10    11    1
    36    41    40    1
    37    12    11    2
    38    31    28    1
    39    11    21   am
    40    28    27    1
    41    28    29    1
    42    21    22    1
    43    29    30    2
    44    39    36    1
    45    52    49    1
    46    22    23    1
    47    22    25    1
    48    38    37    2
    49    23    24    2
    50    35    36    1
    51    36    37    1
    52    25    26    1
    53    56    55    2
    54    49    48    1
    55    49    50    1
    56    62    61    1
    57    62    63    2
    58    61    64    1
    59    61    60    1
    60    50    53   am
    61    50    51    2
    62    55    60   am
    63    55    54    1
    64    53    54    1
    65    64    65    1
    66    54    57    1
    67    58    57    1
    68    65    66    1
    69    57    59    1
    70    68    66   am
    71    66    67    2
