@<TRIPOS>MOLECULE
tmp/5iquA01.pdb
 114 107 0 0 0
SMALL
GASTEIGER

@<TRIPOS>ATOM
      1  N         -4.3710  -26.1640   17.5540 N.3    64  ASN64      -0.1240
      2  CA        -3.5260  -27.0480   18.3670 C.3    64  ASN64       0.1653
      3  C         -4.3270  -27.7810   19.4480 C.2    64  ASN64       0.2266
      4  O         -4.0750  -27.6410   20.6500 O.2    64  ASN64      -0.2867
      5  CB        -2.3570  -26.2620   18.9650 C.3    64  ASN64       0.1155
      6  CG        -1.3930  -25.7660   17.9040 C.2    64  ASN64       0.2627
      7  OD1       -1.1970  -24.5620   17.7360 O.2    64  ASN64      -0.2716
      8  ND2       -0.7980  -26.6950   17.1670 N.am   64  ASN64      -0.0877
      9  N         -2.6150  -30.8650   21.7850 N.3    67  PHE67      -0.1241
     10  CA        -1.5150  -30.5190   22.6880 C.3    67  PHE67       0.1605
     11  C         -2.0600  -29.6040   23.7910 C.2    67  PHE67       0.2264
     12  O         -1.5430  -28.5140   24.0280 O.2    67  PHE67      -0.2867
     13  CB        -0.3840  -29.8340   21.9060 C.3    67  PHE67       0.0534
     14  CG        -0.0540  -30.5040   20.5960 C.ar   67  PHE67      -0.0203
     15  CD1        0.8230  -31.5800   20.5480 C.ar   67  PHE67      -0.0042
     16  CD2       -0.6210  -30.0520   19.4080 C.ar   67  PHE67      -0.0042
     17  CE1        1.1270  -32.1940   19.3420 C.ar   67  PHE67      -0.0003
     18  CE2       -0.3190  -30.6610   18.2000 C.ar   67  PHE67      -0.0003
     19  CZ         0.5560  -31.7330   18.1670 C.ar   67  PHE67      -0.0000
     20  N         -1.1990  -26.1250   27.6000 N.3    70  LYS70      -0.1231
     21  CA         0.0780  -25.4040   27.7040 C.3    70  LYS70       0.1693
     22  C          0.7230  -25.0970   26.3410 C.2    70  LYS70       0.2592
     23  O          1.9490  -25.1030   26.1850 O.2    70  LYS70      -0.2718
     24  CB         1.0320  -26.1470   28.6370 C.3    70  LYS70       0.0285
     25  CG         0.4760  -26.2940   30.0450 C.3    70  LYS70       0.0035
     26  CD         1.5760  -26.4410   31.0830 C.3    70  LYS70       0.0206
     27  CE         2.1800  -27.8370   31.0720 C.3    70  LYS70       0.1093
     28  NZ         1.2820  -28.8400   31.7130 N.3    70  LYS70      -0.1314
     29  N         -0.1400  -24.8010   25.3730 N.am   71  VAL71      -0.1966
     30  CA         0.2470  -24.2970   24.0650 C.3    71  VAL71       0.1727
     31  C         -0.8260  -23.2720   23.6820 C.2    71  VAL71       0.2616
     32  O         -1.8770  -23.1900   24.3280 O.2    71  VAL71      -0.2715
     33  CB         0.3270  -25.4480   23.0300 C.3    71  VAL71       0.0290
     34  CG1       -1.0640  -25.8830   22.5750 C.3    71  VAL71       0.0023
     35  CG2        1.1830  -25.0660   21.8310 C.3    71  VAL71       0.0023
     36  N         -0.5770  -22.5040   22.6320 N.am   72  ALA72      -0.1977
     37  CA        -1.4820  -21.4450   22.2200 C.3    72  ALA72       0.1597
     38  C         -2.0660  -21.7740   20.8540 C.2    72  ALA72       0.2287
     39  O         -1.4850  -22.5480   20.0890 O.2    72  ALA72      -0.2864
     40  CB        -0.7410  -20.1160   22.1750 C.3    72  ALA72       0.0319
     41  N         -2.6150  -20.4850   17.1480 N.3    74  ILE74      -0.1245
     42  CA        -1.6760  -19.6570   16.4040 C.3    74  ILE74       0.1561
     43  C         -2.1140  -19.4070   14.9600 C.2    74  ILE74       0.2260
     44  O         -2.4040  -20.3420   14.2130 O.2    74  ILE74      -0.2867
     45  CB        -0.2430  -20.2420   16.4760 C.3    74  ILE74       0.0252
     46  CG1        0.7380  -19.3730   15.6890 C.3    74  ILE74       0.0019
     47  CG2       -0.2050  -21.6840   15.9830 C.3    74  ILE74       0.0019
     48  CD1        2.1800  -19.6150   16.0750 C.3    74  ILE74       0.0001
     49  N          4.1090  -21.8610   12.1240 N.3    78  ALA78      -0.1231
     50  CA         5.3860  -21.5620   12.7680 C.3    78  ALA78       0.1694
     51  C          6.4240  -22.6020   12.3640 C.2    78  ALA78       0.2591
     52  O          6.0810  -23.7480   12.0680 O.2    78  ALA78      -0.2718
     53  CB         5.2270  -21.5290   14.2790 C.3    78  ALA78       0.0304
     54  N          7.6920  -22.1970   12.3640 N.am   79  ILE79      -0.1980
     55  CA         8.7800  -23.0510   11.8940 C.3    79  ILE79       0.1595
     56  C          9.4380  -23.7920   13.0600 C.2    79  ILE79       0.2287
     57  O          8.7620  -24.4330   13.8690 O.2    79  ILE79      -0.2864
     58  CB         9.8210  -22.2220   11.1000 C.3    79  ILE79       0.0276
     59  CG1       10.5570  -23.1000   10.0860 C.3    79  ILE79       0.0022
     60  CG2       10.8050  -21.5180   12.0290 C.3    79  ILE79       0.0022
     61  CD1       11.2450  -22.3110    8.9940 C.3    79  ILE79       0.0001
     62  N         -0.3490  -15.2720   18.3270 N.3   135  ARG135     -0.1245
     63  CA        -0.5700  -16.2980   19.3360 C.3   135  ARG135      0.1563
     64  C         -1.7800  -15.9110   20.1850 C.2   135  ARG135      0.2260
     65  O         -1.8910  -14.7750   20.6450 O.2   135  ARG135     -0.2867
     66  CB         0.6650  -16.4520   20.2310 C.3   135  ARG135      0.0307
     67  CG         1.9190  -16.9330   19.5100 C.3   135  ARG135      0.0489
     68  CD         2.6230  -15.8040   18.7750 C.3   135  ARG135      0.2205
     69  NE         3.7510  -16.2800   17.9790 N.pl3 135  ARG135     -0.0865
     70  CZ         5.0410  -16.0980   18.2660 C.cat 135  ARG135      0.5346
     71  NH1        5.4230  -15.4360   19.3570 N.pl3 135  ARG135      0.1354
     72  NH2        5.9660  -16.5870   17.4410 N.pl3 135  ARG135      0.1354
     73  N          1.6360  -20.9480   28.0700 N.3   143  ILE143     -0.1231
     74  CA         2.6690  -21.5110   27.2190 C.3   143  ILE143      0.1692
     75  C          3.7100  -22.1220   28.1480 C.2   143  ILE143      0.2591
     76  O          4.2880  -21.4260   28.9790 O.2   143  ILE143     -0.2718
     77  CB         3.2890  -20.4560   26.2810 C.3   143  ILE143      0.0266
     78  CG1        2.2400  -19.9680   25.2770 C.3   143  ILE143      0.0019
     79  CG2        4.4830  -21.0380   25.5350 C.3   143  ILE143      0.0020
     80  CD1        2.6760  -18.7840   24.4380 C.3   143  ILE143      0.0001
     81  N          3.9190  -23.4300   28.0100 N.am  144  ALA144     -0.1980
     82  CA         4.8360  -24.1770   28.8700 C.3   144  ALA144      0.1597
     83  C          6.2650  -23.6560   28.7480 C.2   144  ALA144      0.2287
     84  O          6.6580  -23.1150   27.7110 O.2   144  ALA144     -0.2864
     85  CB         4.7900  -25.6610   28.5300 C.3   144  ALA144      0.0319
     86  N         10.0400  -23.1870   28.0290 N.3   146  HIS146     -0.1241
     87  CA        10.8200  -23.6610   26.8980 C.3   146  HIS146      0.1621
     88  C         11.9590  -22.7150   26.5540 C.2   146  HIS146      0.2264
     89  O         12.0510  -21.6120   27.0870 O.2   146  HIS146     -0.2867
     90  CB         9.9130  -23.8130   25.6760 C.3   146  HIS146      0.0745
     91  CG         9.3340  -22.5210   25.1930 C.ar  146  HIS146      0.0817
     92  ND1        8.3290  -21.8580   25.8650 N.ar  146  HIS146     -0.2268
     93  CD2        9.6170  -21.7700   24.1030 C.ar  146  HIS146      0.1154
     94  CE1        8.0170  -20.7550   25.2110 C.ar  146  HIS146      0.1986
     95  NE2        8.7850  -20.6780   24.1380 N.ar  146  HIS146     -0.2212
     96  N         14.0220  -21.3300   22.8600 N.3   148  ASP148     -0.1239
     97  CA        13.8850  -21.2770   21.3990 C.3   148  ASP148      0.1674
     98  C         15.2150  -21.5400   20.6770 C.2   148  ASP148      0.2266
     99  O         15.6640  -20.7450   19.8490 O.2   148  ASP148     -0.2867
    100  CB        13.2900  -19.9320   20.9830 C.3   148  ASP148      0.1410
    101  CG        11.8840  -19.7370   21.5100 C.2   148  ASP148      0.3668
    102  OD1       11.0190  -20.5720   21.1820 O.co2 148  ASP148     -0.2456
    103  OD2       11.6400  -18.7540   22.2470 O.co2 148  ASP148     -0.2456
    104  N         10.8680  -14.0430   15.6780 N.3   253  PHE253     -0.1241
    105  CA        12.2720  -14.1220   16.0570 C.3   253  PHE253      0.1605
    106  C         13.0880  -13.1730   15.1940 C.2   253  PHE253      0.2264
    107  O         12.5740  -12.5930   14.2300 O.2   253  PHE253     -0.2867
    108  CB        12.7890  -15.5520   15.8920 C.3   253  PHE253      0.0534
    109  CG        11.9280  -16.5810   16.5660 C.ar  253  PHE253     -0.0203
    110  CD1       11.9900  -16.7650   17.9440 C.ar  253  PHE253     -0.0042
    111  CD2       11.0350  -17.3490   15.8300 C.ar  253  PHE253     -0.0042
    112  CE1       11.1890  -17.7040   18.5720 C.ar  253  PHE253     -0.0003
    113  CE2       10.2290  -18.2910   16.4510 C.ar  253  PHE253     -0.0003
    114  CZ        10.3050  -18.4680   17.8270 C.ar  253  PHE253     -0.0000
@<TRIPOS>BOND
     1    61    59    1
     2    59    58    1
     3    58    55    1
     4    58    60    1
     5    55    54    1
     6    55    56    1
     7    52    51    2
     8    49    50    1
     9    51    54   am
    10    51    50    1
    11    50    53    1
    12    56    57    2
    13    44    43    2
    14   107   106    2
    15    43    42    1
    16   106   105    1
    17   104   105    1
    18    46    48    1
    19    46    45    1
    20   111   113   ar
    21   111   109   ar
    22   108   105    1
    23   108   109    1
    24    47    45    1
    25    42    45    1
    26    42    41    1
    27   113   114   ar
    28   109   110   ar
    29     8     6   am
    30    72    70    1
    31     1     2    1
    32     7     6    2
    33   114   112   ar
    34     6     5    1
    35   110   112   ar
    36    69    70    2
    37    69    68    1
    38    19    18   ar
    39    19    17   ar
    40    18    16   ar
    41    70    71    1
    42    62    63    1
    43     2     5    1
    44     2     3    1
    45    68    67    1
    46    63    64    1
    47    63    66    1
    48    17    15   ar
    49    16    14   ar
    50     3     4    2
    51    67    66    1
    52    99    98    2
    53    39    38    2
    54    64    65    2
    55    15    14   ar
    56    14    13    1
    57    98    97    1
    58    38    37    1
    59   100    97    1
    60   100   101    1
    61   102   101   ar
    62    97    96    1
    63   101   103   ar
    64     9    10    1
    65    35    33    1
    66    13    10    1
    67    40    37    1
    68    37    36    1
    69    34    33    1
    70    36    31   am
    71    10    11    1
    72    33    30    1
    73    31    30    1
    74    31    32    2
    75    11    12    2
    76    30    29    1
    77    93    95   ar
    78    93    91   ar
    79    95    94   ar
    80    80    78    1
    81    91    90    1
    82    91    92   ar
    83    94    92   ar
    84    78    77    1
    85    29    22   am
    86    79    77    1
    87    90    87    1
    88    23    22    2
    89    77    74    1
    90    22    21    1
    91    88    87    1
    92    88    89    2
    93    87    86    1
    94    74    73    1
    95    74    75    1
    96    20    21    1
    97    21    24    1
    98    84    83    2
    99    81    75   am
   100    81    82    1
   101    75    76    2
   102    85    82    1
   103    24    25    1
   104    83    82    1
   105    25    26    1
   106    27    26    1
   107    27    28    1
