@<TRIPOS>MOLECULE
tmp/5iquA00.pdb
 135 129 0 0 0
SMALL
GASTEIGER

@<TRIPOS>ATOM
      1  N         -0.3490  -15.2720   18.3270 N.3   135  ARG135     -0.1245
      2  CA        -0.5700  -16.2980   19.3360 C.3   135  ARG135      0.1563
      3  C         -1.7800  -15.9110   20.1850 C.2   135  ARG135      0.2260
      4  O         -1.8910  -14.7750   20.6450 O.2   135  ARG135     -0.2867
      5  CB         0.6650  -16.4520   20.2310 C.3   135  ARG135      0.0307
      6  CG         1.9190  -16.9330   19.5100 C.3   135  ARG135      0.0489
      7  CD         2.6230  -15.8040   18.7750 C.3   135  ARG135      0.2205
      8  NE         3.7510  -16.2800   17.9790 N.pl3 135  ARG135     -0.0865
      9  CZ         5.0410  -16.0980   18.2660 C.cat 135  ARG135      0.5346
     10  NH1        5.4230  -15.4360   19.3570 N.pl3 135  ARG135      0.1354
     11  NH2        5.9660  -16.5870   17.4410 N.pl3 135  ARG135      0.1354
     12  N          1.6360  -20.9480   28.0700 N.3   143  ILE143     -0.1245
     13  CA         2.6690  -21.5110   27.2190 C.3   143  ILE143      0.1561
     14  C          3.7100  -22.1220   28.1480 C.2   143  ILE143      0.2260
     15  O          4.2880  -21.4260   28.9790 O.2   143  ILE143     -0.2867
     16  CB         3.2890  -20.4560   26.2810 C.3   143  ILE143      0.0252
     17  CG1        2.2400  -19.9680   25.2770 C.3   143  ILE143      0.0019
     18  CG2        4.4830  -21.0380   25.5350 C.3   143  ILE143      0.0019
     19  CD1        2.6760  -18.7840   24.4380 C.3   143  ILE143      0.0001
     20  N         10.0400  -23.1870   28.0290 N.3   146  HIS146     -0.1241
     21  CA        10.8200  -23.6610   26.8980 C.3   146  HIS146      0.1621
     22  C         11.9590  -22.7150   26.5540 C.2   146  HIS146      0.2264
     23  O         12.0510  -21.6120   27.0870 O.2   146  HIS146     -0.2867
     24  CB         9.9130  -23.8130   25.6760 C.3   146  HIS146      0.0745
     25  CG         9.3340  -22.5210   25.1930 C.ar  146  HIS146      0.0817
     26  ND1        8.3290  -21.8580   25.8650 N.ar  146  HIS146     -0.2268
     27  CD2        9.6170  -21.7700   24.1030 C.ar  146  HIS146      0.1154
     28  CE1        8.0170  -20.7550   25.2110 C.ar  146  HIS146      0.1986
     29  NE2        8.7850  -20.6780   24.1380 N.ar  146  HIS146     -0.2212
     30  N         14.0220  -21.3300   22.8600 N.3   148  ASP148     -0.1239
     31  CA        13.8850  -21.2770   21.3990 C.3   148  ASP148      0.1674
     32  C         15.2150  -21.5400   20.6770 C.2   148  ASP148      0.2266
     33  O         15.6640  -20.7450   19.8490 O.2   148  ASP148     -0.2867
     34  CB        13.2900  -19.9320   20.9830 C.3   148  ASP148      0.1410
     35  CG        11.8840  -19.7370   21.5100 C.2   148  ASP148      0.3668
     36  OD1       11.0190  -20.5720   21.1820 O.co2 148  ASP148     -0.2456
     37  OD2       11.6400  -18.7540   22.2470 O.co2 148  ASP148     -0.2456
     38  N         13.9570  -13.2550   20.6320 N.3   166  SER166     -0.1202
     39  CA        12.5230  -13.3760   20.4350 C.3   166  SER166      0.2020
     40  C         11.9210  -11.9950   20.6180 C.2   166  SER166      0.2619
     41  O         12.4480  -11.1760   21.3690 O.2   166  SER166     -0.2717
     42  CB        11.9200  -14.3580   21.4360 C.3   166  SER166      0.2103
     43  OG        12.5000  -15.6460   21.3090 O.3   166  SER166     -0.2182
     44  N         10.8260  -11.7330   19.9180 N.am  167  TYR167     -0.1961
     45  CA        10.1200  -10.4720   20.0590 C.3   167  TYR167      0.1771
     46  C          8.6170  -10.7010   20.0030 C.2   167  TYR167      0.2619
     47  O          8.1560  -11.6920   19.4360 O.2   167  TYR167     -0.2715
     48  CB        10.5500   -9.5040   18.9620 C.3   167  TYR167      0.0574
     49  CG         9.8140   -9.6820   17.6490 C.ar  167  TYR167     -0.0198
     50  CD1        8.6560   -8.9560   17.3790 C.ar  167  TYR167     -0.0009
     51  CD2       10.2750  -10.5690   16.6790 C.ar  167  TYR167     -0.0009
     52  CE1        7.9720   -9.1110   16.1830 C.ar  167  TYR167      0.0417
     53  CE2        9.6050  -10.7290   15.4730 C.ar  167  TYR167      0.0417
     54  CZ         8.4510   -9.9960   15.2270 C.ar  167  TYR167      0.1957
     55  OH         7.7640  -10.1330   14.0360 O.3   167  TYR167     -0.2866
     56  N          7.8590   -9.7910   20.6110 N.am  168  PHE168     -0.1974
     57  CA         6.4040   -9.7900   20.4730 C.3   168  PHE168      0.1639
     58  C          5.7810   -8.4870   20.9680 C.2   168  PHE168      0.2290
     59  O          6.3640   -7.7810   21.7940 O.2   168  PHE168     -0.2864
     60  CB         5.7590  -11.0010   21.1780 C.3   168  PHE168      0.0560
     61  CG         5.8220  -10.9500   22.6820 C.ar  168  PHE168     -0.0200
     62  CD1        4.7880  -10.3760   23.4170 C.ar  168  PHE168     -0.0042
     63  CD2        6.8960  -11.4990   23.3650 C.ar  168  PHE168     -0.0042
     64  CE1        4.8370  -10.3360   24.8000 C.ar  168  PHE168     -0.0003
     65  CE2        6.9480  -11.4580   24.7480 C.ar  168  PHE168     -0.0003
     66  CZ         5.9200  -10.8770   25.4670 C.ar  168  PHE168     -0.0000
     67  N          4.9110  -12.9280   30.9050 N.3   180  LEU180     -0.1245
     68  CA         6.1410  -13.5630   30.4690 C.3   180  LEU180      0.1561
     69  C          7.0730  -13.6750   31.6620 C.2   180  LEU180      0.2260
     70  O          7.4430  -12.6610   32.2410 O.2   180  LEU180     -0.2867
     71  CB         6.8200  -12.7340   29.3780 C.3   180  LEU180      0.0270
     72  CG         8.1270  -13.3020   28.8020 C.3   180  LEU180      0.0019
     73  CD1        7.8570  -14.4080   27.7880 C.3   180  LEU180      0.0001
     74  CD2        8.9530  -12.1910   28.1720 C.3   180  LEU180      0.0001
     75  N         13.7650   -9.9590   23.7250 N.3   229  PHE229     -0.1241
     76  CA        14.6400  -10.6640   24.6680 C.3   229  PHE229      0.1605
     77  C         15.3250  -11.8830   24.0440 C.2   229  PHE229      0.2264
     78  O         14.9920  -12.2940   22.9340 O.2   229  PHE229     -0.2867
     79  CB        13.8450  -11.0800   25.9140 C.3   229  PHE229      0.0534
     80  CG        12.9340  -12.2590   25.6940 C.ar  229  PHE229     -0.0203
     81  CD1       11.7630  -12.1220   24.9680 C.ar  229  PHE229     -0.0042
     82  CD2       13.2480  -13.5030   26.2200 C.ar  229  PHE229     -0.0042
     83  CE1       10.9230  -13.2040   24.7650 C.ar  229  PHE229     -0.0003
     84  CE2       12.4130  -14.5870   26.0210 C.ar  229  PHE229     -0.0003
     85  CZ        11.2510  -14.4380   25.2920 C.ar  229  PHE229     -0.0000
     86  N         11.9530  -19.7810   29.4080 N.3   236  HIS236     -0.1241
     87  CA        10.9050  -18.8180   29.7010 C.3   236  HIS236      0.1621
     88  C          9.5280  -19.4090   29.4500 C.2   236  HIS236      0.2264
     89  O          9.3950  -20.4040   28.7490 O.2   236  HIS236     -0.2867
     90  CB        11.1060  -17.5770   28.8400 C.3   236  HIS236      0.0745
     91  CG        11.1520  -17.8660   27.3720 C.ar  236  HIS236      0.0817
     92  ND1       12.3230  -18.1430   26.6990 N.ar  236  HIS236     -0.2268
     93  CD2       10.1660  -17.9250   26.4480 C.ar  236  HIS236      0.1154
     94  CE1       12.0560  -18.3530   25.4230 C.ar  236  HIS236      0.1986
     95  NE2       10.7550  -18.2280   25.2460 N.ar  236  HIS236     -0.2212
     96  N          4.9830  -18.2280   29.3850 N.3   238  VAL238     -0.1245
     97  CA         3.8860  -17.2790   29.5780 C.3   238  VAL238      0.1561
     98  C          2.9040  -17.8960   30.5710 C.2   238  VAL238      0.2260
     99  O          2.4170  -19.0050   30.3610 O.2   238  VAL238     -0.2867
    100  CB         3.1770  -16.9510   28.2510 C.3   238  VAL238      0.0252
    101  CG1        1.9670  -16.0570   28.4790 C.3   238  VAL238      0.0019
    102  CG2        4.1510  -16.2870   27.2910 C.3   238  VAL238      0.0019
    103  N         -5.2590  -13.3070   25.7790 N.3   247  ARG247     -0.1245
    104  CA        -3.9910  -12.6840   25.4560 C.3   247  ARG247      0.1563
    105  C         -3.7450  -12.9140   23.9770 C.2   247  ARG247      0.2260
    106  O         -3.6940  -14.0580   23.5270 O.2   247  ARG247     -0.2867
    107  CB        -2.8790  -13.3150   26.2750 C.3   247  ARG247      0.0307
    108  CG        -1.5030  -12.7090   26.0750 C.3   247  ARG247      0.0489
    109  CD        -0.5480  -13.2990   27.0910 C.3   247  ARG247      0.2205
    110  NE         0.8340  -12.8440   26.9390 N.pl3 247  ARG247     -0.0865
    111  CZ         1.7090  -13.3280   26.0560 C.cat 247  ARG247      0.5346
    112  NH1        1.3590  -14.2830   25.1940 N.pl3 247  ARG247      0.1354
    113  NH2        2.9460  -12.8410   26.0260 N.pl3 247  ARG247      0.1354
    114  N         -0.9600  -11.8720   21.0720 N.3   249  THR249     -0.1218
    115  CA         0.3310  -11.2730   20.7410 C.3   249  THR249      0.1862
    116  C          0.6630  -11.5360   19.2850 C.2   249  THR249      0.2287
    117  O          0.2140  -12.5160   18.7070 O.2   249  THR249     -0.2866
    118  CB         1.4720  -11.8400   21.5990 C.3   249  THR249      0.1770
    119  OG1        1.3800  -13.2690   21.6350 O.3   249  THR249     -0.2211
    120  CG2        1.3980  -11.2980   23.0130 C.3   249  THR249      0.0375
    121  N          7.6000  -13.1030   16.8320 N.3   252  GLY252     -0.1210
    122  CA         8.4850  -13.9090   16.0040 C.3   252  GLY252      0.1956
    123  C          9.8870  -14.0330   16.5720 C.2   252  GLY252      0.2611
    124  O         10.0790  -14.1360   17.7850 O.2   252  GLY252     -0.2717
    125  N         10.8680  -14.0430   15.6780 N.am  253  PHE253     -0.1976
    126  CA        12.2720  -14.1220   16.0570 C.3   253  PHE253      0.1639
    127  C         13.0880  -13.1730   15.1940 C.2   253  PHE253      0.2290
    128  O         12.5740  -12.5930   14.2300 O.2   253  PHE253     -0.2864
    129  CB        12.7890  -15.5520   15.8920 C.3   253  PHE253      0.0560
    130  CG        11.9280  -16.5810   16.5660 C.ar  253  PHE253     -0.0200
    131  CD1       11.9900  -16.7650   17.9440 C.ar  253  PHE253     -0.0042
    132  CD2       11.0350  -17.3490   15.8300 C.ar  253  PHE253     -0.0042
    133  CE1       11.1890  -17.7040   18.5720 C.ar  253  PHE253     -0.0003
    134  CE2       10.2290  -18.2910   16.4510 C.ar  253  PHE253     -0.0003
    135  CZ        10.3050  -18.4680   17.8270 C.ar  253  PHE253     -0.0000
@<TRIPOS>BOND
     1    55    54    1
     2   128   127    2
     3   127   126    1
     4    54    53   ar
     5    54    52   ar
     6    53    51   ar
     7   125   126    1
     8   125   123   am
     9   132   134   ar
    10   132   130   ar
    11   129   126    1
    12   129   130    1
    13   122   123    1
    14   122   121    1
    15    52    50   ar
    16   134   135   ar
    17   130   131   ar
    18   123   124    2
    19    51    49   ar
    20    50    49   ar
    21    11     9    1
    22    49    48    1
    23   135   133   ar
    24   131   133   ar
    25     8     9    2
    26     8     7    1
    27     9    10    1
    28     1     2    1
    29   117   116    2
    30     7     6    1
    31    48    45    1
    32   116   115    1
    33     2     3    1
    34     2     5    1
    35    47    46    2
    36     6     5    1
    37    33    32    2
    38    44    45    1
    39    44    40   am
    40    46    45    1
    41    46    56   am
    42     3     4    2
    43    39    40    1
    44    39    38    1
    45    39    42    1
    46    57    56    1
    47    57    58    1
    48    57    60    1
    49    40    41    2
    50    32    31    1
    51   115   114    1
    52   115   118    1
    53    58    59    2
    54    34    31    1
    55    34    35    1
    56    60    61    1
    57    36    35   ar
    58    43    42    1
    59    31    30    1
    60    35    37   ar
    61   118   119    1
    62   118   120    1
    63    61    63   ar
    64    61    62   ar
    65    78    77    2
    66    63    65   ar
    67    62    64   ar
    68   106   105    2
    69    75    76    1
    70   105   104    1
    71    77    76    1
    72    27    29   ar
    73    27    25   ar
    74    29    28   ar
    75    19    17    1
    76    76    79    1
    77    65    66   ar
    78    83    81   ar
    79    83    85   ar
    80    64    66   ar
    81    81    80   ar
    82    25    24    1
    83    25    26   ar
    84   112   111    1
    85    28    26   ar
    86    95    94   ar
    87    95    93   ar
    88    17    16    1
    89    85    84   ar
    90    94    92   ar
    91   104   103    1
    92   104   107    1
    93    18    16    1
    94    24    21    1
    95    80    79    1
    96    80    82   ar
    97    84    82   ar
    98   113   111    1
    99   111   110    2
   100   108   107    1
   101   108   109    1
   102    16    13    1
   103    93    91   ar
   104    22    21    1
   105    22    23    2
   106    92    91   ar
   107    21    20    1
   108   110   109    1
   109    13    12    1
   110    13    14    1
   111   102   100    1
   112    91    90    1
   113    73    72    1
   114    14    15    2
   115    74    72    1
   116   100   101    1
   117   100    97    1
   118    89    88    2
   119    72    71    1
   120    90    87    1
   121    71    68    1
   122    96    97    1
   123    86    87    1
   124    88    87    1
   125    97    98    1
   126    99    98    2
   127    68    67    1
   128    68    69    1
   129    69    70    2
