@<TRIPOS>MOLECULE
tmp/5ir2A01.pdb
 92 90 0 0 0
SMALL
GASTEIGER

@<TRIPOS>ATOM
      1  N         24.7030   11.6730   21.7430 N.3    89  ARG89      -0.1245
      2  CA        25.3250   12.0660   20.4810 C.3    89  ARG89       0.1563
      3  C         24.3650   11.9150   19.3070 C.2    89  ARG89       0.2260
      4  O         24.2880   12.8010   18.4480 O.2    89  ARG89      -0.2867
      5  CB        26.5960   11.2500   20.2450 C.3    89  ARG89       0.0307
      6  CG        27.3610   11.6550   18.9960 C.3    89  ARG89       0.0489
      7  CD        28.6810   10.9100   18.8880 C.3    89  ARG89       0.2205
      8  NE        29.6230   11.3090   19.9300 N.pl3  89  ARG89      -0.0865
      9  CZ        30.5020   12.2970   19.8010 C.cat  89  ARG89       0.5346
     10  NH1       30.5610   12.9900   18.6720 N.pl3  89  ARG89       0.1354
     11  NH2       31.3230   12.5930   20.8000 N.pl3  89  ARG89       0.1354
     12  N         40.4490   15.3190   20.9590 N.3   111  THR111     -0.1203
     13  CA        39.7580   16.1030   19.9460 C.3   111  THR111      0.1994
     14  C         38.2560   15.8700   20.0320 C.2   111  THR111      0.2618
     15  O         37.7990   14.7910   20.4170 O.2   111  THR111     -0.2717
     16  CB        40.2380   15.7480   18.5360 C.3   111  THR111      0.1784
     17  OG1       39.9660   14.3660   18.2720 O.3   111  THR111     -0.2211
     18  CG2       41.7220   16.0060   18.4000 C.3   111  THR111      0.0376
     19  N         37.4910   16.8950   19.6570 N.am  112  LEU112     -0.1965
     20  CA        36.0390   16.8130   19.6270 C.3   112  LEU112      0.1728
     21  C         35.4640   16.8950   18.2220 C.2   112  LEU112      0.2616
     22  O         34.2570   16.6870   18.0530 O.2   112  LEU112     -0.2715
     23  CB        35.4210   17.9250   20.4900 C.3   112  LEU112      0.0311
     24  CG        35.3890   17.7250   22.0100 C.3   112  LEU112      0.0022
     25  CD1       34.7360   16.3960   22.3560 C.3   112  LEU112      0.0001
     26  CD2       36.7780   17.8280   22.6320 C.3   112  LEU112      0.0001
     27  N         36.2870   17.1810   17.2160 N.am  113  TRP113     -0.1960
     28  CA        35.8120   17.4020   15.8570 C.3   113  TRP113      0.1771
     29  C         36.8260   16.8190   14.8880 C.2   113  TRP113      0.2620
     30  O         38.0060   17.1770   14.9360 O.2   113  TRP113     -0.2715
     31  CB        35.6040   18.8950   15.5880 C.3   113  TRP113      0.0590
     32  CG        34.8020   19.1850   14.3630 C.ar  113  TRP113      0.0006
     33  CD1       35.2660   19.3070   13.0870 C.ar  113  TRP113      0.0946
     34  CD2       33.3870   19.3990   14.2990 C.ar  113  TRP113      0.0152
     35  NE1       34.2260   19.5810   12.2290 N.ar  113  TRP113     -0.2442
     36  CE2       33.0620   19.6430   12.9500 C.ar  113  TRP113      0.0810
     37  CE3       32.3630   19.4070   15.2520 C.ar  113  TRP113      0.0012
     38  CZ2       31.7570   19.8910   12.5300 C.ar  113  TRP113      0.0191
     39  CZ3       31.0690   19.6540   14.8330 C.ar  113  TRP113      0.0001
     40  CH2       30.7780   19.8920   13.4840 C.ar  113  TRP113      0.0015
     41  N         36.3700   15.9250   14.0160 N.am  114  GLY114     -0.1940
     42  CA        37.2430   15.3080   13.0390 C.3   114  GLY114      0.2014
     43  C         36.5990   15.1630   11.6760 C.2   114  GLY114      0.2639
     44  O         35.7590   15.9810   11.2880 O.2   114  GLY114     -0.2714
     45  N         36.9780   14.1130   10.9440 N.am  115  GLY115     -0.1939
     46  CA        36.4700   13.9430    9.5920 C.3   115  GLY115      0.2014
     47  C         35.0090   13.5380    9.5450 C.2   115  GLY115      0.2638
     48  O         34.2750   13.9400    8.6380 O.2   115  GLY115     -0.2714
     49  N         34.5660   12.7360   10.5150 N.am  116  VAL116     -0.1977
     50  CA        33.1800   12.2760   10.5090 C.3   116  VAL116      0.1596
     51  C         32.2320   13.4210   10.8490 C.2   116  VAL116      0.2287
     52  O         31.1850   13.5860   10.2110 O.2   116  VAL116     -0.2864
     53  CB        33.0080   11.0840   11.4670 C.3   116  VAL116      0.0276
     54  CG1       31.5500   10.6840   11.5530 C.3   116  VAL116      0.0022
     55  CG2       33.8550    9.9070   11.0030 C.3   116  VAL116      0.0022
     56  N         41.1610   16.9280   14.6000 N.3   135  ARG135     -0.1231
     57  CA        42.0330   16.0200   13.8660 C.3   135  ARG135      0.1694
     58  C         41.4040   15.7190   12.5090 C.2   135  ARG135      0.2592
     59  O         40.3770   16.2930   12.1370 O.2   135  ARG135     -0.2718
     60  CB        42.3020   14.7400   14.6630 C.3   135  ARG135      0.0321
     61  CG        41.0680   13.9120   14.9580 C.3   135  ARG135      0.0489
     62  CD        41.4440   12.6040   15.6370 C.3   135  ARG135      0.2205
     63  NE        40.3020   11.7050   15.7820 N.pl3 135  ARG135     -0.0865
     64  CZ        40.3960   10.4370   16.1700 C.cat 135  ARG135      0.5346
     65  NH1       41.5820    9.9140   16.4490 N.pl3 135  ARG135      0.1354
     66  NH2       39.3050    9.6890   16.2740 N.pl3 135  ARG135      0.1354
     67  N         42.0420   14.8080   11.7650 N.am  136  ASP136     -0.1974
     68  CA        41.6620   14.4980   10.3830 C.3   136  ASP136      0.1709
     69  C         41.6370   15.7640    9.5300 C.2   136  ASP136      0.2293
     70  O         40.7200   15.9860    8.7370 O.2   136  ASP136     -0.2864
     71  CB        40.3170   13.7700   10.3180 C.3   136  ASP136      0.1436
     72  CG        40.2660   12.5530   11.2220 C.2   136  ASP136      0.3671
     73  OD1       41.3230   11.9220   11.4450 O.co2 136  ASP136     -0.2456
     74  OD2       39.1640   12.2290   11.7140 O.co2 136  ASP136     -0.2456
     75  N         41.5610   10.6720   19.9020 N.3   156  GLY156     -0.1210
     76  CA        40.1330   10.7870   19.6990 C.3   156  GLY156      0.1956
     77  C         39.3740   11.0580   20.9870 C.2   156  GLY156      0.2613
     78  O         39.9080   10.9750   22.0920 O.2   156  GLY156     -0.2717
     79  N         38.0890   11.3850   20.8270 N.am  157  SER157     -0.1938
     80  CA        37.2620   11.7300   21.9790 C.3   157  SER157      0.2055
     81  C         36.8940   10.4950   22.7900 C.2   157  SER157      0.2642
     82  O         36.8050   10.5600   24.0220 O.2   157  SER157     -0.2714
     83  CB        35.9990   12.4610   21.5200 C.3   157  SER157      0.2130
     84  OG        35.1920   11.6260   20.7050 O.3   157  SER157     -0.2179
     85  N         36.6790    9.3660   22.1150 N.am  158  LEU158     -0.1977
     86  CA        36.2350    8.1430   22.7730 C.3   158  LEU158      0.1596
     87  C         37.2500    7.7130   23.8240 C.2   158  LEU158      0.2287
     88  O         38.4380    7.5580   23.5270 O.2   158  LEU158     -0.2864
     89  CB        36.0340    7.0390   21.7300 C.3   158  LEU158      0.0297
     90  CG        35.1590    5.8220   22.0640 C.3   158  LEU158      0.0022
     91  CD1       35.8600    4.8380   22.9950 C.3   158  LEU158      0.0001
     92  CD2       33.8250    6.2610   22.6480 C.3   158  LEU158      0.0001
@<TRIPOS>BOND
     1    48    47    2
     2    70    69    2
     3    69    68    1
     4    47    46    1
     5    47    49   am
     6    46    45    1
     7    52    51    2
     8    71    68    1
     9    71    72    1
    10    68    67    1
    11    50    49    1
    12    50    51    1
    13    50    53    1
    14    45    43   am
    15    55    53    1
    16    72    73   ar
    17    72    74   ar
    18    44    43    2
    19    53    54    1
    20    43    42    1
    21    67    58   am
    22    59    58    2
    23    35    36   ar
    24    35    33   ar
    25    58    57    1
    26    38    36   ar
    27    38    40   ar
    28    36    34   ar
    29    42    41    1
    30    33    32   ar
    31    40    39   ar
    32    57    56    1
    33    57    60    1
    34    41    29   am
    35    34    32   ar
    36    34    37   ar
    37    32    31    1
    38    60    61    1
    39    39    37   ar
    40    29    30    2
    41    29    28    1
    42    61    62    1
    43    31    28    1
    44    62    63    1
    45    63    64    2
    46    28    27    1
    47    64    66    1
    48    64    65    1
    49    27    21   am
    50    22    21    2
    51    21    20    1
    52    17    16    1
    53    18    16    1
    54     4     3    2
    55    16    13    1
    56    10     9    1
    57     7     6    1
    58     7     8    1
    59     6     5    1
    60     3     2    1
    61    20    19    1
    62    20    23    1
    63    19    14   am
    64    76    75    1
    65    76    77    1
    66     9     8    2
    67     9    11    1
    68    13    14    1
    69    13    12    1
    70    14    15    2
    71     5     2    1
    72     2     1    1
    73    23    24    1
    74    84    83    1
    75    79    77   am
    76    79    80    1
    77    77    78    2
    78    83    80    1
    79    89    90    1
    80    89    86    1
    81    80    81    1
    82    24    25    1
    83    24    26    1
    84    90    92    1
    85    90    91    1
    86    85    86    1
    87    85    81   am
    88    86    87    1
    89    81    82    2
    90    88    87    2
