@<TRIPOS>MOLECULE
tmp/5ir6A02.pdb
 217 208 0 0 0
SMALL
GASTEIGER

@<TRIPOS>ATOM
      1  N         -9.1740    6.7750   66.1290 N.3    11  ARG11      -0.1245
      2  CA       -10.4350    6.5490   65.4340 C.3    11  ARG11       0.1563
      3  C        -10.6210    7.6440   64.3690 C.2    11  ARG11       0.2260
      4  O        -10.7990    7.3690   63.1420 O.2    11  ARG11      -0.2867
      5  CB       -11.5870    6.5350   66.4570 C.3    11  ARG11       0.0307
      6  CG       -12.9440    6.1910   65.8670 C.3    11  ARG11       0.0489
      7  CD       -14.0700    6.1190   66.8890 C.3    11  ARG11       0.2205
      8  NE       -13.9520    4.9400   67.7350 N.pl3  11  ARG11      -0.0865
      9  CZ       -13.5020    4.9420   68.9860 C.cat  11  ARG11       0.5346
     10  NH1      -13.1060    6.0660   69.5810 N.pl3  11  ARG11       0.1354
     11  NH2      -13.4420    3.7920   69.6510 N.pl3  11  ARG11       0.1354
     12  N         -7.8050    7.3060   61.4850 N.3    14  THR14      -0.1203
     13  CA        -8.1600    6.1440   60.6790 C.3    14  THR14       0.1994
     14  C         -9.3670    6.4460   59.7630 C.2    14  THR14       0.2617
     15  O         -9.3070    6.2190   58.5270 O.2    14  THR14      -0.2717
     16  CB        -8.4350    4.9400   61.5940 C.3    14  THR14       0.1784
     17  OG1       -7.2590    4.6650   62.3640 O.3    14  THR14      -0.2211
     18  CG2       -8.8010    3.7020   60.7940 C.3    14  THR14       0.0376
     19  N        -10.4440    6.9820   60.3470 N.am   15  GLU15      -0.1979
     20  CA       -11.5350    7.4590   59.4970 C.3    15  GLU15       0.1602
     21  C        -11.0110    8.3270   58.3470 C.2    15  GLU15       0.2287
     22  O        -11.3200    8.0640   57.1980 O.2    15  GLU15      -0.2864
     23  CB       -12.5410    8.2510   60.3070 C.3    15  GLU15       0.0415
     24  CG       -13.4770    9.0980   59.4650 C.3    15  GLU15       0.1163
     25  CD       -14.5280    9.7800   60.3090 C.2    15  GLU15       0.3649
     26  OE1      -14.3750    9.8090   61.5570 O.co2  15  GLU15      -0.2457
     27  OE2      -15.5190   10.2640   59.7220 O.co2  15  GLU15      -0.2457
     28  N         -9.0100    6.1610   55.7400 N.3    18  LEU18      -0.1231
     29  CA        -9.7640    5.1640   54.9830 C.3    18  LEU18       0.1693
     30  C        -10.9020    5.7940   54.1360 C.2    18  LEU18       0.2592
     31  O        -11.1810    5.3730   52.9980 O.2    18  LEU18      -0.2718
     32  CB       -10.2690    4.0690   55.9310 C.3    18  LEU18       0.0284
     33  CG        -9.3210    2.8940   56.2380 C.3    18  LEU18       0.0019
     34  CD1       -9.7380    2.1410   57.4960 C.3    18  LEU18       0.0001
     35  CD2       -9.1940    1.9330   55.0550 C.3    18  LEU18       0.0001
     36  N        -11.5340    6.8170   54.7050 N.am   19  THR19      -0.1953
     37  CA       -12.5570    7.6080   54.0340 C.3    19  THR19       0.1897
     38  C        -12.0330    8.0900   52.6980 C.2    19  THR19       0.2313
     39  O        -12.7640    8.1400   51.7200 O.2    19  THR19      -0.2863
     40  CB       -12.9390    8.8200   54.8870 C.3    19  THR19       0.1794
     41  OG1      -13.4900    8.3750   56.1360 O.3    19  THR19      -0.2208
     42  CG2      -13.9520    9.6770   54.1720 C.3    19  THR19       0.0378
     43  N         -9.2800    6.4990   51.2830 N.3    21  HIS21      -0.1226
     44  CA        -8.9890    5.2440   50.6040 C.3    21  HIS21       0.1752
     45  C        -10.1430    4.7820   49.7260 C.2    21  HIS21       0.2595
     46  O         -9.9250    4.4320   48.5640 O.2    21  HIS21      -0.2718
     47  CB        -8.6200    4.1520   51.6090 C.3    21  HIS21       0.0759
     48  CG        -8.1200    2.8810   50.9830 C.ar   21  HIS21       0.0818
     49  ND1       -7.1420    2.8560   50.0110 N.ar   21  HIS21      -0.2268
     50  CD2       -8.4430    1.5850   51.2200 C.ar   21  HIS21       0.1154
     51  CE1       -6.9000    1.6040   49.6620 C.ar   21  HIS21       0.1986
     52  NE2       -7.6750    0.8120   50.3820 N.ar   21  HIS21      -0.2212
     53  N        -11.3650    4.8110   50.2590 N.am   22  ILE22      -0.1980
     54  CA       -12.5320    4.2220   49.5500 C.3    22  ILE22       0.1595
     55  C        -12.9660    4.9440   48.2710 C.2    22  ILE22       0.2287
     56  O        -13.3990    4.3080   47.3030 O.2    22  ILE22      -0.2864
     57  CB       -13.7340    3.9980   50.5030 C.3    22  ILE22       0.0276
     58  CG1      -13.8800    2.5130   50.8210 C.3    22  ILE22       0.0022
     59  CG2      -15.0400    4.4370   49.8820 C.3    22  ILE22       0.0022
     60  CD1      -12.5710    1.8090   51.1110 C.3    22  ILE22       0.0001
     61  N         -3.1700    3.2560   55.3410 N.3    75  ILE75      -0.1245
     62  CA        -4.0030    2.5440   56.3200 C.3    75  ILE75       0.1561
     63  C         -3.3400    1.2540   56.7970 C.2    75  ILE75       0.2260
     64  O         -3.3440    0.9380   57.9940 O.2    75  ILE75      -0.2867
     65  CB        -5.4320    2.2470   55.8310 C.3    75  ILE75       0.0252
     66  CG1       -6.1860    1.4230   56.8860 C.3    75  ILE75       0.0019
     67  CG2       -5.4330    1.5000   54.5110 C.3    75  ILE75       0.0019
     68  CD1       -6.3370    2.1060   58.2290 C.3    75  ILE75       0.0001
     69  N         -2.6840    0.6010   60.6970 N.3    79  LEU79      -0.1245
     70  CA        -3.3540   -0.5190   61.3580 C.3    79  LEU79       0.1561
     71  C         -2.7460   -0.9020   62.7170 C.2    79  LEU79       0.2260
     72  O         -3.3160   -0.5870   63.7690 O.2    79  LEU79      -0.2867
     73  CB        -3.3550   -1.7320   60.4190 C.3    79  LEU79       0.0270
     74  CG        -4.0100   -3.0170   60.9340 C.3    79  LEU79       0.0019
     75  CD1       -5.5230   -2.8460   61.0530 C.3    79  LEU79       0.0001
     76  CD2       -3.6570   -4.1870   60.0240 C.3    79  LEU79       0.0001
     77  N         -3.4540    0.6600   66.5750 N.3    83  TRP83      -0.1241
     78  CA        -4.0920   -0.4000   67.3480 C.3    83  TRP83       0.1605
     79  C         -3.1630   -1.6060   67.5490 C.2    83  TRP83       0.2264
     80  O         -3.3980   -2.6700   66.9740 O.2    83  TRP83      -0.2867
     81  CB        -5.3700   -0.8310   66.6350 C.3    83  TRP83       0.0550
     82  CG        -6.3820    0.2610   66.5560 C.ar   83  TRP83       0.0003
     83  CD1       -6.5230    1.1850   65.5630 C.ar   83  TRP83       0.0946
     84  CD2       -7.3940    0.5530   67.5220 C.ar   83  TRP83       0.0152
     85  NE1       -7.5660    2.0330   65.8510 N.ar   83  TRP83      -0.2442
     86  CE2       -8.1170    1.6660   67.0500 C.ar   83  TRP83       0.0810
     87  CE3       -7.7610   -0.0230   68.7430 C.ar   83  TRP83       0.0012
     88  CZ2       -9.1930    2.2150   67.7560 C.ar   83  TRP83       0.0191
     89  CZ3       -8.8270    0.5230   69.4450 C.ar   83  TRP83       0.0001
     90  CH2       -9.5320    1.6300   68.9490 C.ar   83  TRP83       0.0015
     91  N         -4.6460   -4.7830   69.6430 N.3    86  PHE86      -0.1241
     92  CA        -5.5830   -5.4560   68.7670 C.3    86  PHE86       0.1605
     93  C         -4.8650   -6.5460   67.9610 C.2    86  PHE86       0.2264
     94  O         -5.2010   -7.7500   68.0170 O.2    86  PHE86      -0.2867
     95  CB        -6.1980   -4.3930   67.8460 C.3    86  PHE86       0.0534
     96  CG        -7.3390   -4.8870   67.0270 C.ar   86  PHE86      -0.0203
     97  CD1       -8.6540   -4.6310   67.4120 C.ar   86  PHE86      -0.0042
     98  CD2       -7.1000   -5.6060   65.8750 C.ar   86  PHE86      -0.0042
     99  CE1       -9.7080   -5.0940   66.6590 C.ar   86  PHE86      -0.0003
    100  CE2       -8.1450   -6.0730   65.1180 C.ar   86  PHE86      -0.0003
    101  CZ        -9.4500   -5.8210   65.5120 C.ar   86  PHE86      -0.0000
    102  N        -10.2750   -8.8930   51.7260 N.3   146  ILE146     -0.1231
    103  CA       -10.0990   -7.8190   52.6670 C.3   146  ILE146      0.1692
    104  C        -11.3580   -7.6510   53.4950 C.2   146  ILE146      0.2592
    105  O        -11.2560   -7.5430   54.7070 O.2   146  ILE146     -0.2718
    106  CB        -9.6450   -6.5250   51.9720 C.3   146  ILE146      0.0266
    107  CG1       -9.0620   -5.5570   53.0000 C.3   146  ILE146      0.0019
    108  CG2      -10.7390   -5.9210   51.1030 C.3   146  ILE146      0.0020
    109  CD1       -7.7030   -5.9700   53.5130 C.3   146  ILE146      0.0001
    110  N        -12.5370   -7.6880   52.8660 N.am  147  THR147     -0.1953
    111  CA       -13.8170   -7.5910   53.6050 C.3   147  THR147      0.1897
    112  C        -13.9700   -8.6830   54.6290 C.2   147  THR147      0.2313
    113  O        -14.4750   -8.4350   55.7000 O.2   147  THR147     -0.2863
    114  CB       -15.0730   -7.6290   52.7180 C.3   147  THR147      0.1794
    115  OG1      -15.0140   -8.7670   51.8560 O.3   147  THR147     -0.2208
    116  CG2      -15.2220   -6.3530   51.9080 C.3   147  THR147      0.0378
    117  N        -11.8720   -9.5760   56.5330 N.3   149  VAL149     -0.1231
    118  CA       -11.3210   -9.0300   57.7540 C.3   149  VAL149      0.1692
    119  C        -12.4640   -8.3870   58.5130 C.2   149  VAL149      0.2592
    120  O        -12.7620   -8.8280   59.6040 O.2   149  VAL149     -0.2718
    121  CB       -10.2000   -8.0060   57.5110 C.3   149  VAL149      0.0266
    122  CG1       -9.7080   -7.4350   58.8320 C.3   149  VAL149      0.0020
    123  CG2       -9.0430   -8.6500   56.7630 C.3   149  VAL149      0.0020
    124  N        -13.1340   -7.3920   57.9290 N.am  150  ASN150     -0.1974
    125  CA       -14.1930   -6.6630   58.6450 C.3   150  ASN150      0.1688
    126  C        -15.3180   -7.6030   59.0940 C.2   150  ASN150      0.2292
    127  O        -15.8350   -7.5170   60.2160 O.2   150  ASN150     -0.2864
    128  CB       -14.7530   -5.5240   57.7860 C.3   150  ASN150      0.1181
    129  CG       -15.7310   -4.6340   58.5440 C.2   150  ASN150      0.2629
    130  OD1      -15.5960   -4.4200   59.7450 O.2   150  ASN150     -0.2716
    131  ND2      -16.7140   -4.0990   57.8370 N.am  150  ASN150     -0.0877
    132  N        -13.8800   -9.2350   62.1340 N.3   153  MET153     -0.1245
    133  CA       -13.8930   -8.2400   63.1960 C.3   153  MET153      0.1570
    134  C        -15.2800   -8.0810   63.7720 C.2   153  MET153      0.2261
    135  O        -15.4300   -7.8730   64.9720 O.2   153  MET153     -0.2867
    136  CB       -13.4550   -6.8830   62.6660 C.3   153  MET153      0.0387
    137  CG       -11.9730   -6.7740   62.3830 C.3   153  MET153      0.0595
    138  SD       -11.5050   -5.0760   62.0130 S.3   153  MET153     -0.1393
    139  CE       -12.0040   -4.2350   63.5140 C.3   153  MET153      0.0692
    140  N        -19.6370    6.0290   51.6170 N.3   371  GLU371     -0.1245
    141  CA       -19.0300    6.5130   52.8590 C.3   371  GLU371      0.1567
    142  C        -20.0310    6.3140   54.0060 C.2   371  GLU371      0.2260
    143  O        -19.7300    5.6850   55.0570 O.2   371  GLU371     -0.2867
    144  CB       -18.6130    7.9840   52.7390 C.3   371  GLU371      0.0388
    145  CG       -17.5290    8.2710   51.6980 C.3   371  GLU371      0.1160
    146  CD       -16.1650    7.6870   52.0390 C.2   371  GLU371      0.3649
    147  OE1      -15.9470    7.2040   53.1750 O.co2 371  GLU371     -0.2457
    148  OE2      -15.2930    7.7160   51.1470 O.co2 371  GLU371     -0.2457
    149  N        -20.4720    2.7210   55.0740 N.3   374  TRP374     -0.1227
    150  CA       -19.3090    2.2510   55.8570 C.3   374  TRP374      0.1737
    151  C        -19.3460    2.7940   57.2600 C.2   374  TRP374      0.2595
    152  O        -19.0920    2.0510   58.2240 O.2   374  TRP374     -0.2718
    153  CB       -17.9960    2.6310   55.2000 C.3   374  TRP374      0.0564
    154  CG       -17.6880    1.8110   54.0210 C.ar  374  TRP374      0.0003
    155  CD1      -17.7290    2.2040   52.7190 C.ar  374  TRP374      0.0946
    156  CD2      -17.2960    0.4340   54.0160 C.ar  374  TRP374      0.0152
    157  NE1      -17.3790    1.1570   51.8910 N.ar  374  TRP374     -0.2442
    158  CE2      -17.1100    0.0570   52.6660 C.ar  374  TRP374      0.0810
    159  CE3      -17.0700   -0.5130   55.0170 C.ar  374  TRP374      0.0012
    160  CZ2      -16.7110   -1.2320   52.2970 C.ar  374  TRP374      0.0191
    161  CZ3      -16.6770   -1.7880   54.6480 C.ar  374  TRP374      0.0001
    162  CH2      -16.5050   -2.1370   53.3030 C.ar  374  TRP374      0.0015
    163  N        -19.6780    4.0860   57.3690 N.am  375  TYR375     -0.1976
    164  CA       -19.8920    4.6830   58.6920 C.3   375  TYR375      0.1639
    165  C        -20.9400    3.8680   59.4580 C.2   375  TYR375      0.2290
    166  O        -20.7160    3.5090   60.6080 O.2   375  TYR375     -0.2864
    167  CB       -20.3130    6.1630   58.6080 C.3   375  TYR375      0.0560
    168  CG       -19.2290    7.1550   58.2190 C.ar  375  TYR375     -0.0198
    169  CD1      -18.0510    6.7480   57.5830 C.ar  375  TYR375     -0.0009
    170  CD2      -19.4060    8.5200   58.4520 C.ar  375  TYR375     -0.0009
    171  CE1      -17.0730    7.6650   57.2230 C.ar  375  TYR375      0.0417
    172  CE2      -18.4400    9.4470   58.0860 C.ar  375  TYR375      0.0417
    173  CZ       -17.2750    9.0160   57.4710 C.ar  375  TYR375      0.1957
    174  OH       -16.3070    9.9280   57.1060 O.3   375  TYR375     -0.2866
    175  N        -19.6450    0.2250   60.2790 N.3   378  GLU378     -0.1231
    176  CA       -18.4530    0.2570   61.1240 C.3   378  GLU378      0.1699
    177  C        -18.6800    0.8950   62.5080 C.2   378  GLU378      0.2592
    178  O        -18.0580    0.4800   63.4820 O.2   378  GLU378     -0.2718
    179  CB       -17.3400    1.0050   60.3990 C.3   378  GLU378      0.0402
    180  CG       -15.9590    0.7050   60.9430 C.3   378  GLU378      0.1161
    181  CD       -15.2080   -0.3080   60.1180 C.2   378  GLU378      0.3649
    182  OE1      -15.7350   -0.7590   59.0870 O.co2 378  GLU378     -0.2457
    183  OE2      -14.0820   -0.6530   60.5050 O.co2 378  GLU378     -0.2457
    184  N        -19.5420    1.9110   62.5860 N.am  379  VAL379     -0.1980
    185  CA       -19.7690    2.6440   63.8400 C.3   379  VAL379      0.1595
    186  C        -20.7320    1.8940   64.7540 C.2   379  VAL379      0.2287
    187  O        -20.7170    2.1070   65.9670 O.2   379  VAL379     -0.2864
    188  CB       -20.2390    4.0930   63.5860 C.3   379  VAL379      0.0276
    189  CG1      -20.6090    4.8030   64.8780 C.3   379  VAL379      0.0022
    190  CG2      -19.1340    4.8710   62.8900 C.3   379  VAL379      0.0022
    191  N        -20.1160   -0.8600   65.5190 N.3   381  ARG381     -0.1231
    192  CA       -19.1420   -1.8790   65.8330 C.3   381  ARG381      0.1694
    193  C        -18.2650   -1.5310   67.0500 C.2   381  ARG381      0.2591
    194  O        -17.6850   -2.4270   67.6710 O.2   381  ARG381     -0.2718
    195  CB       -18.2700   -2.0350   64.5960 C.3   381  ARG381      0.0321
    196  CG       -17.5590   -3.3560   64.4610 C.3   381  ARG381      0.0489
    197  CD       -16.2870   -3.1560   63.6670 C.3   381  ARG381      0.2205
    198  NE       -15.3930   -2.2650   64.3960 N.pl3 381  ARG381     -0.0865
    199  CZ       -14.2730   -1.7510   63.9110 C.cat 381  ARG381      0.5346
    200  NH1      -13.8840   -2.0300   62.6730 N.pl3 381  ARG381      0.1354
    201  NH2      -13.5420   -0.9490   64.6770 N.pl3 381  ARG381      0.1354
    202  N        -18.1970   -0.2430   67.4080 N.am  382  GLN382     -0.1979
    203  CA       -17.1750    0.2660   68.3500 C.3   382  GLN382      0.1601
    204  C        -17.2180   -0.3920   69.7290 C.2   382  GLN382      0.2287
    205  O        -16.1670   -0.6850   70.3130 O.2   382  GLN382     -0.2864
    206  CB       -17.2650    1.7970   68.5110 C.3   382  GLN382      0.0394
    207  CG       -17.1120    2.6170   67.2270 C.3   382  GLN382      0.0908
    208  CD       -15.7520    2.4940   66.5390 C.2   382  GLN382      0.2608
    209  OE1      -14.7680    2.0570   67.1370 O.2   382  GLN382     -0.2717
    210  NE2      -15.6960    2.9040   65.2740 N.am  382  GLN382     -0.0878
    211  N        -11.3140   -1.5580   73.1650 N.3   392  THR392     -0.1218
    212  CA       -10.9760   -0.4670   72.2520 C.3   392  THR392      0.1862
    213  C        -10.2150    0.6140   73.0210 C.2   392  THR392      0.2287
    214  O         -9.2060    1.1290   72.5410 O.2   392  THR392     -0.2866
    215  CB       -12.2270    0.1480   71.5730 C.3   392  THR392      0.1770
    216  OG1      -13.3280    0.1300   72.4840 O.3   392  THR392     -0.2211
    217  CG2      -12.6300   -0.6220   70.3340 C.3   392  THR392      0.0375
@<TRIPOS>BOND
     1    56    55    2
     2    55    54    1
     3    46    45    2
     4    54    53    1
     5    54    57    1
     6    51    49   ar
     7    51    52   ar
     8    45    53   am
     9    45    44    1
    10    59    57    1
    11    49    48   ar
    12    52    50   ar
    13    57    58    1
    14    44    43    1
    15    44    47    1
    16    58    60    1
    17    48    50   ar
    18    48    47    1
    19   108   106    1
    20   148   146   ar
    21   140   141    1
    22   145   146    1
    23   145   144    1
    24    39    38    2
    25   102   103    1
    26   115   114    1
    27   157   158   ar
    28   157   155   ar
    29   116   114    1
    30   106   103    1
    31   106   107    1
    32   146   147   ar
    33   160   158   ar
    34   160   162   ar
    35   158   156   ar
    36   103   104    1
    37    38    37    1
    38   114   111    1
    39   155   154   ar
    40   144   141    1
    41   141   142    1
    42   110   104   am
    43   110   111    1
    44    31    30    2
    45   107   109    1
    46   162   161   ar
    47   104   105    2
    48   111   112    1
    49   142   143    2
    50   156   154   ar
    51   156   159   ar
    52   154   153    1
    53    37    36    1
    54    37    40    1
    55    30    36   am
    56    30    29    1
    57    42    40    1
    58    67    65    1
    59   112   113    2
    60   161   159   ar
    61    40    41    1
    62    29    28    1
    63    29    32    1
    64    35    33    1
    65   149   150    1
    66   153   150    1
    67    61    62    1
    68    65    62    1
    69    65    66    1
    70   150   151    1
    71    32    33    1
    72    33    34    1
    73    62    63    1
    74   117   118    1
    75   123   121    1
    76    63    64    2
    77    66    68    1
    78   174   173    1
    79    22    21    2
    80   171   173   ar
    81   171   169   ar
    82   151   163   am
    83   151   152    2
    84   163   164    1
    85   173   172   ar
    86   121   118    1
    87   121   122    1
    88   169   168   ar
    89   118   119    1
    90   128   129    1
    91   128   125    1
    92   131   129   am
    93   124   119   am
    94   124   125    1
    95   172   170   ar
    96   168   170   ar
    97   168   167    1
    98    21    20    1
    99   119   120    2
   100    15    14    2
   101   129   130    2
   102   167   164    1
   103   125   126    1
   104   164   165    1
   105   182   181   ar
   106   126   127    2
   107   165   166    2
   108    24    23    1
   109    24    25    1
   110    20    23    1
   111    20    19    1
   112    27    25   ar
   113    14    19   am
   114    14    13    1
   115    76    74    1
   116   181   183   ar
   117   181   180    1
   118   175   176    1
   119    25    26   ar
   120   179   180    1
   121   179   176    1
   122    73    74    1
   123    73    70    1
   124    13    12    1
   125    13    16    1
   126    69    70    1
   127    18    16    1
   128    74    75    1
   129   176   177    1
   130    70    71    1
   131    16    17    1
   132   138   137    1
   133   138   139    1
   134   132   133    1
   135   137   136    1
   136   177   184   am
   137   177   178    2
   138   184   185    1
   139   136   133    1
   140   200   199    1
   141    71    72    2
   142   190   188    1
   143     4     3    2
   144   133   134    1
   145   188   185    1
   146   188   189    1
   147   197   198    1
   148   197   196    1
   149   134   135    2
   150   185   186    1
   151   199   198    2
   152   199   201    1
   153     3     2    1
   154   196   195    1
   155   195   192    1
   156   186   187    2
   157   100   101   ar
   158   100    98   ar
   159   210   208   am
   160     2     1    1
   161     2     5    1
   162   101    99   ar
   163   191   192    1
   164    83    85   ar
   165    83    82   ar
   166   192   193    1
   167    85    86   ar
   168     6     5    1
   169     6     7    1
   170    98    96   ar
   171   208   209    2
   172   208   207    1
   173    82    81    1
   174    82    84   ar
   175    77    78    1
   176    81    78    1
   177    99    97   ar
   178     7     8    1
   179    80    79    2
   180    96    97   ar
   181    96    95    1
   182   193   202   am
   183   193   194    2
   184    86    84   ar
   185    86    88   ar
   186   207   206    1
   187    78    79    1
   188   202   203    1
   189    84    87   ar
   190     8     9    2
   191    88    90   ar
   192    95    92    1
   193    93    94    2
   194    93    92    1
   195   203   206    1
   196   203   204    1
   197    87    89   ar
   198    92    91    1
   199    90    89   ar
   200     9    10    1
   201     9    11    1
   202   204   205    2
   203   217   215    1
   204   215   212    1
   205   215   216    1
   206   212   213    1
   207   212   211    1
   208   214   213    2
