@<TRIPOS>MOLECULE
tmp/5iraA00.pdb
 102 98 0 0 0
SMALL
GASTEIGER

@<TRIPOS>ATOM
      1  N        -12.0160    0.8560  -15.7880 N.3    36  GLY36      -0.1210
      2  CA       -11.1350   -0.2790  -15.9970 C.3    36  GLY36       0.1956
      3  C        -11.7010   -1.3240  -16.9620 C.2    36  GLY36       0.2611
      4  O        -12.6910   -1.0550  -17.6740 O.2    36  GLY36      -0.2717
      5  N        -11.0210   -2.4350  -17.0470 N.am   37  ASN37      -0.1974
      6  CA       -11.3420   -3.4880  -18.0060 C.3    37  ASN37       0.1688
      7  C        -12.3690   -4.4030  -17.3280 C.2    37  ASN37       0.2292
      8  O        -12.0410   -5.4900  -16.8140 O.2    37  ASN37      -0.2864
      9  CB       -10.0940   -4.2220  -18.3470 C.3    37  ASN37       0.1181
     10  CG       -10.3310   -5.2470  -19.4180 C.2    37  ASN37       0.2629
     11  OD1      -11.3510   -5.2100  -20.1260 O.2    37  ASN37      -0.2716
     12  ND2       -9.4050   -6.1870  -19.5360 N.am   37  ASN37      -0.0877
     13  N        -11.4280  -10.4220  -11.6180 N.3    67  TRP67      -0.1241
     14  CA       -12.0630   -9.7270  -12.7620 C.3    67  TRP67       0.1605
     15  C        -12.2870  -10.5720  -13.9650 C.2    67  TRP67       0.2264
     16  O        -11.9280  -10.2460  -15.1010 O.2    67  TRP67      -0.2867
     17  CB       -11.2490   -8.4630  -13.0690 C.3    67  TRP67       0.0550
     18  CG       -11.1870   -7.5000  -11.9600 C.ar   67  TRP67       0.0003
     19  CD1      -10.0930   -7.2760  -11.1260 C.ar   67  TRP67       0.0946
     20  CD2      -12.2520   -6.6380  -11.5310 C.ar   67  TRP67       0.0152
     21  NE1      -10.4930   -6.3230  -10.1780 N.ar   67  TRP67      -0.2442
     22  CE2      -11.8090   -5.9610  -10.3830 C.ar   67  TRP67       0.0810
     23  CE3      -13.5800   -6.4430  -11.9260 C.ar   67  TRP67       0.0012
     24  CZ2      -12.5710   -5.0520   -9.7610 C.ar   67  TRP67       0.0191
     25  CZ3      -14.3740   -5.5130  -11.3220 C.ar   67  TRP67       0.0001
     26  CH2      -13.8880   -4.8610  -10.1450 C.ar   67  TRP67       0.0015
     27  N         -9.9390   -9.9680  -17.1850 N.3    74  ALA74      -0.1245
     28  CA        -8.9020   -9.0310  -17.0430 C.3    74  ALA74       0.1562
     29  C         -7.6420   -9.5280  -16.2930 C.2    74  ALA74       0.2260
     30  O         -6.7380   -8.7370  -16.0340 O.2    74  ALA74      -0.2867
     31  CB        -9.4120   -7.7380  -16.4280 C.3    74  ALA74       0.0290
     32  N         -6.8390  -10.4170  -13.3600 N.3    76  SER76      -0.1217
     33  CA        -6.5090   -9.5480  -12.2460 C.3    76  SER76       0.1889
     34  C         -7.4940   -9.7500  -11.1330 C.2    76  SER76       0.2288
     35  O         -8.5870  -10.2870  -11.3420 O.2    76  SER76      -0.2866
     36  CB        -6.3950   -8.0700  -12.6580 C.3    76  SER76       0.2089
     37  OG        -7.5580   -7.6340  -13.3600 O.3    76  SER76      -0.2183
     38  N         -4.9170   -4.0410   -6.3270 N.3    98  LEU98      -0.1245
     39  CA        -5.3030   -4.6950   -7.5780 C.3    98  LEU98       0.1561
     40  C         -4.0370   -5.3410   -8.1550 C.2    98  LEU98       0.2260
     41  O         -3.0860   -4.6690   -8.5170 O.2    98  LEU98      -0.2867
     42  CB        -5.9200   -3.7130   -8.5430 C.3    98  LEU98       0.0270
     43  CG        -6.3740   -4.2850   -9.9330 C.3    98  LEU98       0.0019
     44  CD1       -7.3320   -3.3170  -10.6240 C.3    98  LEU98       0.0001
     45  CD2       -5.2490   -4.7310  -10.8820 C.3    98  LEU98       0.0001
     46  N         -2.3880   -7.8120  -11.0430 N.3   100  SER100     -0.1217
     47  CA        -2.5300   -8.4580  -12.3170 C.3   100  SER100      0.1889
     48  C         -1.6300   -9.6080  -12.3960 C.2   100  SER100      0.2288
     49  O         -0.5170   -9.5810  -11.8600 O.2   100  SER100     -0.2866
     50  CB        -2.2300   -7.5140  -13.3560 C.3   100  SER100      0.2089
     51  OG        -3.1700   -6.5510  -13.4320 O.3   100  SER100     -0.2183
     52  N          1.2300  -11.4750  -14.0450 N.3   102  THR102     -0.1218
     53  CA         2.3670  -10.9620  -14.8280 C.3   102  THR102      0.1862
     54  C          3.3890  -12.0960  -14.9920 C.2   102  THR102      0.2287
     55  O          3.3600  -13.1170  -14.3070 O.2   102  THR102     -0.2866
     56  CB         3.1210   -9.8140  -14.1220 C.3   102  THR102      0.1770
     57  OG1        3.8190  -10.2630  -12.9480 O.3   102  THR102     -0.2211
     58  CG2        2.2080   -8.6520  -13.7810 C.3   102  THR102      0.0375
     59  N          7.3340   -6.7730  -10.5110 N.3   108  TRP108     -0.1227
     60  CA         7.4980   -5.5120   -9.8190 C.3   108  TRP108      0.1737
     61  C          6.4120   -4.5130  -10.0770 C.2   108  TRP108      0.2595
     62  O          6.1860   -3.6310   -9.2300 O.2   108  TRP108     -0.2718
     63  CB         8.8740   -4.8650  -10.0450 C.3   108  TRP108      0.0564
     64  CG         9.0400   -4.3630  -11.4100 C.ar  108  TRP108      0.0003
     65  CD1        9.4900   -5.0480  -12.5210 C.ar  108  TRP108      0.0946
     66  CD2        8.7960   -3.0380  -11.8530 C.ar  108  TRP108      0.0152
     67  NE1        9.4820   -4.2790  -13.5490 N.ar  108  TRP108     -0.2442
     68  CE2        9.0480   -3.0270  -13.2640 C.ar  108  TRP108      0.0810
     69  CE3        8.3070   -1.8600  -11.2310 C.ar  108  TRP108      0.0012
     70  CZ2        8.9430   -1.8940  -13.9870 C.ar  108  TRP108      0.0191
     71  CZ3        8.1610   -0.7480  -11.9840 C.ar  108  TRP108      0.0001
     72  CH2        8.5210   -0.7690  -13.3690 C.ar  108  TRP108      0.0015
     73  N          5.7830   -4.5990  -11.2790 N.am  109  LYS109     -0.1966
     74  CA         4.7290   -3.7250  -11.7190 C.3   109  LYS109      0.1728
     75  C          3.3460   -4.3950  -11.7410 C.2   109  LYS109      0.2617
     76  O          2.4430   -3.9880  -12.4680 O.2   109  LYS109     -0.2715
     77  CB         5.0750   -2.9990  -13.0120 C.3   109  LYS109      0.0311
     78  CG         5.3690   -3.8330  -14.1480 C.3   109  LYS109      0.0038
     79  CD         5.6970   -2.9820  -15.3590 C.3   109  LYS109      0.0206
     80  CE         6.1860   -3.8970  -16.4350 C.3   109  LYS109      0.1093
     81  NZ         6.3800   -3.2590  -17.7170 N.3   109  LYS109     -0.1314
     82  N          3.1940   -5.4090  -10.8830 N.am  110  SER110     -0.1936
     83  CA         1.9610   -6.1690  -10.8250 C.3   110  SER110      0.2055
     84  C          0.7880   -5.4780  -10.0760 C.2   110  SER110      0.2644
     85  O         -0.3570   -5.9000  -10.3020 O.2   110  SER110     -0.2714
     86  CB         2.1710   -7.5720  -10.2670 C.3   110  SER110      0.2130
     87  OG         2.5170   -7.4620   -8.8810 O.3   110  SER110     -0.2179
     88  N          1.0950   -4.6300   -9.1020 N.am  111  THR111     -0.1936
     89  CA         0.0890   -4.3160   -8.1220 C.3   111  THR111      0.2028
     90  C         -0.1660   -2.7810   -7.9940 C.2   111  THR111      0.2642
     91  O          0.7720   -2.0160   -7.7150 O.2   111  THR111     -0.2714
     92  CB         0.4670   -4.8130   -6.7690 C.3   111  THR111      0.1808
     93  OG1        0.8020   -6.1940   -6.8470 O.3   111  THR111     -0.2208
     94  CG2       -0.6490   -4.6880   -5.7180 C.3   111  THR111      0.0379
     95  N         -1.4170   -2.3970   -8.2210 N.am  112  LEU112     -0.1977
     96  CA        -1.9030   -1.0120   -7.9990 C.3   112  LEU112      0.1596
     97  C         -2.4380   -0.9380   -6.5930 C.2   112  LEU112      0.2287
     98  O         -3.0560   -1.9200   -6.0990 O.2   112  LEU112     -0.2864
     99  CB        -3.0460   -0.5810   -8.9670 C.3   112  LEU112      0.0297
    100  CG        -2.6450   -0.4820  -10.3930 C.3   112  LEU112      0.0022
    101  CD1       -3.8550   -0.4680  -11.3200 C.3   112  LEU112      0.0001
    102  CD2       -1.7650    0.6620  -10.6290 C.3   112  LEU112      0.0001
@<TRIPOS>BOND
     1    11    10    2
     2    12    10   am
     3    10     9    1
     4     9     6    1
     5     6     7    1
     6     6     5    1
     7    81    80    1
     8     4     3    2
     9     7     8    2
    10    27    28    1
    11     5     3   am
    12    28    31    1
    13    28    29    1
    14     3     2    1
    15    80    79    1
    16    29    30    2
    17     2     1    1
    18    79    78    1
    19    16    15    2
    20    54    53    1
    21    54    55    2
    22    53    56    1
    23    53    52    1
    24    78    77    1
    25    56    58    1
    26    56    57    1
    27    70    72   ar
    28    70    68   ar
    29    15    14    1
    30    67    68   ar
    31    67    65   ar
    32    51    50    1
    33    72    71   ar
    34    32    33    1
    35    37    36    1
    36    50    47    1
    37    68    66   ar
    38    17    14    1
    39    17    18    1
    40    77    74    1
    41    14    13    1
    42    36    33    1
    43    65    64   ar
    44    76    75    2
    45    48    47    1
    46    48    49    2
    47    47    46    1
    48    33    34    1
    49    71    69   ar
    50    18    20   ar
    51    18    19   ar
    52    23    20   ar
    53    23    25   ar
    54    66    64   ar
    55    66    69   ar
    56    75    74    1
    57    75    82   am
    58    74    73    1
    59    20    22   ar
    60    64    63    1
    61    35    34    2
    62    25    26   ar
    63   101   100    1
    64    73    61   am
    65    19    21   ar
    66    82    83    1
    67    45    43    1
    68    83    86    1
    69    83    84    1
    70   102   100    1
    71    44    43    1
    72    59    60    1
    73   100    99    1
    74    22    21   ar
    75    22    24   ar
    76    85    84    2
    77    86    87    1
    78    26    24   ar
    79    61    60    1
    80    61    62    2
    81    84    88   am
    82    63    60    1
    83    43    42    1
    84    88    89    1
    85    99    96    1
    86    42    39    1
    87    41    40    2
    88    95    96    1
    89    95    90   am
    90    40    39    1
    91    89    90    1
    92    89    92    1
    93    96    97    1
    94    90    91    2
    95    39    38    1
    96    93    92    1
    97    92    94    1
    98    97    98    2
