@<TRIPOS>MOLECULE
tmp/5irmB00.pdb
 180 175 0 0 0
SMALL
GASTEIGER

@<TRIPOS>ATOM
      1  N         13.9220   26.0470   70.2690 N.3    25  LEU25      -0.1245
      2  CA        13.8030   25.8170   68.8200 C.3    25  LEU25       0.1561
      3  C         12.6590   26.6270   68.2040 C.2    25  LEU25       0.2260
      4  O         11.5520   26.6680   68.7420 O.2    25  LEU25      -0.2867
      5  CB        13.5990   24.3250   68.5170 C.3    25  LEU25       0.0270
      6  CG        14.7690   23.3450   68.6690 C.3    25  LEU25       0.0019
      7  CD1       15.9520   23.7260   67.7870 C.3    25  LEU25       0.0001
      8  CD2       15.1970   23.2040   70.1190 C.3    25  LEU25       0.0001
      9  N         16.5060   23.3450   73.7880 N.3    30  LEU30      -0.1245
     10  CA        17.6390   22.8200   73.0220 C.3    30  LEU30       0.1561
     11  C         18.4870   21.8740   73.8510 C.2    30  LEU30       0.2260
     12  O         18.6840   20.7200   73.4790 O.2    30  LEU30      -0.2867
     13  CB        18.4940   23.9590   72.4650 C.3    30  LEU30       0.0270
     14  CG        19.6600   23.5940   71.5340 C.3    30  LEU30       0.0019
     15  CD1       19.1710   23.2350   70.1410 C.3    30  LEU30       0.0001
     16  CD2       20.6650   24.7260   71.4250 C.3    30  LEU30       0.0001
     17  N         17.3200   18.4960   73.6050 N.3    33  ILE33      -0.1231
     18  CA        17.0470   17.8940   72.2920 C.3    33  ILE33       0.1692
     19  C         18.2970   17.6550   71.4610 C.2    33  ILE33       0.2592
     20  O         18.3760   16.6240   70.7930 O.2    33  ILE33      -0.2718
     21  CB        16.0460   18.7490   71.4780 C.3    33  ILE33       0.0266
     22  CG1       14.7210   18.9000   72.2410 C.3    33  ILE33       0.0019
     23  CG2       15.7690   18.1500   70.0980 C.3    33  ILE33       0.0020
     24  CD1       14.0140   17.6040   72.6010 C.3    33  ILE33       0.0001
     25  N         19.2480   18.5930   71.4730 N.am   34  TYR34      -0.1962
     26  CA        20.4250   18.4820   70.6090 C.3    34  TYR34       0.1771
     27  C         20.9980   17.0790   70.7280 C.2    34  TYR34       0.2620
     28  O         21.4260   16.6610   71.8060 O.2    34  TYR34      -0.2715
     29  CB        21.5050   19.5290   70.9120 C.3    34  TYR34       0.0574
     30  CG        22.5990   19.5910   69.8540 C.ar   34  TYR34      -0.0198
     31  CD1       23.7080   18.7560   69.9230 C.ar   34  TYR34      -0.0009
     32  CD2       22.5270   20.4980   68.7960 C.ar   34  TYR34      -0.0009
     33  CE1       24.7110   18.8140   68.9630 C.ar   34  TYR34       0.0417
     34  CE2       23.5220   20.5610   67.8200 C.ar   34  TYR34       0.0417
     35  CZ        24.6180   19.7170   67.9030 C.ar   34  TYR34       0.1957
     36  OH        25.6160   19.7790   66.9360 O.3    34  TYR34      -0.2866
     37  N         20.9050   16.3460   69.6260 N.am   35  THR35      -0.1951
     38  CA        21.5100   15.0410   69.4760 C.3    35  THR35       0.1897
     39  C         22.7200   15.2710   68.5840 C.2    35  THR35       0.2313
     40  O         22.6520   16.0440   67.6320 O.2    35  THR35      -0.2863
     41  CB        20.5350   14.0640   68.8020 C.3    35  THR35       0.1794
     42  OG1       19.3160   13.9990   69.5540 O.3    35  THR35      -0.2208
     43  CG2       21.1320   12.6820   68.7100 C.3    35  THR35       0.0378
     44  N         25.8390   15.1610   65.9310 N.3    37  ASN37      -0.1240
     45  CA        25.7730   15.1170   64.4750 C.3    37  ASN37       0.1653
     46  C         27.1440   14.7070   63.9320 C.2    37  ASN37       0.2266
     47  O         28.1800   15.1640   64.4320 O.2    37  ASN37      -0.2867
     48  CB        25.4390   16.5390   63.9840 C.3    37  ASN37       0.1155
     49  CG        24.7780   16.5680   62.6160 C.2    37  ASN37       0.2627
     50  OD1       25.0550   15.7340   61.7580 O.2    37  ASN37      -0.2716
     51  ND2       23.9300   17.5710   62.3930 N.am   37  ASN37      -0.0877
     52  N         20.6600   20.3340   52.7240 N.3    76  ALA76      -0.1231
     53  CA        19.5240   21.0000   53.3560 C.3    76  ALA76       0.1694
     54  C         18.8920   20.0700   54.3810 C.2    76  ALA76       0.2593
     55  O         18.5690   18.9260   54.0700 O.2    76  ALA76      -0.2718
     56  CB        18.5070   21.4030   52.3180 C.3    76  ALA76       0.0304
     57  N         18.7470   20.5650   55.6040 N.am   77  GLY77      -0.1942
     58  CA        18.2380   19.7710   56.7120 C.3    77  GLY77       0.2014
     59  C         19.2560   18.8510   57.3730 C.2    77  GLY77       0.2640
     60  O         18.8740   17.9700   58.1480 O.2    77  GLY77      -0.2714
     61  N         20.5450   19.0500   57.0800 N.am   78  SER78      -0.1935
     62  CA        21.6260   18.2780   57.7120 C.3    78  SER78       0.2055
     63  C         21.8680   18.6870   59.1650 C.2    78  SER78       0.2644
     64  O         22.4420   17.9190   59.9320 O.2    78  SER78      -0.2714
     65  CB        22.9270   18.4340   56.9260 C.3    78  SER78       0.2130
     66  OG        23.2930   19.7970   56.8210 O.3    78  SER78      -0.2179
     67  N         21.4420   19.8980   59.5250 N.am   79  GLY79      -0.1939
     68  CA        21.5090   20.3950   60.9040 C.3    79  GLY79       0.2014
     69  C         22.5080   21.5150   61.1590 C.2    79  GLY79       0.2639
     70  O         23.0420   21.6190   62.2670 O.2    79  GLY79      -0.2714
     71  N         22.7560   22.3480   60.1430 N.am   80  LYS80      -0.1963
     72  CA        23.7330   23.4440   60.2160 C.3    80  LYS80       0.1728
     73  C         23.2600   24.5980   61.1010 C.2    80  LYS80       0.2617
     74  O         23.9930   25.0380   61.9930 O.2    80  LYS80      -0.2715
     75  CB        24.0250   23.9980   58.8190 C.3    80  LYS80       0.0311
     76  CG        24.6640   23.0080   57.8560 C.3    80  LYS80       0.0038
     77  CD        24.9770   23.6260   56.4950 C.3    80  LYS80       0.0206
     78  CE        23.7450   24.1250   55.7470 C.3    80  LYS80       0.1093
     79  NZ        22.7330   23.0690   55.4810 N.3    80  LYS80      -0.1314
     80  N         22.0530   25.0990   60.8330 N.am   81  SER81      -0.1936
     81  CA        21.4460   26.1580   61.6540 C.3    81  SER81       0.2055
     82  C         21.4500   25.7580   63.1250 C.2    81  SER81       0.2643
     83  O         21.8260   26.5510   63.9900 O.2    81  SER81      -0.2714
     84  CB        20.0040   26.4570   61.2180 C.3    81  SER81       0.2130
     85  OG        19.9390   26.9620   59.8960 O.3    81  SER81      -0.2179
     86  N         21.0380   24.5190   63.3890 N.am   82  THR82      -0.1950
     87  CA        20.9780   23.9740   64.7510 C.3    82  THR82       0.1897
     88  C         22.3640   23.8330   65.3860 C.2    82  THR82       0.2313
     89  O         22.5160   24.0200   66.5940 O.2    82  THR82      -0.2863
     90  CB        20.2920   22.5900   64.7710 C.3    82  THR82       0.1794
     91  OG1       19.0640   22.6460   64.0350 O.3    82  THR82      -0.2208
     92  CG2       20.0000   22.1410   66.2020 C.3    82  THR82       0.0378
     93  N         24.9420   32.4050   59.1940 N.3   154  ASP154     -0.1239
     94  CA        24.1450   31.2140   58.9290 C.3   154  ASP154      0.1674
     95  C         23.5010   31.2970   57.5560 C.2   154  ASP154      0.2266
     96  O         22.8070   32.2630   57.2460 O.2   154  ASP154     -0.2867
     97  CB        23.0590   31.0420   59.9970 C.3   154  ASP154      0.1410
     98  CG        22.4260   29.6540   59.9870 C.2   154  ASP154      0.3668
     99  OD1       22.8770   28.7700   59.2190 O.co2 154  ASP154     -0.2456
    100  OD2       21.4720   29.4440   60.7680 O.co2 154  ASP154     -0.2456
    101  N         25.1170   25.3790   51.8920 N.3   201  ARG201     -0.1245
    102  CA        24.7370   24.1730   51.1790 C.3   201  ARG201      0.1563
    103  C         25.9650   23.7990   50.3680 C.2   201  ARG201      0.2260
    104  O         26.8630   24.6250   50.2420 O.2   201  ARG201     -0.2867
    105  CB        23.5460   24.4570   50.2820 C.3   201  ARG201      0.0307
    106  CG        22.3590   25.0280   51.0370 C.3   201  ARG201      0.0489
    107  CD        21.2460   24.0320   51.1100 C.3   201  ARG201      0.2205
    108  NE        20.4330   23.9230   49.8960 N.pl3 201  ARG201     -0.0865
    109  CZ        19.4180   24.7210   49.5830 C.cat 201  ARG201      0.5346
    110  NH1       19.0910   25.7560   50.3440 N.pl3 201  ARG201      0.1354
    111  NH2       18.7260   24.5180   48.4690 N.pl3 201  ARG201      0.1354
    112  N         22.6430   12.5150   61.3140 N.3   222  PHE222     -0.1241
    113  CA        22.5700   11.5300   62.3990 C.3   222  PHE222      0.1605
    114  C         23.0700   10.1550   61.9650 C.2   222  PHE222      0.2264
    115  O         22.7610    9.6860   60.8670 O.2   222  PHE222     -0.2867
    116  CB        21.1240   11.3470   62.9180 C.3   222  PHE222      0.0534
    117  CG        20.5540   12.5260   63.6760 C.ar  222  PHE222     -0.0203
    118  CD1       21.3630   13.4360   64.3660 C.ar  222  PHE222     -0.0042
    119  CD2       19.1670   12.6850   63.7450 C.ar  222  PHE222     -0.0042
    120  CE1       20.8000   14.4930   65.0640 C.ar  222  PHE222     -0.0003
    121  CE2       18.6010   13.7400   64.4450 C.ar  222  PHE222     -0.0003
    122  CZ        19.4190   14.6460   65.1070 C.ar  222  PHE222     -0.0000
    123  N         17.6610   10.7420   69.5270 N.3   230  TYR230     -0.1241
    124  CA        16.7520   11.8440   69.2210 C.3   230  TYR230      0.1605
    125  C         15.3060   11.4780   69.5570 C.2   230  TYR230      0.2264
    126  O         14.6110   12.2500   70.2150 O.2   230  TYR230     -0.2867
    127  CB        16.8620   12.2520   67.7480 C.3   230  TYR230      0.0534
    128  CG        15.9130   13.3630   67.3490 C.ar  230  TYR230     -0.0201
    129  CD1       16.2370   14.7010   67.5900 C.ar  230  TYR230     -0.0009
    130  CD2       14.6830   13.0770   66.7340 C.ar  230  TYR230     -0.0009
    131  CE1       15.3620   15.7280   67.2270 C.ar  230  TYR230      0.0417
    132  CE2       13.8000   14.0940   66.3720 C.ar  230  TYR230      0.0417
    133  CZ        14.1460   15.4170   66.6170 C.ar  230  TYR230      0.1957
    134  OH        13.2780   16.4230   66.2540 O.3   230  TYR230     -0.2866
    135  N         18.5810   14.8920   59.8780 N.3   261  PRO261     -0.2102
    136  CA        17.7840   15.3230   61.0410 C.3   261  PRO261      0.1504
    137  C         16.3760   15.8520   60.7340 C.2   261  PRO261      0.2575
    138  O         15.4330   15.5240   61.4500 O.2   261  PRO261     -0.2718
    139  CB        18.6390   16.4270   61.6580 C.3   261  PRO261      0.0282
    140  CG        20.0350   16.0540   61.3110 C.3   261  PRO261      0.0208
    141  CD        19.9740   15.3730   59.9720 C.3   261  PRO261      0.0893
    142  N         16.2390   16.6370   59.6680 N.am  262  VAL262     -0.1980
    143  CA        14.9340   17.1980   59.2810 C.3   262  VAL262      0.1595
    144  C         13.8420   16.1300   59.1030 C.2   262  VAL262      0.2287
    145  O         12.6690   16.3910   59.3790 O.2   262  VAL262     -0.2864
    146  CB        15.0380   18.0720   58.0060 C.3   262  VAL262      0.0276
    147  CG1       15.3060   17.2310   56.7610 C.3   262  VAL262      0.0022
    148  CG2       13.7880   18.9250   57.8240 C.3   262  VAL262      0.0022
    149  N         12.9510   14.7150   62.5770 N.3   265  TRP265     -0.1241
    150  CA        11.9850   15.6530   63.1590 C.3   265  TRP265      0.1605
    151  C         10.5610   15.3850   62.6650 C.2   265  TRP265      0.2264
    152  O          9.6260   15.3680   63.4650 O.2   265  TRP265     -0.2867
    153  CB        12.3720   17.1150   62.8770 C.3   265  TRP265      0.0550
    154  CG        11.2600   18.0680   63.2010 C.ar  265  TRP265      0.0003
    155  CD1       10.8820   18.4890   64.4370 C.ar  265  TRP265      0.0946
    156  CD2       10.3490   18.6670   62.2740 C.ar  265  TRP265      0.0152
    157  NE1        9.7970   19.3320   64.3410 N.ar  265  TRP265     -0.2442
    158  CE2        9.4500   19.4550   63.0210 C.ar  265  TRP265      0.0810
    159  CE3       10.2090   18.6160   60.8790 C.ar  265  TRP265      0.0012
    160  CZ2        8.4220   20.1930   62.4220 C.ar  265  TRP265      0.0191
    161  CZ3        9.1850   19.3500   60.2830 C.ar  265  TRP265      0.0001
    162  CH2        8.3060   20.1270   61.0570 C.ar  265  TRP265      0.0015
    163  N         11.0400   25.7100   56.9480 N.3   368  HIS368     -0.1226
    164  CA        12.3830   25.3550   56.5180 C.3   368  HIS368      0.1752
    165  C         12.4710   25.6730   55.0280 C.2   368  HIS368      0.2595
    166  O         11.4440   25.7170   54.3420 O.2   368  HIS368     -0.2718
    167  CB        12.6400   23.8700   56.7960 C.3   368  HIS368      0.0759
    168  CG        14.0440   23.4240   56.5130 C.ar  368  HIS368      0.0818
    169  ND1       14.3450   22.4890   55.5450 N.ar  368  HIS368     -0.2268
    170  CD2       15.2260   23.7800   57.0690 C.ar  368  HIS368      0.1154
    171  CE1       15.6500   22.2930   55.5140 C.ar  368  HIS368      0.1986
    172  NE2       16.2080   23.0600   56.4330 N.ar  368  HIS368     -0.2212
    173  N         13.6830   25.9080   54.5290 N.am  369  ILE369     -0.1980
    174  CA        13.8770   26.2130   53.1000 C.3   369  ILE369      0.1595
    175  C         13.2310   25.1820   52.1600 C.2   369  ILE369      0.2287
    176  O         12.7480   25.5340   51.0900 O.2   369  ILE369     -0.2864
    177  CB        15.3770   26.3640   52.7360 C.3   369  ILE369      0.0276
    178  CG1       15.5710   26.9100   51.3120 C.3   369  ILE369      0.0022
    179  CG2       16.1080   25.0330   52.8600 C.3   369  ILE369      0.0022
    180  CD1       14.8930   28.2340   51.0230 C.3   369  ILE369      0.0001
@<TRIPOS>BOND
     1   111   109    1
     2   109   108    2
     3   109   110    1
     4   108   107    1
     5   104   103    2
     6   105   106    1
     7   105   102    1
     8   103   102    1
     9   180   178    1
    10   106   107    1
    11   176   175    2
    12   102   101    1
    13   178   177    1
    14   175   174    1
    15    56    53    1
    16    52    53    1
    17   177   179    1
    18   177   174    1
    19   174   173    1
    20    53    54    1
    21    55    54    2
    22   166   165    2
    23    54    57   am
    24   173   165   am
    25   165   164    1
    26    79    78    1
    27   171   169   ar
    28   171   172   ar
    29   169   168   ar
    30    57    58    1
    31    78    77    1
    32   172   170   ar
    33    77    76    1
    34   168   167    1
    35   168   170   ar
    36   164   167    1
    37   164   163    1
    38    58    59    1
    39   147   146    1
    40    66    65    1
    41    65    62    1
    42    61    59   am
    43    61    62    1
    44    96    95    2
    45    59    60    2
    46    95    94    1
    47    62    63    1
    48   148   146    1
    49    76    75    1
    50   146   143    1
    51    75    72    1
    52    94    93    1
    53    94    97    1
    54   144   143    1
    55   144   145    2
    56    63    67   am
    57    63    64    2
    58    99    98   ar
    59   143   142    1
    60    67    68    1
    61   142   137   am
    62   135   141    1
    63   135   136    1
    64    85    84    1
    65   141   140    1
    66    98    97    1
    67    98   100   ar
    68    71    72    1
    69    71    69   am
    70    72    73    1
    71   161   159   ar
    72   161   162   ar
    73   137   136    1
    74   137   138    2
    75    80    73   am
    76    80    81    1
    77   115   114    2
    78   159   156   ar
    79    68    69    1
    80   136   139    1
    81   162   160   ar
    82    73    74    2
    83    69    70    2
    84    84    81    1
    85   140   139    1
    86   112   113    1
    87    81    82    1
    88    50    49    2
    89   114   113    1
    90   156   158   ar
    91   156   154   ar
    92    51    49   am
    93   113   116    1
    94   160   158   ar
    95   149   150    1
    96    49    48    1
    97   151   150    1
    98   151   152    2
    99   153   150    1
   100   153   154    1
   101   116   117    1
   102   158   157   ar
   103    82    86   am
   104    82    83    2
   105   154   155   ar
   106    86    87    1
   107   117   119   ar
   108   117   118   ar
   109   119   121   ar
   110    46    47    2
   111    46    45    1
   112    48    45    1
   113    91    90    1
   114   157   155   ar
   115   118   120   ar
   116   121   122   ar
   117    45    44    1
   118    87    90    1
   119    87    88    1
   120    90    92    1
   121   120   122   ar
   122    88    89    2
   123   134   133    1
   124   132   133   ar
   125   132   130   ar
   126   133   131   ar
   127   130   128   ar
   128    36    35    1
   129   131   129   ar
   130   128   129   ar
   131   128   127    1
   132    40    39    2
   133   127   124    1
   134     7     6    1
   135    34    35   ar
   136    34    32   ar
   137    35    33   ar
   138     3     4    2
   139     3     2    1
   140     5     6    1
   141     5     2    1
   142    39    38    1
   143     6     8    1
   144    43    41    1
   145    32    30   ar
   146    41    38    1
   147    41    42    1
   148     2     1    1
   149    33    31   ar
   150   124   123    1
   151   124   125    1
   152    38    37    1
   153   125   126    2
   154    37    27   am
   155    30    31   ar
   156    30    29    1
   157    23    21    1
   158    15    14    1
   159    26    27    1
   160    26    29    1
   161    26    25    1
   162    27    28    2
   163    20    19    2
   164    16    14    1
   165    19    25   am
   166    19    18    1
   167    21    22    1
   168    21    18    1
   169    14    13    1
   170    22    24    1
   171    18    17    1
   172    13    10    1
   173    10     9    1
   174    10    11    1
   175    12    11    2
