@<TRIPOS>MOLECULE
tmp/5irpA01.pdb
 85 81 0 0 0
SMALL
GASTEIGER

@<TRIPOS>ATOM
      1  N         20.4870   52.8280  345.0080 N.3   170  PHE170     -0.1227
      2  CA        20.7090   53.0500  343.5800 C.3   170  PHE170      0.1736
      3  C         21.4190   51.8480  342.9810 C.2   170  PHE170      0.2596
      4  O         22.3840   51.3360  343.5570 O.2   170  PHE170     -0.2718
      5  CB        21.5840   54.2810  343.3190 C.3   170  PHE170      0.0547
      6  CG        20.9910   55.5900  343.7640 C.ar  170  PHE170     -0.0202
      7  CD1       19.8130   56.0650  343.2190 C.ar  170  PHE170     -0.0042
      8  CD2       21.6700   56.3860  344.6740 C.ar  170  PHE170     -0.0042
      9  CE1       19.2940   57.3020  343.6130 C.ar  170  PHE170     -0.0003
     10  CE2       21.1590   57.6130  345.0650 C.ar  170  PHE170     -0.0003
     11  CZ        19.9750   58.0700  344.5290 C.ar  170  PHE170     -0.0000
     12  N         20.9970   51.4410  341.7810 N.am  171  SER171     -0.1952
     13  CA        21.5840   50.2430  341.1970 C.3   171  SER171      0.1924
     14  C         22.6380   50.5200  340.1220 C.2   171  SER171      0.2314
     15  O         23.3780   49.6000  339.7610 O.2   171  SER171     -0.2863
     16  CB        20.4780   49.3440  340.6310 C.3   171  SER171      0.2116
     17  OG        20.0200   49.8060  339.3810 O.3   171  SER171     -0.2180
     18  N         24.5020   53.9060  339.9620 N.3   173  ALA173     -0.1231
     19  CA        25.0900   55.2180  340.2140 C.3   173  ALA173      0.1694
     20  C         26.5980   55.2630  339.9650 C.2   173  ALA173      0.2592
     21  O         27.1820   56.3570  339.9720 O.2   173  ALA173     -0.2718
     22  CB        24.7910   55.6580  341.6530 C.3   173  ALA173      0.0304
     23  N         27.2460   54.1200  339.7640 N.am  174  ASP174     -0.1960
     24  CA        28.6550   54.0870  339.4040 C.3   174  ASP174      0.1840
     25  C         28.8710   53.9840  337.8950 C.2   174  ASP174      0.2621
     26  O         29.9820   53.6670  337.4630 O.2   174  ASP174     -0.2715
     27  CB        29.3520   52.9180  340.0950 C.3   174  ASP174      0.1450
     28  CG        28.8340   51.5750  339.6110 C.2   174  ASP174      0.3671
     29  OD1       27.6390   51.4990  339.2500 O.co2 174  ASP174     -0.2456
     30  OD2       29.6160   50.6000  339.5930 O.co2 174  ASP174     -0.2456
     31  N         27.8320   54.2530  337.0780 N.am  175  GLU175     -0.1977
     32  CA        27.9520   54.0370  335.6350 C.3   175  GLU175      0.1602
     33  C         27.8980   55.3530  334.8680 C.2   175  GLU175      0.2287
     34  O         27.2650   56.3100  335.3270 O.2   175  GLU175     -0.2864
     35  CB        26.8350   53.1200  335.1230 C.3   175  GLU175      0.0415
     36  CG        26.8200   51.7340  335.7620 C.3   175  GLU175      0.1163
     37  CD        25.9700   50.7350  334.9830 C.2   175  GLU175      0.3649
     38  OE1       25.1640   51.1500  334.1150 O.co2 175  GLU175     -0.2457
     39  OE2       26.1150   49.5210  335.2360 O.co2 175  GLU175     -0.2457
     40  N         24.9670   55.5190  348.1970 N.3   209  ASN209     -0.1240
     41  CA        26.1360   54.6760  348.4030 C.3   209  ASN209      0.1653
     42  C         27.3870   55.5100  348.1020 C.2   209  ASN209      0.2266
     43  O         27.3000   56.7120  347.8510 O.2   209  ASN209     -0.2867
     44  CB        26.0390   53.4010  347.5380 C.3   209  ASN209      0.1155
     45  CG        25.6190   53.6660  346.0180 C.2   209  ASN209      0.2627
     46  OD1       25.5990   54.8030  345.4960 O.2   209  ASN209     -0.2716
     47  ND2       25.2900   52.5620  345.3220 N.am  209  ASN209     -0.0877
     48  N         29.1980   55.5660  345.3870 N.3   211  ALA211     -0.1245
     49  CA        29.1610   56.1080  344.0290 C.3   211  ALA211      0.1562
     50  C         28.3540   57.3980  343.9720 C.2   211  ALA211      0.2260
     51  O         28.8370   58.4190  343.4740 O.2   211  ALA211     -0.2867
     52  CB        28.5900   55.0760  343.0480 C.3   211  ALA211      0.0290
     53  N         33.9280   52.5540  343.7960 N.3   235  PRO235     -0.2102
     54  CA        32.8750   51.6450  343.3070 C.3   235  PRO235      0.1504
     55  C         33.0170   51.2650  341.8390 C.2   235  PRO235      0.2576
     56  O         32.4690   50.2380  341.4310 O.2   235  PRO235     -0.2718
     57  CB        31.5800   52.4320  343.5520 C.3   235  PRO235      0.0282
     58  CG        32.0060   53.8830  343.6340 C.3   235  PRO235      0.0208
     59  CD        33.3920   53.8630  344.2250 C.3   235  PRO235      0.0893
     60  N         33.7150   52.0560  341.0320 N.am  236  SER236     -0.1953
     61  CA        33.9270   51.7140  339.6310 C.3   236  SER236      0.1924
     62  C         35.0550   52.5800  339.0970 C.2   236  SER236      0.2314
     63  O         35.3490   53.6560  339.6390 O.2   236  SER236     -0.2863
     64  CB        32.6550   51.9100  338.7830 C.3   236  SER236      0.2116
     65  OG        32.3610   53.2890  338.5910 O.3   236  SER236     -0.2180
     66  N         34.8350   42.3920  340.8170 N.3   362  ILE362     -0.1245
     67  CA        34.9310   43.7450  341.3500 C.3   362  ILE362      0.1561
     68  C         35.7150   43.7130  342.6580 C.2   362  ILE362      0.2260
     69  O         35.8230   42.6800  343.3280 O.2   362  ILE362     -0.2867
     70  CB        33.5400   44.3800  341.5570 C.3   362  ILE362      0.0252
     71  CG1       32.7010   43.5250  342.5070 C.3   362  ILE362      0.0019
     72  CG2       32.8290   44.5610  340.2100 C.3   362  ILE362      0.0019
     73  CD1       31.2780   44.0090  342.6950 C.3   362  ILE362      0.0001
     74  N         35.0380   44.8970  345.5250 N.3   364  TYR364     -0.1241
     75  CA        34.1810   44.4480  346.6330 C.3   364  TYR364      0.1605
     76  C         34.3640   42.9580  346.9250 C.2   364  TYR364      0.2264
     77  O         34.4530   42.5400  348.0890 O.2   364  TYR364     -0.2867
     78  CB        32.6970   44.6780  346.3270 C.3   364  TYR364      0.0534
     79  CG        32.1700   46.0810  346.1260 C.ar  364  TYR364     -0.0201
     80  CD1       32.4380   46.7850  344.9510 C.ar  364  TYR364     -0.0009
     81  CD2       31.3030   46.6580  347.0530 C.ar  364  TYR364     -0.0009
     82  CE1       31.9100   48.0490  344.7320 C.ar  364  TYR364      0.0417
     83  CE2       30.7730   47.9380  346.8450 C.ar  364  TYR364      0.0417
     84  CZ        31.0850   48.6240  345.6730 C.ar  364  TYR364      0.1957
     85  OH        30.5690   49.8850  345.4320 O.3   364  TYR364     -0.2866
@<TRIPOS>BOND
     1    38    37   ar
     2    33    34    2
     3    33    32    1
     4    37    39   ar
     5    37    36    1
     6    35    32    1
     7    35    36    1
     8    32    31    1
     9    31    25   am
    10    26    25    2
    11    25    24    1
    12    65    64    1
    13    64    61    1
    14    62    61    1
    15    62    63    2
    16    29    28   ar
    17    17    16    1
    18    24    23    1
    19    24    27    1
    20    30    28   ar
    21    28    27    1
    22    61    60    1
    23    15    14    2
    24    23    20   am
    25    18    19    1
    26    20    21    2
    27    20    19    1
    28    14    13    1
    29    72    70    1
    30    19    22    1
    31    16    13    1
    32    66    67    1
    33    60    55   am
    34    13    12    1
    35    67    70    1
    36    67    68    1
    37    56    55    2
    38    70    71    1
    39    12     3   am
    40    55    54    1
    41    71    73    1
    42    68    69    2
    43     3     4    2
    44     3     2    1
    45    52    49    1
    46     7     9   ar
    47     7     6   ar
    48    54    57    1
    49    54    53    1
    50     5     2    1
    51     5     6    1
    52    51    50    2
    53    57    58    1
    54     2     1    1
    55     9    11   ar
    56    58    59    1
    57     6     8   ar
    58    53    59    1
    59    50    49    1
    60    49    48    1
    61    11    10   ar
    62     8    10   ar
    63    82    80   ar
    64    82    84   ar
    65    80    79   ar
    66    47    45   am
    67    85    84    1
    68    46    45    2
    69    74    75    1
    70    84    83   ar
    71    45    44    1
    72    79    78    1
    73    79    81   ar
    74    78    75    1
    75    75    76    1
    76    83    81   ar
    77    76    77    2
    78    44    41    1
    79    43    42    2
    80    42    41    1
    81    40    41    1
