@<TRIPOS>MOLECULE
tmp/5irpA00.pdb
 133 125 0 0 0
SMALL
GASTEIGER

@<TRIPOS>ATOM
      1  N         29.4080   51.5890  356.4150 N.3    37  VAL37      -0.1245
      2  CA        28.8900   50.2670  356.0730 C.3    37  VAL37       0.1561
      3  C         29.9780   49.2390  356.3730 C.2    37  VAL37       0.2260
      4  O         30.9990   49.1800  355.6860 O.2    37  VAL37      -0.2867
      5  CB        28.4410   50.1860  354.6060 C.3    37  VAL37       0.0252
      6  CG1       27.8070   48.8150  354.3320 C.3    37  VAL37       0.0019
      7  CG2       27.4500   51.3060  354.2790 C.3    37  VAL37       0.0019
      8  N         29.2860   45.7890  356.8750 N.3    39  LYS39      -0.1245
      9  CA        28.7790   44.4410  356.6780 C.3    39  LYS39       0.1561
     10  C         29.8840   43.5300  356.1520 C.2    39  LYS39       0.2260
     11  O         30.9390   43.9810  355.6850 O.2    39  LYS39      -0.2867
     12  CB        27.5870   44.4520  355.7180 C.3    39  LYS39       0.0271
     13  CG        27.8950   44.9370  354.2940 C.3    39  LYS39       0.0035
     14  CD        26.6170   45.4690  353.6370 C.3    39  LYS39       0.0206
     15  CE        26.7930   45.7150  352.1530 C.3    39  LYS39       0.1093
     16  NZ        26.6590   44.4480  351.4020 N.3    39  LYS39      -0.1314
     17  N         33.7610   44.4430  355.0510 N.3    43  TYR43      -0.1241
     18  CA        34.2460   44.1410  353.7070 C.3    43  TYR43       0.1605
     19  C         35.5570   43.3580  353.7720 C.2    43  TYR43       0.2264
     20  O         36.4860   43.6140  353.0080 O.2    43  TYR43      -0.2867
     21  CB        34.4440   45.4190  352.8810 C.3    43  TYR43       0.0534
     22  CG        33.1990   46.1240  352.3610 C.ar   43  TYR43      -0.0201
     23  CD1       32.0390   46.2170  353.1220 C.ar   43  TYR43      -0.0009
     24  CD2       33.2130   46.7480  351.1120 C.ar   43  TYR43      -0.0009
     25  CE1       30.9110   46.8950  352.6370 C.ar   43  TYR43       0.0417
     26  CE2       32.1060   47.4120  350.6200 C.ar   43  TYR43       0.0417
     27  CZ        30.9550   47.4850  351.3910 C.ar   43  TYR43       0.1957
     28  OH        29.8520   48.1470  350.9020 O.3    43  TYR43      -0.2866
     29  N         20.5760   45.9630  356.9780 N.3    85  LEU85      -0.1245
     30  CA        20.1630   46.3530  355.6240 C.3    85  LEU85       0.1561
     31  C         19.3030   45.2980  354.9290 C.2    85  LEU85       0.2260
     32  O         18.5290   45.6300  354.0200 O.2    85  LEU85      -0.2867
     33  CB        21.3920   46.6300  354.7490 C.3    85  LEU85       0.0270
     34  CG        22.2450   47.8660  355.0550 C.3    85  LEU85       0.0019
     35  CD1       23.5230   47.8600  354.2030 C.3    85  LEU85       0.0001
     36  CD2       21.4410   49.1350  354.8090 C.3    85  LEU85       0.0001
     37  N         12.5730   50.5050  353.8110 N.3   132  ASN132     -0.1240
     38  CA        13.2400   50.4130  352.5150 C.3   132  ASN132      0.1653
     39  C         12.2310   50.6630  351.3950 C.2   132  ASN132      0.2266
     40  O         11.2170   49.9610  351.3000 O.2   132  ASN132     -0.2867
     41  CB        13.8870   49.0330  352.3590 C.3   132  ASN132      0.1155
     42  CG        14.7210   48.8990  351.0810 C.2   132  ASN132      0.2627
     43  OD1       14.6330   49.7180  350.1620 O.2   132  ASN132     -0.2716
     44  ND2       15.5280   47.8460  351.0230 N.am  132  ASN132     -0.0877
     45  N         15.4430   44.4790  344.8700 N.3   139  ARG139     -0.1245
     46  CA        15.9570   43.4980  345.8220 C.3   139  ARG139      0.1563
     47  C         15.0110   43.3860  347.0160 C.2   139  ARG139      0.2260
     48  O         14.2900   42.3940  347.1640 O.2   139  ARG139     -0.2867
     49  CB        17.3780   43.8910  346.2670 C.3   139  ARG139      0.0307
     50  CG        18.1200   42.8360  347.1120 C.3   139  ARG139      0.0489
     51  CD        19.6040   43.1920  347.2510 C.3   139  ARG139      0.2205
     52  NE        19.7770   44.5590  347.7410 N.pl3 139  ARG139     -0.0865
     53  CZ        20.9570   45.1340  347.9480 C.cat 139  ARG139      0.5346
     54  NH1       22.0710   44.4560  347.7100 N.pl3 139  ARG139      0.1354
     55  NH2       21.0260   46.3880  348.3960 N.pl3 139  ARG139      0.1354
     56  N         14.8360   54.8320  353.2920 N.3   167  PHE167     -0.1241
     57  CA        15.9470   54.8090  352.3550 C.3   167  PHE167      0.1605
     58  C         15.5870   54.0880  351.0600 C.2   167  PHE167      0.2264
     59  O         14.5850   53.3700  350.9640 O.2   167  PHE167     -0.2867
     60  CB        17.1930   54.1830  352.9970 C.3   167  PHE167      0.0534
     61  CG        17.0860   52.7020  353.2860 C.ar  167  PHE167     -0.0203
     62  CD1       16.5120   52.2460  354.4710 C.ar  167  PHE167     -0.0042
     63  CD2       17.6200   51.7670  352.4040 C.ar  167  PHE167     -0.0042
     64  CE1       16.4440   50.8800  354.7570 C.ar  167  PHE167     -0.0003
     65  CE2       17.5540   50.3950  352.6770 C.ar  167  PHE167     -0.0003
     66  CZ        16.9630   49.9550  353.8570 C.ar  167  PHE167     -0.0000
     67  N         18.0800   52.3580  347.4990 N.3   169  HIS169     -0.1241
     68  CA        19.3920   51.9730  347.0040 C.3   169  HIS169      0.1621
     69  C         19.4290   52.1650  345.4940 C.2   169  HIS169      0.2264
     70  O         18.4970   51.7460  344.7930 O.2   169  HIS169     -0.2867
     71  CB        19.7080   50.5180  347.3660 C.3   169  HIS169      0.0745
     72  CG        21.1700   50.1990  347.3430 C.ar  169  HIS169      0.0817
     73  ND1       22.0950   50.9000  348.0860 N.ar  169  HIS169     -0.2268
     74  CD2       21.8690   49.2610  346.6590 C.ar  169  HIS169      0.1154
     75  CE1       23.3020   50.4100  347.8590 C.ar  169  HIS169      0.1986
     76  NE2       23.1920   49.4100  347.0030 N.ar  169  HIS169     -0.2212
     77  N         24.9670   55.5190  348.1970 N.3   209  ASN209     -0.1225
     78  CA        26.1360   54.6760  348.4030 C.3   209  ASN209      0.1785
     79  C         27.3870   55.5100  348.1020 C.2   209  ASN209      0.2597
     80  O         27.3000   56.7120  347.8510 O.2   209  ASN209     -0.2718
     81  CB        26.0390   53.4010  347.5380 C.3   209  ASN209      0.1169
     82  CG        25.6190   53.6660  346.0180 C.2   209  ASN209      0.2627
     83  OD1       25.5990   54.8030  345.4960 O.2   209  ASN209     -0.2716
     84  ND2       25.2900   52.5620  345.3220 N.am  209  ASN209     -0.0877
     85  N         28.5760   54.8890  348.1060 N.am  210  THR210     -0.1953
     86  CA        29.7930   55.6260  347.7620 C.3   210  THR210      0.1897
     87  C         29.6720   56.3020  346.3970 C.2   210  THR210      0.2313
     88  O         29.9880   57.4940  346.2530 O.2   210  THR210     -0.2863
     89  CB        31.0110   54.7030  347.7760 C.3   210  THR210      0.1794
     90  OG1       31.1510   54.0960  349.0670 O.3   210  THR210     -0.2208
     91  CG2       32.2720   55.4820  347.4630 C.3   210  THR210      0.0378
     92  N         25.3960   56.3620  353.0200 N.3   225  ARG225     -0.1245
     93  CA        25.9100   55.0660  353.4420 C.3   225  ARG225      0.1563
     94  C         27.2500   54.8720  352.7460 C.2   225  ARG225      0.2260
     95  O         27.3010   54.5660  351.5480 O.2   225  ARG225     -0.2867
     96  CB        24.9140   53.9540  353.1100 C.3   225  ARG225      0.0307
     97  CG        23.5360   54.1890  353.7300 C.3   225  ARG225      0.0489
     98  CD        22.6090   52.9970  353.5390 C.3   225  ARG225      0.2205
     99  NE        22.3720   52.6820  352.1390 N.pl3 225  ARG225     -0.0865
    100  CZ        21.4510   53.2590  351.3720 C.cat 225  ARG225      0.5346
    101  NH1       20.6660   54.2050  351.8570 N.pl3 225  ARG225      0.1354
    102  NH2       21.3150   52.8840  350.1070 N.pl3 225  ARG225      0.1354
    103  N         30.3120   52.7840  352.0490 N.3   227  GLY227     -0.1210
    104  CA        30.8400   51.4440  352.0840 C.3   227  GLY227      0.1956
    105  C         32.2250   51.3570  351.4870 C.2   227  GLY227      0.2611
    106  O         33.2130   51.6670  352.1590 O.2   227  GLY227     -0.2717
    107  N         32.2920   50.9610  350.2110 N.am  228  ILE228     -0.1979
    108  CA        33.5670   50.6600  349.5580 C.3   228  ILE228      0.1595
    109  C         34.5610   51.8060  349.7220 C.2   228  ILE228      0.2287
    110  O         35.7670   51.5820  349.8970 O.2   228  ILE228     -0.2864
    111  CB        33.3310   50.3120  348.0700 C.3   228  ILE228      0.0276
    112  CG1       34.5970   49.7190  347.4480 C.3   228  ILE228      0.0022
    113  CG2       32.8570   51.5400  347.2610 C.3   228  ILE228      0.0022
    114  CD1       34.9620   48.3280  347.9700 C.3   228  ILE228      0.0001
    115  N         33.9280   52.5540  343.7960 N.3   235  PRO235     -0.2116
    116  CA        32.8750   51.6450  343.3070 C.3   235  PRO235      0.1372
    117  C         33.0170   51.2650  341.8390 C.2   235  PRO235      0.2244
    118  O         32.4690   50.2380  341.4310 O.2   235  PRO235     -0.2868
    119  CB        31.5800   52.4320  343.5520 C.3   235  PRO235      0.0268
    120  CG        32.0060   53.8830  343.6340 C.3   235  PRO235      0.0207
    121  CD        33.3920   53.8630  344.2250 C.3   235  PRO235      0.0892
    122  N         35.0380   44.8970  345.5250 N.3   364  TYR364     -0.1241
    123  CA        34.1810   44.4480  346.6330 C.3   364  TYR364      0.1605
    124  C         34.3640   42.9580  346.9250 C.2   364  TYR364      0.2264
    125  O         34.4530   42.5400  348.0890 O.2   364  TYR364     -0.2867
    126  CB        32.6970   44.6780  346.3270 C.3   364  TYR364      0.0534
    127  CG        32.1700   46.0810  346.1260 C.ar  364  TYR364     -0.0201
    128  CD1       32.4380   46.7850  344.9510 C.ar  364  TYR364     -0.0009
    129  CD2       31.3030   46.6580  347.0530 C.ar  364  TYR364     -0.0009
    130  CE1       31.9100   48.0490  344.7320 C.ar  364  TYR364      0.0417
    131  CE2       30.7730   47.9380  346.8450 C.ar  364  TYR364      0.0417
    132  CZ        31.0850   48.6240  345.6730 C.ar  364  TYR364      0.1957
    133  OH        30.5690   49.8850  345.4320 O.3   364  TYR364     -0.2866
@<TRIPOS>BOND
     1   118   117    2
     2   117   116    1
     3   116   119    1
     4   116   115    1
     5   119   120    1
     6   120   121    1
     7   115   121    1
     8   130   128   ar
     9   130   132   ar
    10    70    69    2
    11    45    46    1
    12   128   127   ar
    13    84    82   am
    14   133   132    1
    15    69    68    1
    16    83    82    2
    17   122   123    1
    18   132   131   ar
    19    46    49    1
    20    46    47    1
    21    82    81    1
    22   127   126    1
    23   127   129   ar
    24    88    87    2
    25    49    50    1
    26   126   123    1
    27    87    86    1
    28   123   124    1
    29    74    76   ar
    30    74    72   ar
    31   131   129   ar
    32   124   125    2
    33    76    75   ar
    34    68    71    1
    35    68    67    1
    36    47    48    2
    37    50    51    1
    38    51    52    1
    39   113   111    1
    40    72    71    1
    41    72    73   ar
    42   112   114    1
    43   112   111    1
    44    91    89    1
    45    81    78    1
    46    54    53    1
    47    52    53    2
    48    86    89    1
    49    86    85    1
    50    89    90    1
    51    80    79    2
    52    75    73   ar
    53    53    55    1
    54   111   108    1
    55    79    85   am
    56    79    78    1
    57    77    78    1
    58   108   109    1
    59   108   107    1
    60   109   110    2
    61   102   100    1
    62    43    42    2
    63   107   105   am
    64    26    24   ar
    65    26    27   ar
    66    28    27    1
    67    59    58    2
    68    44    42   am
    69    58    57    1
    70    42    41    1
    71    24    22   ar
    72    40    39    2
    73   100   101    1
    74   100    99    2
    75    27    25   ar
    76    39    38    1
    77    16    15    1
    78   105   104    1
    79   105   106    2
    80    95    94    2
    81   103   104    1
    82    99    98    1
    83    15    14    1
    84    57    60    1
    85    57    56    1
    86    41    38    1
    87    22    21    1
    88    22    23   ar
    89    63    65   ar
    90    63    61   ar
    91    38    37    1
    92    25    23   ar
    93    65    66   ar
    94    94    93    1
    95    21    18    1
    96    60    61    1
    97    20    19    2
    98    92    93    1
    99    96    93    1
   100    96    97    1
   101    61    62   ar
   102    98    97    1
   103    14    13    1
   104    18    19    1
   105    18    17    1
   106    66    64   ar
   107    32    31    2
   108    35    34    1
   109     7     5    1
   110    13    12    1
   111     6     5    1
   112    62    64   ar
   113     5     2    1
   114    33    34    1
   115    33    30    1
   116    36    34    1
   117    31    30    1
   118    30    29    1
   119    11    10    2
   120     4     3    2
   121    12     9    1
   122     2     3    1
   123     2     1    1
   124    10     9    1
   125     9     8    1
