@<TRIPOS>MOLECULE
tmp/5irqB01.pdb
 153 142 0 0 0
SMALL
GASTEIGER

@<TRIPOS>ATOM
      1  N        -29.6440   -0.3550   26.2220 N.3    75  ALA75      -0.1245
      2  CA       -30.2800   -0.2110   27.5280 C.3    75  ALA75       0.1562
      3  C        -31.3990    0.8220   27.5040 C.2    75  ALA75       0.2260
      4  O        -32.4030    0.6640   28.2090 O.2    75  ALA75      -0.2867
      5  CB       -29.2360    0.1670   28.5770 C.3    75  ALA75       0.0290
      6  N        -32.1990    9.2930   31.4020 N.3    83  ALA83      -0.1231
      7  CA       -30.7820    9.4120   31.7330 C.3    83  ALA83       0.1694
      8  C        -29.9030    9.4010   30.4880 C.2    83  ALA83       0.2592
      9  O        -28.9760   10.2100   30.3690 O.2    83  ALA83      -0.2718
     10  CB       -30.3740    8.2880   32.6840 C.3    83  ALA83       0.0304
     11  N        -30.1650    8.4870   29.5560 N.am   84  PHE84      -0.1976
     12  CA       -29.3250    8.3180   28.3780 C.3    84  PHE84       0.1639
     13  C        -29.9430    8.9240   27.1260 C.2    84  PHE84       0.2290
     14  O        -29.4390    8.6910   26.0210 O.2    84  PHE84      -0.2864
     15  CB       -29.0330    6.8320   28.1530 C.3    84  PHE84       0.0560
     16  CG       -28.3120    6.1750   29.3000 C.ar   84  PHE84      -0.0200
     17  CD1      -27.3650    6.8720   30.0320 C.ar   84  PHE84      -0.0042
     18  CD2      -28.5860    4.8620   29.6460 C.ar   84  PHE84      -0.0042
     19  CE1      -26.7020    6.2720   31.0850 C.ar   84  PHE84      -0.0003
     20  CE2      -27.9270    4.2560   30.7010 C.ar   84  PHE84      -0.0003
     21  CZ       -26.9840    4.9610   31.4210 C.ar   84  PHE84      -0.0000
     22  N        -31.2590   -9.6820   36.0870 N.3   171  TYR171     -0.1227
     23  CA       -30.9640   -8.8720   34.9100 C.3   171  TYR171      0.1736
     24  C        -30.4340   -7.4890   35.2690 C.2   171  TYR171      0.2595
     25  O        -29.7000   -6.9040   34.4670 O.2   171  TYR171     -0.2718
     26  CB       -32.1830   -8.7780   33.9730 C.3   171  TYR171      0.0548
     27  CG       -33.4210   -8.0210   34.4300 C.ar  171  TYR171     -0.0200
     28  CD1      -33.3660   -6.6840   34.8030 C.ar  171  TYR171     -0.0009
     29  CD2      -34.6680   -8.6350   34.4040 C.ar  171  TYR171     -0.0009
     30  CE1      -34.5090   -5.9980   35.1870 C.ar  171  TYR171      0.0417
     31  CE2      -35.8130   -7.9570   34.7830 C.ar  171  TYR171      0.0417
     32  CZ       -35.7270   -6.6400   35.1710 C.ar  171  TYR171      0.1957
     33  OH       -36.8620   -5.9610   35.5470 O.3   171  TYR171     -0.2866
     34  N        -30.7520   -6.9630   36.4550 N.am  172  ASN172     -0.1974
     35  CA       -30.0760   -5.7540   36.9220 C.3   172  ASN172      0.1688
     36  C        -28.5680   -5.9660   36.9620 C.2   172  ASN172      0.2292
     37  O        -27.7970   -5.1440   36.4540 O.2   172  ASN172     -0.2864
     38  CB       -30.5920   -5.3510   38.3050 C.3   172  ASN172      0.1181
     39  CG       -31.8270   -4.4730   38.2400 C.2   172  ASN172      0.2629
     40  OD1      -32.4600   -4.3440   37.1920 O.2   172  ASN172     -0.2716
     41  ND2      -32.1760   -3.8620   39.3660 N.am  172  ASN172     -0.0877
     42  N        -27.2520   -6.2780   33.2090 N.3   175  ILE175     -0.1231
     43  CA       -27.0890   -5.0030   32.5120 C.3   175  ILE175      0.1692
     44  C        -25.8780   -4.2570   33.0560 C.2   175  ILE175      0.2591
     45  O        -24.9880   -3.8470   32.3020 O.2   175  ILE175     -0.2718
     46  CB       -28.3680   -4.1520   32.6330 C.3   175  ILE175      0.0266
     47  CG1      -29.5800   -4.8820   32.0420 C.3   175  ILE175      0.0019
     48  CG2      -28.1910   -2.8000   31.9390 C.3   175  ILE175      0.0020
     49  CD1      -29.3830   -5.3750   30.6360 C.3   175  ILE175      0.0001
     50  N        -25.8320   -4.0590   34.3740 N.am  176  ILE176     -0.1980
     51  CA       -24.7240   -3.3200   34.9740 C.3   176  ILE176      0.1595
     52  C        -23.3970   -3.9750   34.6190 C.2   176  ILE176      0.2287
     53  O        -22.4060   -3.2900   34.3380 O.2   176  ILE176     -0.2864
     54  CB       -24.9220   -3.2120   36.4980 C.3   176  ILE176      0.0276
     55  CG1      -26.1260   -2.3120   36.7970 C.3   176  ILE176      0.0022
     56  CG2      -23.6540   -2.6830   37.1770 C.3   176  ILE176      0.0022
     57  CD1      -26.4550   -2.1550   38.2680 C.3   176  ILE176      0.0001
     58  N        -22.9640   -3.2210   30.7080 N.3   179  LEU179     -0.1245
     59  CA       -23.0950   -1.8530   30.2140 C.3   179  LEU179      0.1561
     60  C        -21.7260   -1.2450   29.9390 C.2   179  LEU179      0.2260
     61  O        -21.5330   -0.5490   28.9360 O.2   179  LEU179     -0.2867
     62  CB       -23.8590   -0.9930   31.2220 C.3   179  LEU179      0.0270
     63  CG       -25.1190   -0.2110   30.8190 C.3   179  LEU179      0.0019
     64  CD1      -25.0810    1.1600   31.4790 C.3   179  LEU179      0.0001
     65  CD2      -25.3210   -0.0640   29.3110 C.3   179  LEU179      0.0001
     66  N        -35.8510   -7.6760   30.6720 N.3   209  ARG209     -0.1245
     67  CA       -36.3360   -6.5080   31.3990 C.3   209  ARG209      0.1563
     68  C        -37.4870   -5.8400   30.6560 C.2   209  ARG209      0.2260
     69  O        -38.5270   -5.5340   31.2510 O.2   209  ARG209     -0.2867
     70  CB       -35.1860   -5.5260   31.6230 C.3   209  ARG209      0.0307
     71  CG       -35.5640   -4.2910   32.4280 C.3   209  ARG209      0.0489
     72  CD       -36.0740   -3.1500   31.5620 C.3   209  ARG209      0.2205
     73  NE       -35.3760   -1.9040   31.8750 N.pl3 209  ARG209     -0.0865
     74  CZ       -34.7310   -1.1390   30.9980 C.cat 209  ARG209      0.5346
     75  NH1      -34.6900   -1.4510   29.7080 N.pl3 209  ARG209      0.1354
     76  NH2      -34.1320   -0.0360   31.4180 N.pl3 209  ARG209      0.1354
     77  N        -38.4600    2.2650   33.0220 N.3   261  GLY261     -0.1210
     78  CA       -37.2550    1.4750   33.2240 C.3   261  GLY261      0.1956
     79  C        -36.1430    2.2600   33.8920 C.2   261  GLY261      0.2611
     80  O        -35.4890    1.7660   34.8150 O.2   261  GLY261     -0.2717
     81  N        -35.9110    3.4940   33.4360 N.am  262  ASP262     -0.1973
     82  CA       -34.8840    4.3310   34.0500 C.3   262  ASP262      0.1709
     83  C        -35.1690    4.5460   35.5300 C.2   262  ASP262      0.2293
     84  O        -34.2900    4.3580   36.3780 O.2   262  ASP262     -0.2864
     85  CB       -34.7970    5.6710   33.3190 C.3   262  ASP262      0.1436
     86  CG       -33.9720    5.5910   32.0520 C.2   262  ASP262      0.3671
     87  OD1      -33.6910    4.4610   31.5940 O.co2 262  ASP262     -0.2456
     88  OD2      -33.6070    6.6570   31.5120 O.co2 262  ASP262     -0.2456
     89  N        -34.7180    1.3820   37.5140 N.3   265  GLY265     -0.1210
     90  CA       -33.3150    1.0370   37.6850 C.3   265  GLY265      0.1956
     91  C        -32.6000    1.9410   38.6730 C.2   265  GLY265      0.2611
     92  O        -31.9620    1.4660   39.6180 O.2   265  GLY265     -0.2717
     93  N        -32.6880    3.2570   38.4640 N.am  266  ALA266     -0.1979
     94  CA       -31.9520    4.1990   39.3030 C.3   266  ALA266      0.1597
     95  C        -32.4300    4.1620   40.7490 C.2   266  ALA266      0.2287
     96  O        -31.6260    4.3080   41.6770 O.2   266  ALA266     -0.2864
     97  CB       -32.0860    5.6120   38.7410 C.3   266  ALA266      0.0319
     98  N        -30.7560    0.5810   42.3080 N.3   269  GLU269     -0.1231
     99  CA       -29.3310    0.2730   42.3110 C.3   269  GLU269      0.1699
    100  C        -28.5100    1.3540   42.9990 C.2   269  GLU269      0.2592
    101  O        -27.5070    1.0450   43.6520 O.2   269  GLU269     -0.2718
    102  CB       -28.8480    0.0620   40.8780 C.3   269  GLU269      0.0402
    103  CG       -29.4340   -1.1830   40.2370 C.3   269  GLU269      0.1161
    104  CD       -29.0240   -2.4480   40.9650 C.2   269  GLU269      0.3649
    105  OE1      -27.9870   -2.4190   41.6620 O.co2 269  GLU269     -0.2457
    106  OE2      -29.7440   -3.4640   40.8530 O.co2 269  GLU269     -0.2457
    107  N        -28.9110    2.6190   42.8720 N.am  270  THR270     -0.1953
    108  CA       -28.1500    3.6890   43.5080 C.3   270  THR270      0.1897
    109  C        -28.3330    3.6680   45.0210 C.2   270  THR270      0.2313
    110  O        -27.3560    3.7210   45.7760 O.2   270  THR270     -0.2863
    111  CB       -28.5640    5.0460   42.9430 C.3   270  THR270      0.1794
    112  OG1      -28.5380    5.0060   41.5110 O.3   270  THR270     -0.2208
    113  CG2      -27.6000    6.1180   43.4230 C.3   270  THR270      0.0378
    114  N        -21.8310    8.0440   43.8830 N.3   330  VAL330     -0.1231
    115  CA       -22.4450    7.0030   43.0640 C.3   330  VAL330      0.1692
    116  C        -21.9420    7.1000   41.6310 C.2   330  VAL330      0.2591
    117  O        -21.7080    6.0840   40.9670 O.2   330  VAL330     -0.2718
    118  CB       -23.9830    7.0940   43.1270 C.3   330  VAL330      0.0266
    119  CG1      -24.4650    7.1670   44.5750 C.3   330  VAL330      0.0020
    120  CG2      -24.4960    8.2780   42.3130 C.3   330  VAL330      0.0020
    121  N        -21.7680    8.3250   41.1350 N.am  331  ALA331     -0.1980
    122  CA       -21.2790    8.5850   39.7830 C.3   331  ALA331      0.1597
    123  C        -20.0380    9.4590   39.8950 C.2   331  ALA331      0.2287
    124  O        -20.1320   10.6950   39.8260 O.2   331  ALA331     -0.2864
    125  CB       -22.3540    9.2570   38.9330 C.3   331  ALA331      0.0319
    126  N        -22.7620   11.3890   34.5670 N.3   335  ILE335     -0.1245
    127  CA       -22.9780   10.7270   33.2830 C.3   335  ILE335      0.1561
    128  C        -22.3650   11.6400   32.2270 C.2   335  ILE335      0.2260
    129  O        -22.4810   12.8680   32.3450 O.2   335  ILE335     -0.2867
    130  CB       -24.4700   10.4700   33.0170 C.3   335  ILE335      0.0252
    131  CG1      -25.0550    9.5490   34.0870 C.3   335  ILE335      0.0019
    132  CG2      -24.6700    9.8560   31.6370 C.3   335  ILE335      0.0019
    133  CD1      -26.5630    9.4630   34.0560 C.3   335  ILE335      0.0001
    134  N        -29.7090   15.1840   39.1480 N.3   406  CYS406     -0.1235
    135  CA       -30.5080   14.0530   39.5980 C.3   406  CYS406      0.1677
    136  C        -31.9450   14.4760   39.8730 C.2   406  CYS406      0.2270
    137  O        -32.1970   15.4990   40.5130 O.2   406  CYS406     -0.2867
    138  CB       -29.9010   13.4570   40.8660 C.3   406  CYS406      0.0956
    139  SG       -30.8010   12.0420   41.5300 S.3   406  CYS406     -0.0801
    140  N        -21.2870    1.5940   35.8790 N.3   446  VAL446     -0.1231
    141  CA       -22.1790    2.7280   35.6570 C.3   446  VAL446      0.1692
    142  C        -22.5040    3.3840   36.9890 C.2   446  VAL446      0.2591
    143  O        -22.7330    4.5980   37.0610 O.2   446  VAL446     -0.2718
    144  CB       -23.4520    2.2790   34.9090 C.3   446  VAL446      0.0266
    145  CG1      -24.2840    1.3340   35.7650 C.3   446  VAL446      0.0020
    146  CG2      -24.2730    3.4850   34.4800 C.3   446  VAL446      0.0020
    147  N        -22.5320    2.5930   38.0570 N.am  447  VAL447     -0.1980
    148  CA       -22.5870    3.0770   39.4280 C.3   447  VAL447      0.1595
    149  C        -21.3280    2.5950   40.1320 C.2   447  VAL447      0.2287
    150  O        -20.7720    1.5440   39.7980 O.2   447  VAL447     -0.2864
    151  CB       -23.8600    2.5840   40.1550 C.3   447  VAL447      0.0276
    152  CG1      -23.7920    2.8670   41.6520 C.3   447  VAL447      0.0022
    153  CG2      -25.0950    3.2370   39.5520 C.3   447  VAL447      0.0022
@<TRIPOS>BOND
     1    14    13    2
     2     1     2    1
     3    13    12    1
     4     3     2    1
     5     3     4    2
     6     2     5    1
     7    15    12    1
     8    15    16    1
     9    12    11    1
    10    61    60    2
    11    16    18   ar
    12    16    17   ar
    13    65    63    1
    14    11     8   am
    15    18    20   ar
    16    75    74    1
    17    60    59    1
    18    17    19   ar
    19    59    58    1
    20    59    62    1
    21     9     8    2
    22     8     7    1
    23    49    47    1
    24    68    69    2
    25    68    67    1
    26    66    67    1
    27    20    21   ar
    28    63    62    1
    29    63    64    1
    30    74    76    1
    31    74    73    2
    32    19    21   ar
    33    67    70    1
    34     6     7    1
    35    88    86   ar
    36    72    73    1
    37    72    71    1
    38    87    86   ar
    39    70    71    1
    40   132   130    1
    41     7    10    1
    42    48    46    1
    43    47    46    1
    44    86    85    1
    45   128   129    2
    46   128   127    1
    47    45    44    2
    48    43    46    1
    49    43    44    1
    50    43    42    1
    51   130   127    1
    52   130   131    1
    53    77    78    1
    54    44    50   am
    55    78    79    1
    56   127   126    1
    57    85    82    1
    58    81    79   am
    59    81    82    1
    60    79    80    2
    61    26    27    1
    62    26    23    1
    63    82    83    1
    64   133   131    1
    65    53    52    2
    66    50    51    1
    67    29    27   ar
    68    29    31   ar
    69    27    28   ar
    70    25    24    2
    71   146   144    1
    72    52    51    1
    73    31    32   ar
    74    28    30   ar
    75   144   141    1
    76   144   145    1
    77    23    24    1
    78    23    22    1
    79    51    54    1
    80    32    30   ar
    81    32    33    1
    82    24    34   am
    83    83    84    2
    84   141   140    1
    85   141   142    1
    86    37    36    2
    87    34    35    1
    88    54    55    1
    89    54    56    1
    90    55    57    1
    91    35    36    1
    92    35    38    1
    93   142   143    2
    94   142   147   am
    95    40    39    2
    96    89    90    1
    97    90    91    1
    98   147   148    1
    99    39    38    1
   100    39    41   am
   101    93    91   am
   102    93    94    1
   103    91    92    2
   104    97    94    1
   105   125   122    1
   106   134   135    1
   107    94    95    1
   108   148   149    1
   109   148   151    1
   110   153   151    1
   111   135   136    1
   112   135   138    1
   113   122   123    1
   114   122   121    1
   115   150   149    2
   116   124   123    2
   117   136   137    2
   118   151   152    1
   119   103   102    1
   120   103   104    1
   121    95    96    2
   122   106   104   ar
   123   138   139    1
   124   102    99    1
   125   104   105   ar
   126   117   116    2
   127   121   116   am
   128   112   111    1
   129   116   115    1
   130    98    99    1
   131    99   100    1
   132   120   118    1
   133   107   100   am
   134   107   108    1
   135   111   113    1
   136   111   108    1
   137   100   101    2
   138   115   118    1
   139   115   114    1
   140   118   119    1
   141   108   109    1
   142   109   110    2
