@<TRIPOS>MOLECULE
tmp/5irrB01.pdb
 191 186 0 0 0
SMALL
GASTEIGER

@<TRIPOS>ATOM
      1  N         25.4620   42.2880   71.7160 N.3    16  SER16      -0.1202
      2  CA        25.9490   43.5930   72.1430 C.3    16  SER16       0.2020
      3  C         26.9660   43.4700   73.2730 C.2    16  SER16       0.2619
      4  O         26.8170   42.6500   74.1820 O.2    16  SER16      -0.2717
      5  CB        24.7820   44.4700   72.5950 C.3    16  SER16       0.2103
      6  OG        23.7840   44.5450   71.5910 O.3    16  SER16      -0.2182
      7  N         28.0010   44.3040   73.2110 N.am   17  GLY17      -0.1942
      8  CA        28.9510   44.3990   74.3020 C.3    17  GLY17       0.2014
      9  C         29.8810   43.2180   74.4560 C.2    17  GLY17       0.2639
     10  O         30.4660   43.0410   75.5270 O.2    17  GLY17      -0.2714
     11  N         30.0380   42.4010   73.4190 N.am   18  LEU18      -0.1963
     12  CA        30.9320   41.2510   73.4900 C.3    18  LEU18       0.1728
     13  C         32.3820   41.5950   73.1770 C.2    18  LEU18       0.2617
     14  O         33.2390   40.7060   73.2520 O.2    18  LEU18      -0.2715
     15  CB        30.4550   40.1510   72.5390 C.3    18  LEU18       0.0311
     16  CG        29.1630   39.4400   72.9380 C.3    18  LEU18       0.0022
     17  CD1       28.8960   38.2770   71.9960 C.3    18  LEU18       0.0001
     18  CD2       29.2360   38.9690   74.3820 C.3    18  LEU18       0.0001
     19  N         32.6830   42.8450   72.8380 N.am   19  GLY19      -0.1940
     20  CA        34.0350   43.2270   72.4880 C.3    19  GLY19       0.2014
     21  C         34.3490   43.1930   71.0120 C.2    19  GLY19       0.2639
     22  O         35.5270   43.1080   70.6510 O.2    19  GLY19      -0.2714
     23  N         33.3330   43.2730   70.1460 N.am   20  LYS20      -0.1963
     24  CA        33.5530   43.1280   68.7090 C.3    20  LYS20       0.1728
     25  C         34.4640   44.2250   68.1700 C.2    20  LYS20       0.2617
     26  O         35.4200   43.9490   67.4340 O.2    20  LYS20      -0.2715
     27  CB        32.2110   43.1390   67.9680 C.3    20  LYS20       0.0311
     28  CG        31.2750   41.9920   68.3280 C.3    20  LYS20       0.0038
     29  CD        29.9940   42.0460   67.5010 C.3    20  LYS20       0.0206
     30  CE        29.1860   43.3040   67.8000 C.3    20  LYS20       0.1093
     31  NZ        28.7730   43.3900   69.2300 N.3    20  LYS20      -0.1314
     32  N         34.1790   45.4830   68.5210 N.am   21  THR21      -0.1937
     33  CA        34.9590   46.5930   67.9810 C.3    21  THR21       0.2028
     34  C         36.3780   46.5980   68.5410 C.2    21  THR21       0.2642
     35  O         37.3340   46.9020   67.8170 O.2    21  THR21      -0.2714
     36  CB        34.2510   47.9200   68.2680 C.3    21  THR21       0.1808
     37  OG1       32.9500   47.9050   67.6660 O.3    21  THR21      -0.2208
     38  CG2       35.0440   49.0890   67.6990 C.3    21  THR21       0.0379
     39  N         36.5360   46.2600   69.8230 N.am   22  THR22      -0.1950
     40  CA        37.8750   46.1180   70.3910 C.3    22  THR22       0.1897
     41  C         38.6790   45.0620   69.6420 C.2    22  THR22       0.2313
     42  O         39.8620   45.2660   69.3420 O.2    22  THR22      -0.2863
     43  CB        37.7830   45.7600   71.8750 C.3    22  THR22       0.1794
     44  OG1       37.0020   46.7460   72.5600 O.3    22  THR22      -0.2208
     45  CG2       39.1720   45.7010   72.5030 C.3    22  THR22       0.0378
     46  N         40.1940   51.4720   70.0950 N.3    38  HIS38      -0.1241
     47  CA        38.7890   51.7720   70.3330 C.3    38  HIS38       0.1621
     48  C         38.6110   52.4220   71.7020 C.2    38  HIS38       0.2264
     49  O         39.4290   52.2300   72.6050 O.2    38  HIS38      -0.2867
     50  CB        37.9550   50.4880   70.2330 C.3    38  HIS38       0.0745
     51  CG        36.4910   50.6900   70.4590 C.ar   38  HIS38       0.0817
     52  ND1       35.7830   51.7240   69.8860 N.ar   38  HIS38      -0.2268
     53  CD2       35.5980   49.9830   71.1910 C.ar   38  HIS38       0.1154
     54  CE1       34.5180   51.6480   70.2590 C.ar   38  HIS38       0.1986
     55  NE2       34.3790   50.6000   71.0510 N.ar   38  HIS38      -0.2212
     56  N         35.6590   52.1540   73.5800 N.3    40  GLY40      -0.1210
     57  CA        34.7200   51.4330   74.4140 C.3    40  GLY40       0.1956
     58  C         33.2580   51.7740   74.2120 C.2    40  GLY40       0.2613
     59  O         32.3960   51.0730   74.7610 O.2    40  GLY40      -0.2717
     60  N         32.9450   52.8170   73.4500 N.am   41  SER41      -0.1938
     61  CA        31.5540   53.1880   73.2350 C.3    41  SER41       0.2055
     62  C         30.8670   52.1900   72.3040 C.2    41  SER41       0.2643
     63  O         31.5070   51.5060   71.5000 O.2    41  SER41      -0.2714
     64  CB        31.4600   54.6030   72.6620 C.3    41  SER41       0.2130
     65  OG        32.1940   54.7220   71.4550 O.3    41  SER41      -0.2179
     66  N         29.5410   52.1250   72.4240 N.am   42  TYR42      -0.1959
     67  CA        28.7480   51.1990   71.6320 C.3    42  TYR42       0.1771
     68  C         28.8300   51.5590   70.1520 C.2    42  TYR42       0.2620
     69  O         29.1420   52.6910   69.7730 O.2    42  TYR42      -0.2715
     70  CB        27.2780   51.2170   72.0660 C.3    42  TYR42       0.0574
     71  CG        27.0140   51.2610   73.5600 C.ar   42  TYR42      -0.0198
     72  CD1       27.8790   50.6640   74.4700 C.ar   42  TYR42      -0.0009
     73  CD2       25.8810   51.8960   74.0560 C.ar   42  TYR42      -0.0009
     74  CE1       27.6270   50.7090   75.8310 C.ar   42  TYR42       0.0417
     75  CE2       25.6210   51.9440   75.4130 C.ar   42  TYR42       0.0417
     76  CZ        26.4970   51.3490   76.2950 C.ar   42  TYR42       0.1957
     77  OH        26.2410   51.3960   77.6460 O.3    42  TYR42      -0.2866
     78  N         28.5390   50.5740   69.3060 N.am   43  THR43      -0.1951
     79  CA        28.4170   50.8260   67.8770 C.3    43  THR43       0.1897
     80  C         26.9410   51.0190   67.5620 C.2    43  THR43       0.2313
     81  O         26.1590   50.0740   67.7260 O.2    43  THR43      -0.2863
     82  CB        29.0000   49.6670   67.0630 C.3    43  THR43       0.1794
     83  OG1       30.3580   49.4190   67.4690 O.3    43  THR43      -0.2208
     84  CG2       28.9860   49.9960   65.5850 C.3    43  THR43       0.0378
     85  N         29.7200   45.8950   62.8830 N.3    77  THR77      -0.1204
     86  CA        28.2680   45.9470   62.9380 C.3    77  THR77       0.1979
     87  C         27.8470   46.1800   64.3780 C.2    77  THR77       0.2460
     88  O         28.5850   45.8420   65.3100 O.2    77  THR77      -0.2732
     89  CB        27.6130   44.6550   62.4200 C.3    77  THR77       0.1783
     90  OG1       27.9430   43.5630   63.2870 O.3    77  THR77      -0.2211
     91  CG2       28.0650   44.3320   61.0040 C.3    77  THR77       0.0376
     92  N         26.6680   46.7550   64.5950 N.am   78  PRO78      -0.2717
     93  CA        26.1340   46.8090   65.9580 C.3    78  PRO78       0.1535
     94  C         25.7310   45.4200   66.4270 C.2    78  PRO78       0.2599
     95  O         25.3460   44.5580   65.6320 O.2    78  PRO78      -0.2715
     96  CB        24.9190   47.7350   65.8330 C.3    78  PRO78       0.0310
     97  CG        24.5130   47.6310   64.4060 C.3    78  PRO78       0.0237
     98  CD        25.7690   47.3940   63.6180 C.3    78  PRO78       0.0939
     99  N         25.8470   45.2010   67.7350 N.am   79  GLY79      -0.1955
    100  CA        25.4120   43.9380   68.2990 C.3    79  GLY79       0.1869
    101  C         23.9190   43.7390   68.1300 C.2    79  GLY79       0.2309
    102  O         23.1430   44.6980   68.0810 O.2    79  GLY79      -0.2863
    103  N         34.7720   35.5290   72.5890 N.3   149  THR149     -0.1203
    104  CA        35.4420   36.7130   73.0990 C.3   149  THR149      0.1994
    105  C         35.4450   36.7160   74.6240 C.2   149  THR149      0.2617
    106  O         34.8080   35.8860   75.2790 O.2   149  THR149     -0.2717
    107  CB        34.7720   37.9830   72.5720 C.3   149  THR149      0.1784
    108  OG1       33.4010   38.0020   72.9840 O.3   149  THR149     -0.2211
    109  CG2       34.8370   38.0330   71.0540 C.3   149  THR149      0.0376
    110  N         36.1860   37.6720   75.1870 N.am  150  LYS150     -0.1979
    111  CA        36.2860   37.8540   76.6360 C.3   150  LYS150      0.1596
    112  C         36.7280   36.5680   77.3310 C.2   150  LYS150      0.2287
    113  O         36.1950   36.1870   78.3750 O.2   150  LYS150     -0.2864
    114  CB        34.9660   38.3600   77.2170 C.3   150  LYS150      0.0298
    115  CG        34.5270   39.7070   76.6690 C.3   150  LYS150      0.0038
    116  CD        33.2850   40.1970   77.3880 C.3   150  LYS150      0.0206
    117  CE        32.9920   41.6440   77.0540 C.3   150  LYS150      0.1093
    118  NZ        31.7470   42.1090   77.7190 N.3   150  LYS150     -0.1314
    119  N         39.0610   35.9830   79.1590 N.3   152  ASP152     -0.1225
    120  CA        39.4430   36.1440   80.5550 C.3   152  ASP152      0.1805
    121  C         38.2600   35.9820   81.5060 C.2   152  ASP152      0.2598
    122  O         38.4430   36.0960   82.7220 O.2   152  ASP152     -0.2718
    123  CB        40.1320   37.5000   80.7710 C.3   152  ASP152      0.1424
    124  CG        39.3180   38.6770   80.2530 C.2   152  ASP152      0.3668
    125  OD1       38.5490   38.5110   79.2830 O.co2 152  ASP152     -0.2456
    126  OD2       39.4650   39.7830   80.8140 O.co2 152  ASP152     -0.2456
    127  N         37.0620   35.7120   80.9800 N.am  153  THR153     -0.1953
    128  CA        35.9060   35.3840   81.8090 C.3   153  THR153      0.1897
    129  C         35.9760   33.9610   82.3520 C.2   153  THR153      0.2313
    130  O         35.3280   33.6570   83.3570 O.2   153  THR153     -0.2863
    131  CB        34.6180   35.5930   80.9910 C.3   153  THR153      0.1794
    132  OG1       34.5010   36.9750   80.6270 O.3   153  THR153     -0.2208
    133  CG2       33.3640   35.1810   81.7600 C.3   153  THR153      0.0378
    134  N         41.3140   37.1720   74.0120 N.3   208  ILE208     -0.1231
    135  CA        41.2590   38.3550   74.8580 C.3   208  ILE208      0.1692
    136  C         41.7460   39.5270   74.0200 C.2   208  ILE208      0.2592
    137  O         42.7030   39.3880   73.2510 O.2   208  ILE208     -0.2718
    138  CB        42.1190   38.1970   76.1310 C.3   208  ILE208      0.0266
    139  CG1       41.6850   36.9700   76.9350 C.3   208  ILE208      0.0019
    140  CG2       42.0430   39.4500   76.9970 C.3   208  ILE208      0.0020
    141  CD1       42.5990   36.6640   78.1080 C.3   208  ILE208      0.0001
    142  N         41.0720   40.6680   74.1430 N.am  209  ALA209     -0.1966
    143  CA        41.5000   41.8900   73.4810 C.3   209  ALA209      0.1728
    144  C         41.3220   43.0540   74.4450 C.2   209  ALA209      0.2617
    145  O         40.5580   42.9750   75.4090 O.2   209  ALA209     -0.2715
    146  CB        40.7250   42.1410   72.1800 C.3   209  ALA209      0.0334
    147  N         42.0440   44.1390   74.1810 N.am  210  SER210     -0.1936
    148  CA        42.0190   45.2690   75.0950 C.3   210  SER210      0.2055
    149  C         42.3340   46.5570   74.3540 C.2   210  SER210      0.2643
    150  O         43.1290   46.5760   73.4100 O.2   210  SER210     -0.2714
    151  CB        43.0170   45.0940   76.2440 C.3   210  SER210      0.2130
    152  OG        42.9930   46.2250   77.0960 O.3   210  SER210     -0.2179
    153  N         41.7080   47.6350   74.8110 N.am  211  ASN211     -0.1957
    154  CA        42.0490   48.9760   74.3700 C.3   211  ASN211      0.1819
    155  C         43.0490   49.6520   75.2960 C.2   211  ASN211      0.2621
    156  O         43.5140   50.7530   74.9860 O.2   211  ASN211     -0.2715
    157  CB        40.7770   49.8180   74.2550 C.3   211  ASN211      0.1195
    158  CG        39.7830   49.2260   73.2700 C.2   211  ASN211      0.2630
    159  OD1       40.1280   48.9390   72.1230 O.2   211  ASN211     -0.2716
    160  ND2       38.5550   49.0160   73.7200 N.am  211  ASN211     -0.0877
    161  N         43.3870   49.0180   76.4140 N.am  212  ASP212     -0.1971
    162  CA        44.3840   49.5190   77.3470 C.3   212  ASP212      0.1709
    163  C         45.7040   48.8040   77.1000 C.2   212  ASP212      0.2293
    164  O         45.7220   47.6170   76.7660 O.2   212  ASP212     -0.2864
    165  CB        43.9330   49.3020   78.7920 C.3   212  ASP212      0.1436
    166  CG        42.4970   49.7300   79.0240 C.2   212  ASP212      0.3671
    167  OD1       42.0870   50.7710   78.4650 O.co2 212  ASP212     -0.2456
    168  OD2       41.7760   49.0200   79.7580 O.co2 212  ASP212     -0.2456
    169  N         44.7100   43.7040   80.2020 N.3   229  ARG229     -0.1245
    170  CA        43.5430   43.9330   81.0510 C.3   229  ARG229      0.1563
    171  C         44.0140   43.7680   82.4920 C.2   229  ARG229      0.2260
    172  O         44.2360   42.6470   82.9610 O.2   229  ARG229     -0.2867
    173  CB        42.4030   42.9840   80.6950 C.3   229  ARG229      0.0307
    174  CG        41.8080   43.2630   79.3180 C.3   229  ARG229      0.0489
    175  CD        40.5040   42.5130   79.0830 C.3   229  ARG229      0.2205
    176  NE        39.5600   42.6890   80.1830 N.pl3 229  ARG229     -0.0865
    177  CZ        38.8230   43.7780   80.3750 C.cat 229  ARG229      0.5346
    178  NH1       38.9210   44.8060   79.5430 N.pl3 229  ARG229      0.1354
    179  NH2       37.9930   43.8450   81.4070 N.pl3 229  ARG229      0.1354
    180  N         43.7000   43.8000   86.3000 N.3   231  TYR231     -0.1241
    181  CA        42.7970   43.5930   87.4170 C.3   231  TYR231      0.1605
    182  C         43.5350   43.7800   88.7330 C.2   231  TYR231      0.2264
    183  O         44.7680   43.7630   88.7710 O.2   231  TYR231     -0.2867
    184  CB        42.1940   42.1850   87.3550 C.3   231  TYR231      0.0534
    185  CG        41.3580   41.9330   86.1220 C.ar  231  TYR231     -0.0201
    186  CD1       40.0340   42.3490   86.0620 C.ar  231  TYR231     -0.0009
    187  CD2       41.8940   41.2820   85.0190 C.ar  231  TYR231     -0.0009
    188  CE1       39.2640   42.1180   84.9350 C.ar  231  TYR231      0.0417
    189  CE2       41.1340   41.0470   83.8890 C.ar  231  TYR231      0.0417
    190  CZ        39.8230   41.4660   83.8520 C.ar  231  TYR231      0.1957
    191  OH        39.0720   41.2290   82.7220 O.3   231  TYR231     -0.2866
@<TRIPOS>BOND
     1    91    89    1
     2    89    86    1
     3    89    90    1
     4    85    86    1
     5    86    87    1
     6    98    97    1
     7    98    92    1
     8    87    92   am
     9    87    88    2
    10    97    96    1
    11    92    93    1
    12    84    82    1
    13    95    94    2
    14    96    93    1
    15    93    94    1
    16    94    99   am
    17    82    83    1
    18    82    79    1
    19    26    25    2
    20    29    30    1
    21    29    28    1
    22    80    81    2
    23    80    79    1
    24    37    36    1
    25    38    36    1
    26    99   100    1
    27    30    31    1
    28    35    34    2
    29    79    78    1
    30    27    28    1
    31    27    24    1
    32    33    36    1
    33    33    32    1
    34    33    34    1
    35   102   101    2
    36   101   100    1
    37    25    32   am
    38    25    24    1
    39    34    39   am
    40    24    23    1
    41    78    68   am
    42    42    41    2
    43    41    40    1
    44    69    68    2
    45    39    40    1
    46    52    54   ar
    47    52    51   ar
    48    46    47    1
    49    23    21   am
    50    68    67    1
    51    50    47    1
    52    50    51    1
    53    54    55   ar
    54    47    48    1
    55    40    43    1
    56    51    53   ar
    57    22    21    2
    58    21    20    1
    59    55    53   ar
    60   109   107    1
    61    65    64    1
    62    63    62    2
    63     6     5    1
    64    67    70    1
    65    67    66    1
    66    48    49    2
    67     1     2    1
    68    43    45    1
    69    43    44    1
    70    17    16    1
    71    70    71    1
    72   159   158    2
    73     2     5    1
    74     2     3    1
    75   146   143    1
    76    62    66   am
    77    62    61    1
    78    20    19    1
    79    15    16    1
    80    15    12    1
    81   107   108    1
    82   107   104    1
    83   103   104    1
    84    64    61    1
    85    19    13   am
    86    16    18    1
    87   104   105    1
    88    13    14    2
    89    13    12    1
    90     7     3   am
    91     7     8    1
    92    61    60    1
    93   137   136    2
    94   158   160   am
    95   158   157    1
    96     3     4    2
    97   150   149    2
    98    11    12    1
    99    11     9   am
   100    60    58   am
   101   143   142    1
   102   143   144    1
   103    71    73   ar
   104    71    72   ar
   105    56    57    1
   106   134   135    1
   107   136   142   am
   108   136   135    1
   109    73    75   ar
   110   147   144   am
   111   147   148    1
   112    58    57    1
   113    58    59    2
   114   157   154    1
   115     8     9    1
   116   149   153   am
   117   149   148    1
   118   154   153    1
   119   154   155    1
   120   144   145    2
   121     9    10    2
   122    72    74   ar
   123   105   110   am
   124   105   106    2
   125   135   138    1
   126   156   155    2
   127   148   151    1
   128   110   111    1
   129   155   161   am
   130    75    76   ar
   131    74    76   ar
   132   138   139    1
   133   138   140    1
   134   151   152    1
   135    76    77    1
   136   161   162    1
   137   111   114    1
   138   111   112    1
   139   115   114    1
   140   115   116    1
   141   164   163    2
   142   139   141    1
   143   117   116    1
   144   117   118    1
   145   163   162    1
   146   112   113    2
   147   162   165    1
   148   167   166   ar
   149   165   166    1
   150   166   168   ar
   151   175   174    1
   152   175   176    1
   153   119   120    1
   154   125   124   ar
   155   174   173    1
   156   178   177    1
   157   176   177    2
   158   169   170    1
   159   124   123    1
   160   124   126   ar
   161   177   179    1
   162   120   123    1
   163   120   121    1
   164   132   131    1
   165   173   170    1
   166   127   121   am
   167   127   128    1
   168   131   133    1
   169   131   128    1
   170   170   171    1
   171   121   122    2
   172   128   129    1
   173   129   130    2
   174   171   172    2
   175   191   190    1
   176   190   189   ar
   177   190   188   ar
   178   189   187   ar
   179   188   186   ar
   180   187   185   ar
   181   186   185   ar
   182   185   184    1
   183   180   181    1
   184   184   181    1
   185   181   182    1
   186   182   183    2
