@<TRIPOS>MOLECULE
tmp/5iruA01.pdb
 192 183 0 0 0
SMALL
GASTEIGER

@<TRIPOS>ATOM
      1  N         37.6040   -2.4110    6.3040 N.3    10  ASN10      -0.1240
      2  CA        37.2210   -1.4590    7.3640 C.3    10  ASN10       0.1653
      3  C         38.0170   -1.5870    8.6440 C.2    10  ASN10       0.2266
      4  O         38.7920   -2.4810    8.7630 O.2    10  ASN10      -0.2867
      5  CB        35.6940   -1.4510    7.5710 C.3    10  ASN10       0.1155
      6  CG        35.1590   -2.6270    8.3510 C.2    10  ASN10       0.2627
      7  OD1       35.8980   -3.3450    9.0640 O.2    10  ASN10      -0.2716
      8  ND2       33.8720   -2.8660    8.1750 N.am   10  ASN10      -0.0877
      9  N         37.3630   -2.6500   11.5450 N.3    12  LEU12      -0.1245
     10  CA        37.2020   -3.9530   12.1730 C.3    12  LEU12       0.1561
     11  C         37.9040   -5.0740   11.4500 C.2    12  LEU12       0.2260
     12  O         37.9960   -6.1520   11.9770 O.2    12  LEU12      -0.2867
     13  CB        35.7020   -4.3010   12.2700 C.3    12  LEU12       0.0270
     14  CG        34.7690   -3.7890   13.3240 C.3    12  LEU12       0.0019
     15  CD1       35.3370   -3.1480   14.5730 C.3    12  LEU12       0.0001
     16  CD2       33.2770   -3.6810   13.0560 C.3    12  LEU12       0.0001
     17  N         36.9140   -6.2690    8.3720 N.3    14  SER14      -0.1217
     18  CA        36.0450   -6.7770    7.3270 C.3    14  SER14       0.1889
     19  C         36.4690   -6.2960    5.9060 C.2    14  SER14       0.2288
     20  O         36.9560   -5.1630    5.7690 O.2    14  SER14      -0.2866
     21  CB        34.5830   -6.3750    7.5820 C.3    14  SER14       0.2089
     22  OG        34.2430   -6.7050    8.8910 O.3    14  SER14      -0.2183
     23  N         30.4300   -9.3010    0.9410 N.3    31  TYR31      -0.1241
     24  CA        30.8840   -8.7720    2.1970 C.3    31  TYR31       0.1605
     25  C         31.3920   -9.9870    3.0240 C.2    31  TYR31       0.2264
     26  O         30.6820  -10.9780    3.1200 O.2    31  TYR31      -0.2867
     27  CB        29.7280   -8.0260    2.8900 C.3    31  TYR31       0.0534
     28  CG        30.1920   -7.0740    3.9810 C.ar   31  TYR31      -0.0201
     29  CD1       30.2350   -5.6910    3.7360 C.ar   31  TYR31      -0.0009
     30  CD2       30.6530   -7.5350    5.2500 C.ar   31  TYR31      -0.0009
     31  CE1       30.6450   -4.7940    4.7060 C.ar   31  TYR31       0.0417
     32  CE2       31.0620   -6.6370    6.2210 C.ar   31  TYR31       0.0417
     33  CZ        31.0480   -5.2610    5.9730 C.ar   31  TYR31       0.1957
     34  OH        31.3920   -4.2960    6.9070 O.3    31  TYR31      -0.2866
     35  N         32.5790  -10.3290    6.7350 N.3    33  THR33      -0.1218
     36  CA        32.7940   -9.7330    8.0360 C.3    33  THR33       0.1862
     37  C         33.9600  -10.4020    8.7510 C.2    33  THR33       0.2287
     38  O         34.1570  -11.5810    8.6260 O.2    33  THR33      -0.2866
     39  CB        31.5040   -9.7190    8.8790 C.3    33  THR33       0.1770
     40  OG1       31.7630   -9.0920   10.0990 O.3    33  THR33      -0.2211
     41  CG2       30.9600  -11.0760    9.1080 C.3    33  THR33       0.0375
     42  N         34.0420  -10.0560   12.0230 N.3    35  VAL35      -0.1231
     43  CA        33.4670  -10.2200   13.3810 C.3    35  VAL35       0.1692
     44  C         32.0100  -10.6430   13.2940 C.2    35  VAL35       0.2593
     45  O         31.3450  -10.4620   12.2830 O.2    35  VAL35      -0.2718
     46  CB        33.5370   -8.9140   14.2910 C.3    35  VAL35       0.0266
     47  CG1       34.9770   -8.5000   14.5930 C.3    35  VAL35       0.0020
     48  CG2       32.7360   -7.7510   13.6790 C.3    35  VAL35       0.0020
     49  N         31.5270  -11.2310   14.3600 N.am   36  THR36      -0.1939
     50  CA        30.1650  -11.6830   14.3580 C.3    36  THR36       0.2028
     51  C         29.6510  -11.6920   15.7720 C.2    36  THR36       0.2642
     52  O         30.4430  -11.8040   16.6820 O.2    36  THR36      -0.2714
     53  CB        30.0700  -13.0880   13.6830 C.3    36  THR36       0.1808
     54  OG1       28.7110  -13.4850   13.6070 O.3    36  THR36      -0.2208
     55  CG2       30.8640  -14.1490   14.4260 C.3    36  THR36       0.0379
     56  N         28.3420  -11.6380   15.9220 N.am   37  ALA37      -0.1963
     57  CA        27.6970  -11.5600   17.1830 C.3    37  ALA37       0.1728
     58  C         27.7080  -12.8800   17.9460 C.2    37  ALA37       0.2616
     59  O         27.5500  -12.8620   19.1680 O.2    37  ALA37      -0.2715
     60  CB        26.2600  -11.0820   17.0090 C.3    37  ALA37       0.0334
     61  N         27.8610  -14.0130   17.2470 N.am   38  THR38      -0.1951
     62  CA        27.7440  -15.3510   17.8390 C.3    38  THR38       0.1897
     63  C         28.7270  -16.3470   17.1740 C.2    38  THR38       0.2313
     64  O         29.5040  -16.0000   16.3160 O.2    38  THR38      -0.2863
     65  CB        26.3060  -15.9440   17.6600 C.3    38  THR38       0.1794
     66  OG1       26.1220  -16.3400   16.2790 O.3    38  THR38      -0.2208
     67  CG2       25.1990  -14.9740   18.1400 C.3    38  THR38       0.0378
     68  N         28.4240  -18.9210   15.0880 N.3    40  ASN40      -0.1240
     69  CA        28.2210  -19.4810   13.7680 C.3    40  ASN40       0.1653
     70  C         29.4250  -19.0860   12.8350 C.2    40  ASN40       0.2266
     71  O         30.0420  -18.0390   13.0050 O.2    40  ASN40      -0.2867
     72  CB        26.8240  -18.9990   13.3240 C.3    40  ASN40       0.1155
     73  CG        26.4410  -19.4430   11.9460 C.2    40  ASN40       0.2627
     74  OD1       27.2750  -19.8590   11.1630 O.2    40  ASN40      -0.2716
     75  ND2       25.1650  -19.3340   11.6200 N.am   40  ASN40      -0.0877
     76  N         22.9170  -11.4250    5.2580 N.3    68  TRP68      -0.1241
     77  CA        23.8340  -12.3770    5.8500 C.3    68  TRP68       0.1605
     78  C         23.4080  -13.8070    5.4930 C.2    68  TRP68       0.2264
     79  O         22.2030  -14.1410    5.5400 O.2    68  TRP68      -0.2867
     80  CB        23.8890  -12.1710    7.3780 C.3    68  TRP68       0.0550
     81  CG        24.3750  -10.8250    7.7760 C.ar   68  TRP68       0.0003
     82  CD1       23.6580   -9.8420    8.3860 C.ar   68  TRP68       0.0946
     83  CD2       25.7130  -10.2890    7.5410 C.ar   68  TRP68       0.0152
     84  NE1       24.4650   -8.7230    8.5710 N.ar   68  TRP68      -0.2442
     85  CE2       25.7280   -8.9820    8.0680 C.ar   68  TRP68       0.0810
     86  CE3       26.8970  -10.8130    6.9590 C.ar   68  TRP68       0.0012
     87  CZ2       26.8800   -8.1850    8.0480 C.ar   68  TRP68       0.0191
     88  CZ3       28.0090  -10.0240    6.8940 C.ar   68  TRP68       0.0001
     89  CH2       27.9860   -8.7000    7.4110 C.ar   68  TRP68       0.0015
     90  N         24.7890  -16.5390    6.9940 N.3    70  PHE70      -0.1227
     91  CA        25.0070  -17.3910    8.1270 C.3    70  PHE70       0.1736
     92  C         24.2330  -16.9210    9.3660 C.2    70  PHE70       0.2596
     93  O         24.4660  -17.4110   10.4440 O.2    70  PHE70      -0.2718
     94  CB        26.5100  -17.4960    8.4110 C.3    70  PHE70       0.0547
     95  CG        27.1460  -16.2140    8.7750 C.ar   70  PHE70      -0.0202
     96  CD1       27.4640  -15.2840    7.8070 C.ar   70  PHE70      -0.0042
     97  CD2       27.3960  -15.9220   10.0660 C.ar   70  PHE70      -0.0042
     98  CE1       28.0390  -14.0950    8.1410 C.ar   70  PHE70      -0.0003
     99  CE2       27.9690  -14.7380   10.4020 C.ar   70  PHE70      -0.0003
    100  CZ        28.2630  -13.8040    9.4440 C.ar   70  PHE70      -0.0000
    101  N         23.2930  -15.9920    9.2130 N.am   71  SER71      -0.1938
    102  CA        22.4950  -15.5300   10.3330 C.3    71  SER71       0.2055
    103  C         21.0950  -15.2550    9.8090 C.2    71  SER71       0.2643
    104  O         20.9430  -15.0880    8.6450 O.2    71  SER71      -0.2714
    105  CB        23.1360  -14.2570   10.8850 C.3    71  SER71       0.2130
    106  OG        22.4740  -13.9000   12.0430 O.3    71  SER71      -0.2179
    107  N         20.1050  -15.1910   10.6800 N.am   72  GLU72      -0.1963
    108  CA        18.7970  -14.6560   10.3280 C.3    72  GLU72       0.1733
    109  C         18.7560  -13.1180   10.2630 C.2    72  GLU72       0.2617
    110  O         17.7510  -12.5110    9.8890 O.2    72  GLU72      -0.2715
    111  CB        17.7850  -15.1360   11.3600 C.3    72  GLU72       0.0429
    112  CG        17.5720  -16.6390   11.3240 C.3    72  GLU72       0.1163
    113  CD        16.6340  -17.0990   12.3880 C.2    72  GLU72       0.3649
    114  OE1       16.3270  -16.3250   13.3120 O.co2  72  GLU72      -0.2457
    115  OE2       16.1690  -18.2390   12.3200 O.co2  72  GLU72      -0.2457
    116  N         19.8630  -12.5030   10.6180 N.am   73  SER73      -0.1950
    117  CA        20.0000  -11.0490   10.7180 C.3    73  SER73       0.1924
    118  C         20.2510  -10.2920    9.3520 C.2    73  SER73       0.2314
    119  O         20.5350  -10.9110    8.2750 O.2    73  SER73      -0.2863
    120  CB        21.0720  -10.7420   11.8180 C.3    73  SER73       0.2116
    121  OG        22.4000  -10.8560   11.3000 O.3    73  SER73      -0.2180
    122  N         22.0670   -6.3850    8.1440 N.3    75  THR75      -0.1218
    123  CA        22.7220   -5.1380    8.4170 C.3    75  THR75       0.1862
    124  C         22.5320   -4.1420    7.1990 C.2    75  THR75       0.2287
    125  O         22.6120   -4.5390    6.0250 O.2    75  THR75      -0.2866
    126  CB        24.2160   -5.3010    8.6640 C.3    75  THR75       0.1770
    127  OG1       24.4890   -6.0690    9.8260 O.3    75  THR75      -0.2211
    128  CG2       24.8020   -3.8840    8.9210 C.3    75  THR75       0.0375
    129  N         23.9040   -0.3500    5.7670 N.3    77  PHE77      -0.1241
    130  CA        24.9890    0.6390    5.9190 C.3    77  PHE77       0.1605
    131  C         24.6270    1.8820    5.0590 C.2    77  PHE77       0.2264
    132  O         24.0930    1.7570    3.9430 O.2    77  PHE77      -0.2867
    133  CB        26.3160    0.1820    5.3760 C.3    77  PHE77       0.0534
    134  CG        26.9690   -0.8550    6.1500 C.ar   77  PHE77      -0.0203
    135  CD1       26.5690   -2.1510    6.0360 C.ar   77  PHE77      -0.0042
    136  CD2       28.1130   -0.5930    6.8830 C.ar   77  PHE77      -0.0042
    137  CE1       27.2340   -3.1840    6.7250 C.ar   77  PHE77      -0.0003
    138  CE2       28.7810   -1.6060    7.5400 C.ar   77  PHE77      -0.0003
    139  CZ        28.3460   -2.8960    7.4560 C.ar   77  PHE77      -0.0000
    140  N         25.8130    2.0360   10.4700 N.3    95  TRP95      -0.1241
    141  CA        25.0620    0.8180   10.2200 C.3    95  TRP95       0.1605
    142  C         24.0410    0.5480   11.3240 C.2    95  TRP95       0.2264
    143  O         24.1220    1.0770   12.4200 O.2    95  TRP95      -0.2867
    144  CB        25.9410   -0.3550    9.9960 C.3    95  TRP95       0.0550
    145  CG        27.0160   -0.5950   11.0480 C.ar   95  TRP95       0.0003
    146  CD1       28.3400   -0.3370   10.9540 C.ar   95  TRP95       0.0946
    147  CD2       26.8030   -1.1790   12.3530 C.ar   95  TRP95       0.0152
    148  NE1       28.9710   -0.7160   12.0850 N.ar   95  TRP95      -0.2442
    149  CE2       28.0390   -1.2510   12.9640 C.ar   95  TRP95       0.0810
    150  CE3       25.6970   -1.7170   12.9930 C.ar   95  TRP95       0.0012
    151  CZ2       28.2010   -1.8020   14.2270 C.ar   95  TRP95       0.0191
    152  CZ3       25.8590   -2.2880   14.2720 C.ar   95  TRP95       0.0001
    153  CH2       27.1120   -2.3400   14.8470 C.ar   95  TRP95       0.0015
    154  N         22.1740   -3.0360   12.5680 N.3    97  LEU97      -0.1245
    155  CA        22.1630   -4.5040   12.5870 C.3    97  LEU97       0.1561
    156  C         20.9190   -4.9840   13.2870 C.2    97  LEU97       0.2260
    157  O         20.7570   -4.7990   14.5220 O.2    97  LEU97      -0.2867
    158  CB        23.4190   -5.0130   13.3290 C.3    97  LEU97       0.0270
    159  CG        23.5500   -6.4600   13.7360 C.3    97  LEU97       0.0019
    160  CD1       23.1910   -7.3470   12.5990 C.3    97  LEU97       0.0001
    161  CD2       24.9660   -6.8220   14.1690 C.3    97  LEU97       0.0001
    162  N         18.5730   -7.9570   14.3920 N.3    99  SER99      -0.1202
    163  CA        18.4620   -9.3460   14.7180 C.3    99  SER99       0.2020
    164  C         17.0270   -9.7940   14.6320 C.2    99  SER99       0.2619
    165  O         16.1060   -8.9860   14.7630 O.2    99  SER99      -0.2717
    166  CB        18.9220   -9.6170   16.1940 C.3    99  SER99       0.2103
    167  OG        20.2700   -9.2800   16.3500 O.3    99  SER99      -0.2182
    168  N         16.8800  -11.1050   14.4680 N.am  100  SER100     -0.1951
    169  CA        15.6140  -11.7080   14.4850 C.3   100  SER100      0.1924
    170  C         15.1620  -11.9680   15.9550 C.2   100  SER100      0.2314
    171  O         15.9700  -12.3360   16.7530 O.2   100  SER100     -0.2863
    172  CB        15.7140  -13.0180   13.8040 C.3   100  SER100      0.2116
    173  OG        14.4410  -13.4980   13.7260 O.3   100  SER100     -0.2180
    174  N         20.8730   -2.9140   16.8060 N.3   112  ARG112     -0.1245
    175  CA        22.1200   -2.3050   17.2180 C.3   112  ARG112      0.1563
    176  C         22.6330   -1.2880   16.1850 C.2   112  ARG112      0.2260
    177  O         22.2310   -1.3140   14.9920 O.2   112  ARG112     -0.2867
    178  CB        23.1680   -3.3750   17.3450 C.3   112  ARG112      0.0307
    179  CG        22.9930   -4.4220   18.4850 C.3   112  ARG112      0.0489
    180  CD        24.1900   -5.3680   18.3030 C.3   112  ARG112      0.2205
    181  NE        24.4680   -6.3030   19.3500 N.pl3 112  ARG112     -0.0865
    182  CZ        23.8010   -7.4260   19.5360 C.cat 112  ARG112      0.5346
    183  NH1       22.7190   -7.7100   18.7920 N.pl3 112  ARG112      0.1354
    184  NH2       24.1460   -8.2480   20.5030 N.pl3 112  ARG112      0.1354
    185  N         31.3960    2.3180   10.5830 N.3   116  ASN116     -0.1240
    186  CA        32.6140    1.7830    9.9550 C.3   116  ASN116      0.1653
    187  C         33.2090    2.7820    9.0240 C.2   116  ASN116      0.2266
    188  O         32.4810    3.4870    8.3160 O.2   116  ASN116     -0.2867
    189  CB        32.3580    0.4950    9.1800 C.3   116  ASN116      0.1155
    190  CG        32.2500   -0.7270   10.0890 C.2   116  ASN116      0.2627
    191  OD1       31.1980   -1.3630   10.1490 O.2   116  ASN116     -0.2716
    192  ND2       33.3220   -0.9930   10.8540 N.am  116  ASN116     -0.0877
@<TRIPOS>BOND
     1    23    24    1
     2    24    27    1
     3    24    25    1
     4    27    28    1
     5    25    26    2
     6    29    28   ar
     7    29    31   ar
     8   132   131    2
     9    28    30   ar
    10    31    33   ar
    11   131   130    1
    12    30    32   ar
    13    76    77    1
    14   133   130    1
    15   133   134    1
    16    78    79    2
    17    78    77    1
    18   129   130    1
    19    20    19    2
    20    77    80    1
    21    19    18    1
    22    33    32   ar
    23    33    34    1
    24   125   124    2
    25   135   134   ar
    26   135   137   ar
    27   134   136   ar
    28     1     2    1
    29   137   139   ar
    30    35    36    1
    31   136   138   ar
    32    88    86   ar
    33    88    89   ar
    34    86    83   ar
    35    90    91    1
    36   124   123    1
    37    18    21    1
    38    18    17    1
    39     2     5    1
    40     2     3    1
    41    80    81    1
    42    89    87   ar
    43   139   138   ar
    44    83    81   ar
    45    83    85   ar
    46     5     6    1
    47    21    22    1
    48    81    82   ar
    49    96    98   ar
    50    96    95   ar
    51    36    37    1
    52    36    39    1
    53    87    85   ar
    54    85    84   ar
    55    91    94    1
    56    91    92    1
    57    98   100   ar
    58   122   123    1
    59     8     6   am
    60   119   118    2
    61   188   187    2
    62     6     7    2
    63    82    84   ar
    64    94    95    1
    65   123   126    1
    66    38    37    2
    67     3     4    2
    68   104   103    2
    69   126   128    1
    70   126   127    1
    71    95    97   ar
    72    39    41    1
    73    39    40    1
    74   187   186    1
    75   189   186    1
    76   189   190    1
    77   101    92   am
    78   101   102    1
    79   118   117    1
    80    92    93    2
    81   100    99   ar
    82   103   102    1
    83   103   107   am
    84   110   109    2
    85   186   185    1
    86   144   141    1
    87   144   145    1
    88    97    99   ar
    89   190   191    2
    90   190   192   am
    91   141   140    1
    92   141   142    1
    93   109   108    1
    94   109   116   am
    95   108   107    1
    96   108   111    1
    97   102   105    1
    98   116   117    1
    99   117   120    1
   100   105   106    1
   101   146   145   ar
   102   146   148   ar
   103   145   147   ar
   104    74    73    2
   105   121   120    1
   106   142   143    2
   107   112   111    1
   108   112   113    1
   109    11    12    2
   110    11    10    1
   111     9    10    1
   112    75    73   am
   113    73    72    1
   114    42    43    1
   115   148   149   ar
   116    10    13    1
   117    13    14    1
   118    45    44    2
   119   115   113   ar
   120   147   149   ar
   121   147   150   ar
   122   113   114   ar
   123   154   155    1
   124   155   156    1
   125   155   158    1
   126   160   159    1
   127    70    71    2
   128    70    69    1
   129   149   151   ar
   130   150   152   ar
   131    16    14    1
   132   156   157    2
   133    44    43    1
   134    44    49   am
   135    72    69    1
   136    14    15    1
   137   158   159    1
   138    43    46    1
   139    54    53    1
   140    48    46    1
   141    53    50    1
   142    53    55    1
   143   173   172    1
   144   159   161    1
   145    69    68    1
   146   172   169    1
   147   151   153   ar
   148   152   153   ar
   149    46    47    1
   150    50    49    1
   151    50    51    1
   152   162   163    1
   153   168   169    1
   154   168   164   am
   155   169   170    1
   156   164   163    1
   157   164   165    2
   158   163   166    1
   159   177   176    2
   160    51    56   am
   161    51    52    2
   162    56    57    1
   163   170   171    2
   164   176   175    1
   165   166   167    1
   166    66    65    1
   167    64    63    2
   168   174   175    1
   169    60    57    1
   170    63    62    1
   171    57    58    1
   172   175   178    1
   173    61    62    1
   174    61    58   am
   175   178   179    1
   176    65    62    1
   177    65    67    1
   178    58    59    2
   179   180   179    1
   180   180   181    1
   181   183   182    1
   182   181   182    2
   183   182   184    1
