@<TRIPOS>MOLECULE
tmp/5irvD01.pdb
 168 154 0 0 0
SMALL
GASTEIGER

@<TRIPOS>ATOM
      1  N         45.1750 -134.8510   53.1460 N.3    76  ALA76      -0.1245
      2  CA        45.4850 -133.7310   54.0220 C.3    76  ALA76       0.1562
      3  C         46.8860 -133.1800   53.8010 C.2    76  ALA76       0.2260
      4  O         47.1450 -132.0260   54.1580 O.2    76  ALA76      -0.2867
      5  CB        45.3250 -134.1710   55.4750 C.3    76  ALA76       0.0290
      6  N         54.5810 -133.3670   59.1910 N.3    84  ALA84      -0.1231
      7  CA        54.0230 -134.3230   60.1390 C.3    84  ALA84       0.1694
      8  C         53.6950 -135.6570   59.4890 C.2    84  ALA84       0.2592
      9  O         53.7660 -136.6990   60.1500 O.2    84  ALA84      -0.2718
     10  CB        52.7670 -133.7320   60.7860 C.3    84  ALA84       0.0304
     11  N         53.3450 -135.6550   58.2050 N.am   85  PHE85      -0.1976
     12  CA        52.8530 -136.8570   57.5470 C.3    85  PHE85       0.1639
     13  C         53.7220 -137.3130   56.3790 C.2    85  PHE85       0.2290
     14  O         53.2880 -138.1690   55.6030 O.2    85  PHE85      -0.2864
     15  CB        51.4140 -136.6310   57.0810 C.3    85  PHE85       0.0560
     16  CG        50.4570 -136.3280   58.2030 C.ar   85  PHE85      -0.0200
     17  CD1       50.5770 -136.9650   59.4300 C.ar   85  PHE85      -0.0042
     18  CD2       49.4440 -135.3980   58.0340 C.ar   85  PHE85      -0.0042
     19  CE1       49.7020 -136.6870   60.4600 C.ar   85  PHE85      -0.0003
     20  CE2       48.5660 -135.1160   59.0630 C.ar   85  PHE85      -0.0003
     21  CZ        48.6950 -135.7640   60.2760 C.ar   85  PHE85      -0.0000
     22  N         39.3690 -126.1300   59.1600 N.3   173  ASN173     -0.1240
     23  CA        40.0110 -126.9280   60.1980 C.3   173  ASN173      0.1653
     24  C         39.0060 -127.8860   60.8210 C.2   173  ASN173      0.2266
     25  O         39.2790 -129.0800   60.9820 O.2   173  ASN173     -0.2867
     26  CB        40.6260 -126.0270   61.2680 C.3   173  ASN173      0.1155
     27  CG        42.0980 -125.7570   61.0260 C.2   173  ASN173      0.2627
     28  OD1       42.6030 -125.9460   59.9200 O.2   173  ASN173     -0.2716
     29  ND2       42.8000 -125.3390   62.0710 N.am  173  ASN173     -0.0877
     30  N         38.2470 -130.7240   58.1630 N.3   176  ILE176     -0.1231
     31  CA        39.3370 -131.6860   58.0270 C.3   176  ILE176      0.1692
     32  C         39.3900 -132.5900   59.2520 C.2   176  ILE176      0.2591
     33  O         39.4970 -133.8150   59.1380 O.2   176  ILE176     -0.2718
     34  CB        40.6720 -130.9550   57.7980 C.3   176  ILE176      0.0266
     35  CG1       40.6940 -130.3260   56.4030 C.3   176  ILE176      0.0019
     36  CG2       41.8540 -131.9100   57.9530 C.3   176  ILE176      0.0020
     37  CD1       41.8410 -129.3640   56.1830 C.3   176  ILE176      0.0001
     38  N         39.3090 -131.9980   60.4450 N.am  177  ILE177     -0.1980
     39  CA        39.3830 -132.7870   61.6720 C.3   177  ILE177      0.1595
     40  C         38.2800 -133.8380   61.7010 C.2   177  ILE177      0.2287
     41  O         38.4910 -134.9680   62.1580 O.2   177  ILE177     -0.2864
     42  CB        39.3220 -131.8640   62.9050 C.3   177  ILE177      0.0276
     43  CG1       40.7030 -131.2470   63.1690 C.3   177  ILE177      0.0022
     44  CG2       38.7780 -132.6120   64.1300 C.3   177  ILE177      0.0022
     45  CD1       40.7770 -130.3480   64.3990 C.3   177  ILE177      0.0001
     46  N         38.9460 -136.5780   58.6760 N.3   180  LEU180     -0.1245
     47  CA        40.2310 -137.2580   58.5950 C.3   180  LEU180      0.1561
     48  C         40.1860 -138.6160   59.2790 C.2   180  LEU180      0.2260
     49  O         40.9360 -139.5240   58.9020 O.2   180  LEU180     -0.2867
     50  CB        41.3210 -136.3980   59.2360 C.3   180  LEU180      0.0270
     51  CG        42.7560 -136.5540   58.7370 C.3   180  LEU180      0.0019
     52  CD1       42.8510 -136.3260   57.2340 C.3   180  LEU180      0.0001
     53  CD2       43.6590 -135.5980   59.4920 C.3   180  LEU180      0.0001
     54  N         44.6050 -141.9150   64.8220 N.3   185  LEU185     -0.1245
     55  CA        45.1660 -142.4400   63.5770 C.3   185  LEU185      0.1561
     56  C         45.8520 -143.7830   63.7880 C.2   185  LEU185      0.2260
     57  O         46.7740 -143.9020   64.6020 O.2   185  LEU185     -0.2867
     58  CB        46.1500 -141.4630   62.9440 C.3   185  LEU185      0.0270
     59  CG        45.6330 -140.1070   62.4790 C.3   185  LEU185      0.0019
     60  CD1       46.8070 -139.2890   61.9820 C.3   185  LEU185      0.0001
     61  CD2       44.5820 -140.2670   61.3830 C.3   185  LEU185      0.0001
     62  N         41.4030 -124.8800   52.1470 N.3   210  ARG210     -0.1245
     63  CA        42.6960 -124.6840   52.7880 C.3   210  ARG210      0.1563
     64  C         43.7720 -124.4100   51.7450 C.2   210  ARG210      0.2260
     65  O         44.5540 -123.4620   51.8690 O.2   210  ARG210     -0.2867
     66  CB        43.0400 -125.9230   53.6210 C.3   210  ARG210      0.0307
     67  CG        44.1750 -125.7520   54.6260 C.3   210  ARG210      0.0489
     68  CD        45.5600 -125.8690   54.0000 C.3   210  ARG210      0.2205
     69  NE        45.8000 -127.1660   53.3650 N.pl3 210  ARG210     -0.0865
     70  CZ        46.4090 -128.1950   53.9490 C.cat 210  ARG210      0.5346
     71  NH1       46.8450 -128.1070   55.2000 N.pl3 210  ARG210      0.1354
     72  NH2       46.5830 -129.3260   53.2770 N.pl3 210  ARG210      0.1354
     73  N         52.2930 -126.8660   51.7230 N.3   262  THR262     -0.1218
     74  CA        51.8420 -127.8830   52.6710 C.3   262  THR262      0.1862
     75  C         52.6240 -127.8230   53.9720 C.2   262  THR262      0.2287
     76  O         52.0710 -128.1230   55.0360 O.2   262  THR262     -0.2866
     77  CB        51.9650 -129.2830   52.0760 C.3   262  THR262      0.1770
     78  OG1       51.4120 -129.3010   50.7560 O.3   262  THR262     -0.2211
     79  CG2       51.2150 -130.2760   52.9530 C.3   262  THR262      0.0375
     80  N         50.9380 -125.3850   55.8900 N.3   265  GLY265     -0.1210
     81  CA        49.6450 -125.9080   56.2950 C.3   265  GLY265      0.1956
     82  C         49.7190 -126.8760   57.4580 C.2   265  GLY265      0.2611
     83  O         48.7560 -127.0090   58.2170 O.2   265  GLY265     -0.2717
     84  N         50.8570 -127.5560   57.6210 N.am  266  ASP266     -0.1973
     85  CA        51.0180 -128.4630   58.7510 C.3   266  ASP266      0.1709
     86  C         51.3280 -127.6850   60.0190 C.2   266  ASP266      0.2293
     87  O         50.8750 -128.0550   61.1070 O.2   266  ASP266     -0.2864
     88  CB        52.1340 -129.4740   58.4600 C.3   266  ASP266      0.1436
     89  CG        51.6220 -130.7570   57.8220 C.2   266  ASP266      0.3671
     90  OD1       50.4250 -130.8280   57.4710 O.co2 266  ASP266     -0.2456
     91  OD2       52.4300 -131.6970   57.6630 O.co2 266  ASP266     -0.2456
     92  N         47.8140 -126.0850   60.7220 N.3   269  GLY269     -0.1210
     93  CA        46.8080 -127.0690   61.0900 C.3   269  GLY269      0.1956
     94  C         47.1250 -127.7650   62.3990 C.2   269  GLY269      0.2612
     95  O         46.2620 -127.9060   63.2690 O.2   269  GLY269     -0.2717
     96  N         48.3740 -128.1990   62.5600 N.am  270  ALA270     -0.1965
     97  CA        48.7670 -128.9020   63.7750 C.3   270  ALA270      0.1728
     98  C         48.7220 -127.9770   64.9850 C.2   270  ALA270      0.2616
     99  O         48.0360 -128.2570   65.9740 O.2   270  ALA270     -0.2715
    100  CB        50.1710 -129.4860   63.6000 C.3   270  ALA270      0.0334
    101  N         49.4560 -126.8670   64.9210 N.am  271  GLY271     -0.1955
    102  CA        49.6140 -126.0220   66.0950 C.3   271  GLY271      0.1869
    103  C         48.3120 -125.4670   66.6370 C.2   271  GLY271      0.2309
    104  O         48.0610 -125.5080   67.8430 O.2   271  GLY271     -0.2863
    105  N         44.7620 -125.9790   66.2750 N.3   273  GLU273     -0.1231
    106  CA        43.6810 -126.7380   66.8940 C.3   273  GLU273      0.1699
    107  C         44.1750 -127.4620   68.1320 C.2   273  GLU273      0.2592
    108  O         43.3860 -127.7740   69.0310 O.2   273  GLU273     -0.2718
    109  CB        43.0870 -127.7330   65.8960 C.3   273  GLU273      0.0402
    110  CG        42.1050 -127.1140   64.9180 C.3   273  GLU273      0.1161
    111  CD        40.8340 -126.6370   65.5990 C.2   273  GLU273      0.3649
    112  OE1       40.5380 -127.1270   66.7110 O.co2 273  GLU273     -0.2457
    113  OE2       40.1390 -125.7690   65.0280 O.co2 273  GLU273     -0.2457
    114  N         45.4730 -127.7460   68.1810 N.am  274  THR274     -0.1953
    115  CA        46.0640 -128.4910   69.2820 C.3   274  THR274      0.1897
    116  C         46.2750 -127.6360   70.5260 C.2   274  THR274      0.2313
    117  O         45.7980 -127.9880   71.6100 O.2   274  THR274     -0.2863
    118  CB        47.3930 -129.0590   68.8100 C.3   274  THR274      0.1794
    119  OG1       47.1770 -129.8550   67.6350 O.3   274  THR274     -0.2208
    120  CG2       48.0030 -129.8850   69.8800 C.3   274  THR274      0.0378
    121  N         47.2460 -134.5480   74.0610 N.3   334  VAL334     -0.1231
    122  CA        46.7080 -134.1190   72.7730 C.3   334  VAL334      0.1692
    123  C         46.6720 -135.2910   71.8090 C.2   334  VAL334      0.2591
    124  O         45.7040 -135.4810   71.0630 O.2   334  VAL334     -0.2718
    125  CB        47.5670 -132.9780   72.2080 C.3   334  VAL334      0.0266
    126  CG1       47.6370 -133.0690   70.6750 C.3   334  VAL334      0.0020
    127  CG2       47.0640 -131.6190   72.6920 C.3   334  VAL334      0.0020
    128  N         47.7510 -136.0760   71.7950 N.am  335  ALA335     -0.1980
    129  CA        47.9870 -137.1150   70.7960 C.3   335  ALA335      0.1597
    130  C         48.1260 -138.4360   71.5390 C.2   335  ALA335      0.2287
    131  O         49.2440 -138.9360   71.7350 O.2   335  ALA335     -0.2864
    132  CB        49.2350 -136.7990   69.9730 C.3   335  ALA335      0.0319
    133  N         50.3050 -140.5590   69.5050 N.3   338  LEU338     -0.1231
    134  CA        51.2630 -139.8280   68.6800 C.3   338  LEU338      0.1693
    135  C         50.7350 -139.7900   67.2550 C.2   338  LEU338      0.2591
    136  O         49.5230 -139.7970   67.0150 O.2   338  LEU338     -0.2718
    137  CB        52.6420 -140.4450   68.7940 C.3   338  LEU338      0.0284
    138  CG        53.2990 -140.6920   70.1410 C.3   338  LEU338      0.0019
    139  CD1       54.8060 -140.7490   69.9210 C.3   338  LEU338      0.0001
    140  CD2       52.9220 -139.6350   71.1540 C.3   338  LEU338      0.0001
    141  N         51.6690 -139.7440   66.3150 N.am  339  ILE339     -0.1980
    142  CA        51.4260 -140.0530   64.9150 C.3   339  ILE339      0.1595
    143  C         52.0850 -141.4080   64.6810 C.2   339  ILE339      0.2287
    144  O         53.1110 -141.7060   65.3110 O.2   339  ILE339     -0.2864
    145  CB        52.0090 -138.9690   64.0030 C.3   339  ILE339      0.0276
    146  CG1       51.4330 -137.6040   64.3740 C.3   339  ILE339      0.0022
    147  CG2       51.7440 -139.3060   62.5410 C.3   339  ILE339      0.0022
    148  CD1       52.1640 -136.4470   63.7430 C.3   339  ILE339      0.0001
    149  N         57.6950 -133.2400   68.3970 N.3   410  CYS410     -0.1235
    150  CA        57.1480 -131.9290   68.1130 C.3   410  CYS410      0.1677
    151  C         58.2700 -130.9240   67.9000 C.2   410  CYS410      0.2270
    152  O         59.2140 -130.8500   68.6920 O.2   410  CYS410     -0.2867
    153  CB        56.2550 -131.4860   69.2680 C.3   410  CYS410      0.0956
    154  SG        55.3040 -130.0300   68.8970 S.3   410  CYS410     -0.0801
    155  N         42.2390 -136.8230   65.0430 N.3   450  VAL450     -0.1231
    156  CA        43.6320 -136.4870   64.7900 C.3   450  VAL450      0.1692
    157  C         44.1620 -135.5960   65.9090 C.2   450  VAL450      0.2591
    158  O         45.3730 -135.5380   66.1410 O.2   450  VAL450     -0.2718
    159  CB        43.7480 -135.8300   63.3950 C.3   450  VAL450      0.0266
    160  CG1       42.9460 -134.5350   63.3360 C.3   450  VAL450      0.0020
    161  CG2       45.2020 -135.6130   62.9970 C.3   450  VAL450      0.0020
    162  N         43.2690 -134.8840   66.6010 N.am  451  VAL451     -0.1980
    163  CA        43.5560 -134.1900   67.8530 C.3   451  VAL451      0.1595
    164  C         42.5720 -134.6980   68.8940 C.2   451  VAL451      0.2287
    165  O         41.4140 -134.9950   68.5810 O.2   451  VAL451     -0.2864
    166  CB        43.4480 -132.6550   67.7130 C.3   451  VAL451      0.0276
    167  CG1       43.7650 -131.9800   69.0410 C.3   451  VAL451      0.0022
    168  CG2       44.3850 -132.1540   66.6320 C.3   451  VAL451      0.0022
@<TRIPOS>BOND
     1    78    77    1
     2    73    74    1
     3    64    65    2
     4    64    63    1
     5    77    74    1
     6    77    79    1
     7    62    63    1
     8    74    75    1
     9    63    66    1
    10     1     2    1
    11    72    70    1
    12    69    70    2
    13    69    68    1
    14    66    67    1
    15     3     2    1
    16     3     4    2
    17    70    71    1
    18    75    76    2
    19    68    67    1
    20     2     5    1
    21    14    13    2
    22    80    81    1
    23    37    35    1
    24    81    82    1
    25    13    12    1
    26    35    34    1
    27    15    12    1
    28    15    16    1
    29    52    51    1
    30    82    84   am
    31    82    83    2
    32    90    89   ar
    33    12    11    1
    34    84    85    1
    35    91    89   ar
    36    34    36    1
    37    34    31    1
    38    89    88    1
    39    31    30    1
    40    31    32    1
    41    18    16   ar
    42    18    20   ar
    43    16    17   ar
    44    11     8   am
    45    88    85    1
    46    47    46    1
    47    47    50    1
    48    47    48    1
    49    51    50    1
    50    51    53    1
    51    85    86    1
    52    49    48    2
    53    20    21   ar
    54    33    32    2
    55    22    23    1
    56     6     7    1
    57    32    38   am
    58    17    19   ar
    59     8     7    1
    60     8     9    2
    61    28    27    2
    62    86    87    2
    63     7    10    1
    64    23    24    1
    65    23    26    1
    66    21    19   ar
    67    38    39    1
    68    92    93    1
    69    24    25    2
    70    27    26    1
    71    27    29   am
    72    93    94    1
    73    61    59    1
    74    39    40    1
    75    39    42    1
    76    40    41    2
    77    60    59    1
    78    94    96   am
    79    94    95    2
    80    59    58    1
    81   147   145    1
    82    96    97    1
    83    42    43    1
    84    42    44    1
    85    58    55    1
    86   161   159    1
    87    43    45    1
    88   160   159    1
    89   159   156    1
    90    55    56    1
    91    55    54    1
    92   100    97    1
    93   148   146    1
    94    97    98    1
    95    56    57    2
    96   145   146    1
    97   145   142    1
    98   143   142    1
    99   143   144    2
   100   156   155    1
   101   156   157    1
   102   142   141    1
   103   110   111    1
   104   110   109    1
   105   101    98   am
   106   101   102    1
   107    98    99    2
   108   113   111   ar
   109   111   112   ar
   110   109   106    1
   111   157   158    2
   112   157   162   am
   113   102   103    1
   114   105   106    1
   115   141   135   am
   116   162   163    1
   117   168   166    1
   118   103   104    2
   119   106   107    1
   120   136   135    2
   121   135   134    1
   122   119   118    1
   123   166   163    1
   124   166   167    1
   125   163   164    1
   126   151   150    1
   127   151   152    2
   128   150   149    1
   129   150   153    1
   130   107   114   am
   131   107   108    2
   132   114   115    1
   133   165   164    2
   134   134   137    1
   135   134   133    1
   136   137   138    1
   137   118   115    1
   138   118   120    1
   139   154   153    1
   140   115   116    1
   141   139   138    1
   142   132   129    1
   143   138   140    1
   144   116   117    2
   145   126   125    1
   146   129   130    1
   147   129   128    1
   148   124   123    2
   149   130   131    2
   150   128   123   am
   151   123   122    1
   152   125   127    1
   153   125   122    1
   154   122   121    1
