@<TRIPOS>MOLECULE
tmp/5irwA01.pdb
 169 160 0 0 0
SMALL
GASTEIGER

@<TRIPOS>ATOM
      1  N         39.2810   -3.1770    7.7080 N.3    10  ASN10      -0.1240
      2  CA        38.8940   -2.2200    8.7060 C.3    10  ASN10       0.1653
      3  C         39.5900   -2.3260   10.0360 C.2    10  ASN10       0.2266
      4  O         40.3870   -3.2250   10.2390 O.2    10  ASN10      -0.2867
      5  CB        37.3860   -2.0950    8.8120 C.3    10  ASN10       0.1155
      6  CG        36.7220   -3.2220    9.5210 C.2    10  ASN10       0.2627
      7  OD1       37.3160   -3.8820   10.3590 O.2    10  ASN10      -0.2716
      8  ND2       35.3850   -3.3410    9.3030 N.am   10  ASN10      -0.0877
      9  N         38.6100   -3.2410   12.8280 N.3    12  LEU12      -0.1245
     10  CA        38.3970   -4.5060   13.5520 C.3    12  LEU12       0.1561
     11  C         39.0970   -5.7020   12.9050 C.2    12  LEU12       0.2260
     12  O         38.9430   -6.7990   13.3850 O.2    12  LEU12      -0.2867
     13  CB        36.9050   -4.8010   13.6930 C.3    12  LEU12       0.0270
     14  CG        36.0430   -3.7030   14.2890 C.3    12  LEU12       0.0019
     15  CD1       34.5400   -4.0520   14.2500 C.3    12  LEU12       0.0001
     16  CD2       36.4410   -3.3600   15.7030 C.3    12  LEU12       0.0001
     17  N         38.2770   -6.8480    9.8370 N.3    14  SER14      -0.1217
     18  CA        37.4310   -7.3330    8.7680 C.3    14  SER14       0.1889
     19  C         37.9180   -6.8870    7.3770 C.2    14  SER14       0.2288
     20  O         38.5280   -5.8230    7.2490 O.2    14  SER14      -0.2866
     21  CB        36.0100   -6.8220    8.9440 C.3    14  SER14       0.2089
     22  OG        35.5060   -7.2080   10.2060 O.3    14  SER14      -0.2183
     23  N         32.2620   -9.6030    1.8410 N.3    31  TYR31      -0.1241
     24  CA        32.6280   -9.1590    3.1630 C.3    31  TYR31       0.1605
     25  C         33.0120  -10.4070    4.0330 C.2    31  TYR31       0.2264
     26  O         32.2140  -11.2920    4.1940 O.2    31  TYR31      -0.2867
     27  CB        31.4500   -8.3320    3.8080 C.3    31  TYR31       0.0534
     28  CG        31.9080   -7.3650    4.8940 C.ar   31  TYR31      -0.0201
     29  CD1       32.0600   -6.0210    4.6210 C.ar   31  TYR31      -0.0009
     30  CD2       32.1440   -7.7950    6.2060 C.ar   31  TYR31      -0.0009
     31  CE1       32.4830   -5.1290    5.6110 C.ar   31  TYR31       0.0417
     32  CE2       32.5620   -6.9200    7.2000 C.ar   31  TYR31       0.0417
     33  CZ        32.7500   -5.5980    6.9020 C.ar   31  TYR31       0.1957
     34  OH        33.1290   -4.6760    7.8610 O.3    31  TYR31      -0.2866
     35  N         33.8120  -10.6360    7.8440 N.3    33  THR33      -0.1218
     36  CA        33.9300  -10.0590    9.1680 C.3    33  THR33       0.1862
     37  C         34.9450  -10.8340   10.0430 C.2    33  THR33       0.2287
     38  O         35.0130  -12.0240    9.9890 O.2    33  THR33      -0.2866
     39  CB        32.5940   -9.9330    9.9020 C.3    33  THR33       0.1770
     40  OG1       32.8170   -9.2490   11.1640 O.3    33  THR33      -0.2211
     41  CG2       31.9320  -11.2990   10.1810 C.3    33  THR33       0.0375
     42  N         34.6880  -10.3200   13.3740 N.3    35  VAL35      -0.1231
     43  CA        33.9690  -10.3770   14.6670 C.3    35  VAL35       0.1692
     44  C         32.5460  -10.7560   14.3970 C.2    35  VAL35       0.2593
     45  O         32.0420  -10.5500   13.2910 O.2    35  VAL35      -0.2718
     46  CB        33.9450   -8.9980   15.3800 C.3    35  VAL35       0.0266
     47  CG1       35.3540   -8.5430   15.6970 C.3    35  VAL35       0.0020
     48  CG2       33.3230   -7.8860   14.5240 C.3    35  VAL35       0.0020
     49  N         31.8740  -11.3190   15.3910 N.am   36  THR36      -0.1939
     50  CA        30.3880  -11.5500   15.2470 C.3    36  THR36       0.2028
     51  C         29.7050  -11.4380   16.5560 C.2    36  THR36       0.2642
     52  O         30.3630  -11.5720   17.5750 O.2    36  THR36      -0.2714
     53  CB        30.0160  -12.9280   14.6390 C.3    36  THR36       0.1808
     54  OG1       30.3780  -13.9830   15.5340 O.3    36  THR36      -0.2208
     55  CG2       30.7470  -13.0930   13.3920 C.3    36  THR36       0.0379
     56  N         28.3950  -11.1850   16.5390 N.am   37  ALA37      -0.1963
     57  CA        27.5120  -11.3680   17.7360 C.3    37  ALA37       0.1728
     58  C         26.8760  -12.7390   17.7820 C.2    37  ALA37       0.2616
     59  O         26.3040  -13.1120   18.8140 O.2    37  ALA37      -0.2715
     60  CB        26.4110  -10.3300   17.7630 C.3    37  ALA37       0.0334
     61  N         27.0430  -13.4880   16.6880 N.am   38  THR38      -0.1951
     62  CA        26.1810  -14.6000   16.3450 C.3    38  THR38       0.1897
     63  C         26.7260  -15.8650   17.0110 C.2    38  THR38       0.2313
     64  O         27.8430  -15.8400   17.5290 O.2    38  THR38      -0.2863
     65  CB        26.1050  -14.7880   14.7930 C.3    38  THR38       0.1794
     66  OG1       27.3390  -15.3180   14.2710 O.3    38  THR38      -0.2208
     67  CG2       25.8920  -13.4830   14.1290 C.3    38  THR38       0.0378
     68  N         24.3120  -11.2400    5.4980 N.3    68  TRP68      -0.1241
     69  CA        25.1440  -12.2420    6.1860 C.3    68  TRP68       0.1605
     70  C         24.7040  -13.6840    5.8540 C.2    68  TRP68       0.2264
     71  O         23.4940  -13.9870    5.8280 O.2    68  TRP68      -0.2867
     72  CB        25.1740  -12.0290    7.7010 C.3    68  TRP68       0.0550
     73  CG        25.6700  -10.6970    8.1250 C.ar   68  TRP68       0.0003
     74  CD1       24.9130   -9.6560    8.6580 C.ar   68  TRP68       0.0946
     75  CD2       26.9860  -10.2270    8.0590 C.ar   68  TRP68       0.0152
     76  NE1       25.7000   -8.5960    8.9510 N.ar   68  TRP68      -0.2442
     77  CE2       26.9820   -8.8980    8.5960 C.ar   68  TRP68       0.0810
     78  CE3       28.1840  -10.7880    7.6500 C.ar   68  TRP68       0.0012
     79  CZ2       28.1290   -8.1240    8.6880 C.ar   68  TRP68       0.0191
     80  CZ3       29.3130  -10.0470    7.7740 C.ar   68  TRP68       0.0001
     81  CH2       29.2650   -8.6870    8.2470 C.ar   68  TRP68       0.0015
     82  N         25.7430  -16.5140    7.6590 N.3    70  PHE70      -0.1227
     83  CA        25.8920  -17.3930    8.7810 C.3    70  PHE70       0.1736
     84  C         25.0110  -16.9020    9.9670 C.2    70  PHE70       0.2596
     85  O         25.2490  -17.3060   11.1130 O.2    70  PHE70      -0.2718
     86  CB        27.3940  -17.4920    9.1460 C.3    70  PHE70       0.0547
     87  CG        28.0190  -16.1750    9.4670 C.ar   70  PHE70      -0.0202
     88  CD1       28.4140  -15.3020    8.4600 C.ar   70  PHE70      -0.0042
     89  CD2       28.1410  -15.7470   10.7880 C.ar   70  PHE70      -0.0042
     90  CE1       28.8680  -14.0080    8.7480 C.ar   70  PHE70      -0.0003
     91  CE2       28.6410  -14.4640   11.0820 C.ar   70  PHE70      -0.0003
     92  CZ        28.9950  -13.5960   10.0550 C.ar   70  PHE70      -0.0000
     93  N         24.0430  -16.0090    9.7140 N.am   71  SER71      -0.1952
     94  CA        23.1640  -15.4740   10.7720 C.3    71  SER71       0.1924
     95  C         21.9290  -14.8910   10.1210 C.2    71  SER71       0.2314
     96  O         21.9420  -14.6320    8.9060 O.2    71  SER71      -0.2863
     97  CB        23.8920  -14.4600   11.6220 C.3    71  SER71       0.2116
     98  OG        23.6030  -13.1860   11.2100 O.3    71  SER71      -0.2180
     99  N         20.8730  -12.0230   10.5600 N.3    73  SER73      -0.1217
    100  CA        21.0520  -10.5650   10.6330 C.3    73  SER73       0.1889
    101  C         21.2560   -9.9130    9.2840 C.2    73  SER73       0.2288
    102  O         21.6490  -10.6030    8.3490 O.2    73  SER73      -0.2866
    103  CB        22.2910  -10.2730   11.4580 C.3    73  SER73       0.2089
    104  OG        22.0370  -10.6460   12.7920 O.3    73  SER73      -0.2183
    105  N         23.4210   -6.0820    8.0510 N.3    75  THR75      -0.1218
    106  CA        24.0860   -4.8600    8.3870 C.3    75  THR75       0.1862
    107  C         24.0450   -3.9060    7.1590 C.2    75  THR75       0.2287
    108  O         24.1800   -4.3330    6.0050 O.2    75  THR75      -0.2866
    109  CB        25.5400   -5.1300    8.7630 C.3    75  THR75       0.1770
    110  OG1       25.5660   -5.8710    9.9490 O.3    75  THR75      -0.2211
    111  CG2       26.2880   -3.8320    8.9960 C.3    75  THR75       0.0375
    112  N         25.9260   -0.2270    5.8860 N.3    77  PHE77      -0.1241
    113  CA        26.9690    0.7130    6.0610 C.3    77  PHE77       0.1605
    114  C         26.7180    1.9440    5.1490 C.2    77  PHE77       0.2264
    115  O         26.2470    1.8140    4.0130 O.2    77  PHE77      -0.2867
    116  CB        28.2980    0.1850    5.6350 C.3    77  PHE77       0.0534
    117  CG        28.8800   -0.8700    6.4840 C.ar   77  PHE77      -0.0203
    118  CD1       28.4200   -2.1770    6.4020 C.ar   77  PHE77      -0.0042
    119  CD2       29.9590   -0.6010    7.2730 C.ar   77  PHE77      -0.0042
    120  CE1       29.0050   -3.1720    7.1620 C.ar   77  PHE77      -0.0003
    121  CE2       30.5880   -1.5850    8.0200 C.ar   77  PHE77      -0.0003
    122  CZ        30.0860   -2.8820    7.9600 C.ar   77  PHE77      -0.0000
    123  N         27.5130    2.2160   10.5870 N.3    95  TRP95      -0.1241
    124  CA        26.6650    1.0660   10.3110 C.3    95  TRP95       0.1605
    125  C         25.5390    0.8980   11.3040 C.2    95  TRP95       0.2264
    126  O         25.6320    1.3360   12.4660 O.2    95  TRP95      -0.2867
    127  CB        27.5020   -0.1940   10.2330 C.3    95  TRP95       0.0550
    128  CG        28.4350   -0.4780   11.3490 C.ar   95  TRP95       0.0003
    129  CD1       29.7960   -0.2830   11.3590 C.ar   95  TRP95       0.0946
    130  CD2       28.1070   -1.0340   12.6210 C.ar   95  TRP95       0.0152
    131  NE1       30.3300   -0.6330   12.6050 N.ar   95  TRP95      -0.2442
    132  CE2       29.3080   -1.1120   13.3790 C.ar   95  TRP95       0.0810
    133  CE3       26.9180   -1.4890   13.1860 C.ar   95  TRP95       0.0012
    134  CZ2       29.3460   -1.6550   14.6460 C.ar   95  TRP95       0.0191
    135  CZ3       26.9310   -1.9440   14.4470 C.ar   95  TRP95       0.0001
    136  CH2       28.1340   -2.0440   15.1750 C.ar   95  TRP95       0.0015
    137  N         23.4680   -2.6010   12.5830 N.3    97  LEU97      -0.1245
    138  CA        23.3980   -4.0670   12.5710 C.3    97  LEU97       0.1561
    139  C         22.0410   -4.4660   13.1210 C.2    97  LEU97       0.2260
    140  O         21.7590   -4.2420   14.3290 O.2    97  LEU97      -0.2867
    141  CB        24.4840   -4.6370   13.4440 C.3    97  LEU97       0.0270
    142  CG        24.4310   -6.1230   13.8480 C.3    97  LEU97       0.0019
    143  CD1       24.2770   -7.0710   12.6910 C.3    97  LEU97       0.0001
    144  CD2       25.7070   -6.4910   14.5650 C.3    97  LEU97       0.0001
    145  N         19.5440   -7.2710   14.1630 N.3    99  SER99      -0.1217
    146  CA        19.2840   -8.6520   14.5060 C.3    99  SER99       0.1889
    147  C         17.8720   -9.0030   14.2940 C.2    99  SER99       0.2288
    148  O         16.9930   -8.1740   14.2790 O.2    99  SER99      -0.2866
    149  CB        19.5150   -8.8590   16.0080 C.3    99  SER99       0.2089
    150  OG        20.8820   -8.6280   16.2880 O.3    99  SER99      -0.2183
    151  N         21.8130   -2.3530   16.5740 N.3   112  ARG112     -0.1245
    152  CA        23.0750   -1.8230   17.0370 C.3   112  ARG112      0.1563
    153  C         23.6420   -0.8440   16.0440 C.2   112  ARG112      0.2260
    154  O         23.3340   -0.9050   14.8590 O.2   112  ARG112     -0.2867
    155  CB        24.1190   -2.8930   17.2470 C.3   112  ARG112      0.0307
    156  CG        23.7930   -3.8650   18.3700 C.3   112  ARG112      0.0489
    157  CD        24.9750   -4.8200   18.4710 C.3   112  ARG112      0.2205
    158  NE        24.8370   -5.6410   19.6550 N.pl3 112  ARG112     -0.0865
    159  CZ        24.1450   -6.7640   19.6970 C.cat 112  ARG112      0.5346
    160  NH1       23.5500   -7.2080   18.6060 N.pl3 112  ARG112      0.1354
    161  NH2       24.0460   -7.4290   20.8270 N.pl3 112  ARG112      0.1354
    162  N         33.0390    2.1380   11.3200 N.3   116  ASN116     -0.1240
    163  CA        34.2720    1.5170   10.8690 C.3   116  ASN116      0.1653
    164  C         35.0010    2.4270    9.9310 C.2   116  ASN116      0.2266
    165  O         34.3920    3.1120    9.0820 O.2   116  ASN116     -0.2867
    166  CB        34.0110    0.1820   10.0900 C.3   116  ASN116      0.1155
    167  CG        33.7780   -1.0010   10.9860 C.2   116  ASN116      0.2627
    168  OD1       32.7440   -1.6520   10.9030 O.2   116  ASN116     -0.2716
    169  ND2       34.7340   -1.2920   11.8690 N.am  116  ASN116     -0.0877
@<TRIPOS>BOND
     1    23    24    1
     2    24    27    1
     3    24    25    1
     4    27    28    1
     5   115   114    2
     6    25    26    2
     7    29    28   ar
     8    29    31   ar
     9    28    30   ar
    10   114   113    1
    11    68    69    1
    12    31    33   ar
    13   116   113    1
    14   116   117    1
    15    71    70    2
    16    70    69    1
    17   112   113    1
    18   108   107    2
    19    69    72    1
    20    30    32   ar
    21   118   117   ar
    22   118   120   ar
    23   117   119   ar
    24    33    32   ar
    25    33    34    1
    26   107   106    1
    27   120   122   ar
    28    20    19    2
    29   119   121   ar
    30    19    18    1
    31    78    80   ar
    32    78    75   ar
    33    82    83    1
    34    72    73    1
    35     1     2    1
    36    80    81   ar
    37    35    36    1
    38   122   121   ar
    39   105   106    1
    40    75    73   ar
    41    75    77   ar
    42    73    74   ar
    43    81    79   ar
    44   102   101    2
    45   106   109    1
    46    88    90   ar
    47    88    87   ar
    48    77    79   ar
    49    77    76   ar
    50    74    76   ar
    51     2     5    1
    52     2     3    1
    53    90    92   ar
    54   109   111    1
    55   109   110    1
    56    18    21    1
    57    18    17    1
    58    83    86    1
    59    83    84    1
    60     5     6    1
    61    96    95    2
    62    21    22    1
    63   165   164    2
    64    86    87    1
    65    36    39    1
    66    36    37    1
    67   101   100    1
    68     8     6   am
    69    87    89   ar
    70     6     7    2
    71    93    84   am
    72    93    94    1
    73    39    41    1
    74    39    40    1
    75   164   163    1
    76    84    85    2
    77    38    37    2
    78     3     4    2
    79    92    91   ar
    80   166   163    1
    81   166   167    1
    82    95    94    1
    83   127   124    1
    84   127   128    1
    85   124   123    1
    86   124   125    1
    87    99   100    1
    88   100   103    1
    89    94    97    1
    90    89    91   ar
    91   163   162    1
    92   168   167    2
    93   167   169   am
    94    98    97    1
    95   125   126    2
    96   128   129   ar
    97   128   130   ar
    98   129   131   ar
    99   103   104    1
   100   138   137    1
   101   138   139    1
   102   138   141    1
   103   131   132   ar
   104   130   133   ar
   105   130   132   ar
   106   143   142    1
   107     9    10    1
   108    11    12    2
   109    11    10    1
   110   139   140    2
   111   133   135   ar
   112    45    44    2
   113    42    43    1
   114   132   134   ar
   115    55    53    1
   116   141   142    1
   117    10    13    1
   118    13    14    1
   119   142   144    1
   120    67    65    1
   121   145   146    1
   122    15    14    1
   123    66    65    1
   124   148   147    2
   125    14    16    1
   126   147   146    1
   127    44    43    1
   128    44    49   am
   129   135   136   ar
   130   146   149    1
   131    48    46    1
   132    53    50    1
   133    53    54    1
   134   134   136   ar
   135    43    46    1
   136    65    62    1
   137   154   153    2
   138    50    49    1
   139    50    51    1
   140    46    47    1
   141   149   150    1
   142   153   152    1
   143    62    61    1
   144    62    63    1
   145    56    51   am
   146    56    57    1
   147    51    52    2
   148   151   152    1
   149    61    58   am
   150    63    64    2
   151   152   155    1
   152   155   156    1
   153    57    60    1
   154    57    58    1
   155    58    59    2
   156   156   157    1
   157   157   158    1
   158   160   159    1
   159   158   159    2
   160   159   161    1
