@<TRIPOS>MOLECULE
tmp/5irwB01.pdb
 169 160 0 0 0
SMALL
GASTEIGER

@<TRIPOS>ATOM
      1  N          5.2410    5.0930    4.5110 N.3    10  ASN10      -0.1240
      2  CA         5.6990    5.2170    5.9090 C.3    10  ASN10       0.1653
      3  C          5.0020    6.2590    6.7180 C.2    10  ASN10       0.2266
      4  O          4.2220    7.0340    6.1680 O.2    10  ASN10      -0.2867
      5  CB         7.2210    5.2490    6.0250 C.3    10  ASN10       0.1155
      6  CG         7.8560    6.5580    5.5960 C.2    10  ASN10       0.2627
      7  OD1        7.2660    7.5910    5.6200 O.2    10  ASN10      -0.2716
      8  ND2        9.1620    6.4920    5.3090 N.am   10  ASN10      -0.0877
      9  N          6.0180    9.0330    7.7700 N.3    12  LEU12      -0.1245
     10  CA         6.1920   10.3960    7.2370 C.3    12  LEU12       0.1561
     11  C          5.4480   10.6470    5.9220 C.2    12  LEU12       0.2260
     12  O          5.5390   11.7440    5.3900 O.2    12  LEU12      -0.2867
     13  CB         7.6920   10.7260    7.0460 C.3    12  LEU12       0.0270
     14  CG         8.6410   10.4780    8.2620 C.3    12  LEU12       0.0019
     15  CD1       10.0820   10.7290    7.9060 C.3    12  LEU12       0.0001
     16  CD2        8.2300   11.3560    9.4260 C.3    12  LEU12       0.0001
     17  N          6.1660    9.0870    3.0700 N.3    14  SER14      -0.1217
     18  CA         7.0100    8.5930    1.9680 C.3    14  SER14       0.1889
     19  C          6.5440    7.2220    1.4310 C.2    14  SER14       0.2288
     20  O          5.9600    6.4340    2.1670 O.2    14  SER14      -0.2866
     21  CB         8.4670    8.4280    2.4150 C.3    14  SER14       0.2089
     22  OG         8.9390    9.6510    2.9220 O.3    14  SER14      -0.2183
     23  N         12.0680    4.9250   -4.4330 N.3    31  TYR31      -0.1241
     24  CA        11.7130    5.6270   -3.1870 C.3    31  TYR31       0.1605
     25  C         11.3240    7.0770   -3.4970 C.2    31  TYR31       0.2264
     26  O         12.0680    7.8160   -4.1630 O.2    31  TYR31      -0.2867
     27  CB        12.9260    5.5850   -2.2060 C.3    31  TYR31       0.0534
     28  CG        12.5270    5.7740   -0.7580 C.ar   31  TYR31      -0.0201
     29  CD1       12.4070    4.6780    0.0870 C.ar   31  TYR31      -0.0009
     30  CD2       12.2310    7.0410   -0.2460 C.ar   31  TYR31      -0.0009
     31  CE1       12.0210    4.8540    1.3990 C.ar   31  TYR31       0.0417
     32  CE2       11.8490    7.2150    1.0680 C.ar   31  TYR31       0.0417
     33  CZ        11.7180    6.1250    1.8880 C.ar   31  TYR31       0.1957
     34  OH        11.3720    6.2580    3.2240 O.3    31  TYR31      -0.2866
     35  N         10.4940   10.1180   -1.2570 N.3    33  THR33      -0.1218
     36  CA        10.4080   10.7350    0.0500 C.3    33  THR33       0.1862
     37  C          9.3880   11.8580    0.0210 C.2    33  THR33       0.2287
     38  O          9.3070   12.6280   -0.9050 O.2    33  THR33      -0.2866
     39  CB        11.7740   11.2160    0.5930 C.3    33  THR33       0.1770
     40  OG1       11.5780   11.7360    1.9200 O.3    33  THR33      -0.2211
     41  CG2       12.4120   12.3280   -0.2650 C.3    33  THR33       0.0375
     42  N          9.6510   14.0780    2.5110 N.3    35  VAL35      -0.1231
     43  CA        10.3570   15.1130    3.2900 C.3    35  VAL35       0.1692
     44  C         11.7730   15.2340    2.7690 C.2    35  VAL35       0.2593
     45  O         12.3390   14.2550    2.2750 O.2    35  VAL35      -0.2718
     46  CB        10.4110   14.7960    4.8010 C.3    35  VAL35       0.0266
     47  CG1        9.0340   14.7110    5.3870 C.3    35  VAL35       0.0020
     48  CG2       11.1020   13.4730    5.1040 C.3    35  VAL35       0.0020
     49  N         12.3690   16.4100    2.9540 N.am   36  THR36      -0.1939
     50  CA        13.7830   16.5840    2.6310 C.3    36  THR36       0.2028
     51  C         14.3760   17.7210    3.4720 C.2    36  THR36       0.2642
     52  O         13.6400   18.6160    3.8530 O.2    36  THR36      -0.2714
     53  CB        13.9630   16.8480    1.1340 C.3    36  THR36       0.1808
     54  OG1       15.3490   17.0990    0.8240 O.3    36  THR36      -0.2208
     55  CG2       13.1490   18.0430    0.7220 C.3    36  THR36       0.0379
     56  N         15.6690   17.6660    3.8000 N.am   37  ALA37      -0.1963
     57  CA        16.3230   18.8200    4.4260 C.3    37  ALA37       0.1728
     58  C         16.6930   19.8220    3.4090 C.2    37  ALA37       0.2616
     59  O         16.9360   20.9720    3.7630 O.2    37  ALA37      -0.2715
     60  CB        17.5840   18.4280    5.1450 C.3    37  ALA37       0.0334
     61  N         16.8070   19.4100    2.1430 N.am   38  THR38      -0.1951
     62  CA        17.4880   20.2430    1.1190 C.3    38  THR38       0.1897
     63  C         16.4590   21.3500    0.7180 C.2    38  THR38       0.2313
     64  O         15.3020   21.2290    1.0730 O.2    38  THR38      -0.2863
     65  CB        17.9700   19.3690   -0.1070 C.3    38  THR38       0.1794
     66  OG1       16.8380   18.9080   -0.8760 O.3    38  THR38      -0.2208
     67  CG2       18.7140   18.1150    0.3140 C.3    38  THR38       0.0378
     68  N         20.1230    8.9250   -3.6310 N.3    68  TRP68      -0.1241
     69  CA        19.2200   10.0540   -3.8690 C.3    68  TRP68       0.1605
     70  C         19.5750   10.7780   -5.1620 C.2    68  TRP68       0.2264
     71  O         20.7530   10.9140   -5.4840 O.2    68  TRP68      -0.2867
     72  CB        19.2210   11.0510   -2.7210 C.3    68  TRP68       0.0550
     73  CG        18.7540   10.4750   -1.4160 C.ar   68  TRP68       0.0003
     74  CD1       19.5370   10.2190   -0.3440 C.ar   68  TRP68       0.0946
     75  CD2       17.4160   10.0940   -1.0480 C.ar   68  TRP68       0.0152
     76  NE1       18.7950    9.6960    0.6500 N.ar   68  TRP68      -0.2442
     77  CE2       17.4870    9.6010    0.2540 C.ar   68  TRP68       0.0810
     78  CE3       16.1740   10.1320   -1.6900 C.ar   68  TRP68       0.0012
     79  CZ2       16.3520    9.1450    0.9510 C.ar   68  TRP68       0.0191
     80  CZ3       15.0620    9.6740   -1.0230 C.ar   68  TRP68       0.0001
     81  CH2       15.1550    9.1880    0.2880 C.ar   68  TRP68       0.0015
     82  N         18.5170   13.9560   -5.9990 N.3    70  PHE70      -0.1227
     83  CA        18.4020   15.4140   -5.9030 C.3    70  PHE70       0.1736
     84  C         19.3440   15.9910   -4.8640 C.2    70  PHE70       0.2596
     85  O         19.1080   17.0870   -4.3620 O.2    70  PHE70      -0.2718
     86  CB        16.9210   15.7630   -5.6070 C.3    70  PHE70       0.0547
     87  CG        16.3720   15.0780   -4.3700 C.ar   70  PHE70      -0.0202
     88  CD1       15.9630   13.7450   -4.4190 C.ar   70  PHE70      -0.0042
     89  CD2       16.2550   15.7750   -3.1860 C.ar   70  PHE70      -0.0042
     90  CE1       15.4160   13.1330   -3.3110 C.ar   70  PHE70      -0.0003
     91  CE2       15.7340   15.1540   -2.0580 C.ar   70  PHE70      -0.0003
     92  CZ        15.3150   13.8290   -2.1140 C.ar   70  PHE70      -0.0000
     93  N         20.3310   15.1980   -4.4420 N.am   71  SER71      -0.1952
     94  CA        21.2850   15.6270   -3.4390 C.3    71  SER71       0.1924
     95  C         22.4970   14.7290   -3.5270 C.2    71  SER71       0.2314
     96  O         22.3990   13.6200   -4.0860 O.2    71  SER71      -0.2863
     97  CB        20.6440   15.6000   -2.0310 C.3    71  SER71       0.2116
     98  OG        20.9400   14.4240   -1.3850 O.3    71  SER71      -0.2180
     99  N         23.6720   13.1030   -1.1460 N.3    73  SER73      -0.1217
    100  CA        23.5030   12.2080    0.0160 C.3    73  SER73       0.1889
    101  C         23.1910   10.7850   -0.3320 C.2    73  SER73       0.2288
    102  O         22.8110   10.5280   -1.4280 O.2    73  SER73      -0.2866
    103  CB        22.3390   12.6800    0.8620 C.3    73  SER73       0.2089
    104  OG        22.6740   13.9340    1.4320 O.3    73  SER73      -0.2183
    105  N         21.1730    7.3590    1.8370 N.3    75  THR75      -0.1218
    106  CA        20.5440    6.8120    3.0130 C.3    75  THR75       0.1862
    107  C         20.5860    5.2790    2.9520 C.2    75  THR75       0.2287
    108  O         20.3630    4.6860    1.9010 O.2    75  THR75      -0.2866
    109  CB        19.1040    7.2960    3.1100 C.3    75  THR75       0.1770
    110  OG1       19.0830    8.7080    3.3410 O.3    75  THR75      -0.2211
    111  CG2       18.3820    6.6610    4.2780 C.3    75  THR75       0.0375
    112  N         18.7760    1.9100    5.0380 N.3    77  PHE77      -0.1241
    113  CA        17.7270    1.4660    5.9130 C.3    77  PHE77       0.1605
    114  C         18.0110   -0.0130    6.2410 C.2    77  PHE77       0.2264
    115  O         18.4720   -0.7740    5.3980 O.2    77  PHE77      -0.2867
    116  CB        16.3590    1.4660    5.2530 C.3    77  PHE77       0.0534
    117  CG        15.7600    2.8120    5.0010 C.ar   77  PHE77      -0.0203
    118  CD1       16.1270    3.5800    3.9250 C.ar   77  PHE77      -0.0042
    119  CD2       14.6970    3.2420    5.7640 C.ar   77  PHE77      -0.0042
    120  CE1       15.5600    4.7980    3.6970 C.ar   77  PHE77      -0.0003
    121  CE2       14.1040    4.4600    5.5380 C.ar   77  PHE77      -0.0003
    122  CZ        14.5370    5.2420    4.5130 C.ar   77  PHE77      -0.0000
    123  N         17.2840    3.9710    9.9710 N.3    95  TRP95      -0.1241
    124  CA        18.1170    4.4760    8.8970 C.3    95  TRP95       0.1605
    125  C         19.3080    5.3800    9.3710 C.2    95  TRP95       0.2264
    126  O         19.2400    5.9650   10.4230 O.2    95  TRP95      -0.2867
    127  CB        17.2640    5.2140    7.8930 C.3    95  TRP95       0.0550
    128  CG        16.3700    6.2570    8.4810 C.ar   95  TRP95       0.0003
    129  CD1       15.0410    6.1510    8.6840 C.ar   95  TRP95       0.0946
    130  CD2       16.7340    7.6040    8.8480 C.ar   95  TRP95       0.0152
    131  NE1       14.5390    7.3570    9.1910 N.ar   95  TRP95      -0.2442
    132  CE2       15.5740    8.2460    9.3090 C.ar   95  TRP95       0.0810
    133  CE3       17.9240    8.3460    8.7620 C.ar   95  TRP95       0.0012
    134  CZ2       15.5730    9.5890    9.6870 C.ar   95  TRP95       0.0191
    135  CZ3       17.9340    9.6500    9.1590 C.ar   95  TRP95       0.0001
    136  CH2       16.7880   10.2680    9.6330 C.ar   95  TRP95       0.0015
    137  N         21.3730    8.5650    7.3970 N.3    97  LEU97      -0.1245
    138  CA        21.4360    9.4990    6.2960 C.3    97  LEU97       0.1561
    139  C         22.8140   10.1800    6.3060 C.2    97  LEU97       0.2260
    140  O         23.1110   10.9600    7.2120 O.2    97  LEU97      -0.2867
    141  CB        20.3470   10.5940    6.4540 C.3    97  LEU97       0.0270
    142  CG        20.4110   11.8550    5.5650 C.3    97  LEU97       0.0019
    143  CD1       20.4660   11.5690    4.1130 C.3    97  LEU97       0.0001
    144  CD2       19.1590   12.6630    5.7820 C.3    97  LEU97       0.0001
    145  N         25.4130   12.7480    4.7220 N.3    99  SER99      -0.1217
    146  CA        25.6140   13.9000    3.8810 C.3    99  SER99       0.1889
    147  C         27.0080   13.9040    3.4250 C.2    99  SER99       0.2288
    148  O         27.8870   13.3040    4.0260 O.2    99  SER99      -0.2866
    149  CB        25.4250   15.1700    4.7030 C.3    99  SER99       0.2089
    150  OG        24.0460   15.2590    5.1000 O.3    99  SER99      -0.2183
    151  N         23.1500   11.4390   10.1370 N.3   112  ARG112     -0.1245
    152  CA        21.9200   11.4780   10.8720 C.3   112  ARG112      0.1563
    153  C         21.2990   10.0870   10.9820 C.2   112  ARG112      0.2260
    154  O         21.5820    9.2090   10.1640 O.2   112  ARG112     -0.2867
    155  CB        20.9080   12.3310   10.2130 C.3   112  ARG112      0.0307
    156  CG        21.2520   13.8210   10.2140 C.3   112  ARG112      0.0489
    157  CD        20.0440   14.5290    9.5430 C.3   112  ARG112      0.2205
    158  NE        20.2320   15.9340    9.4340 N.pl3 112  ARG112     -0.0865
    159  CZ        20.6840   16.5570    8.3420 C.cat 112  ARG112      0.5346
    160  NH1       20.9510   15.9210    7.1890 N.pl3 112  ARG112      0.1354
    161  NH2       20.8570   17.8790    8.4100 N.pl3 112  ARG112      0.1354
    162  N         11.8450    4.5270   10.5800 N.3   116  ASN116     -0.1240
    163  CA        10.5390    4.5780    9.8620 C.3   116  ASN116      0.1653
    164  C          9.7890    3.2520    9.9800 C.2   116  ASN116      0.2266
    165  O         10.4170    2.1800   10.0170 O.2   116  ASN116     -0.2867
    166  CB        10.7210    4.8290    8.3650 C.3   116  ASN116      0.1155
    167  CG        10.9320    6.2810    8.0250 C.2   116  ASN116      0.2627
    168  OD1       11.9330    6.6370    7.4480 O.2   116  ASN116     -0.2716
    169  ND2        9.9990    7.1420    8.4430 N.am  116  ASN116     -0.0877
@<TRIPOS>BOND
     1    82    83    1
     2    83    86    1
     3    83    84    1
     4    86    87    1
     5    71    70    2
     6    70    69    1
     7    84    93   am
     8    84    85    2
     9    93    94    1
    10    23    24    1
    11    88    87   ar
    12    88    90   ar
    13    87    89   ar
    14    26    25    2
    15    96    95    2
    16    69    68    1
    17    69    72    1
    18    95    94    1
    19    25    24    1
    20    94    97    1
    21    90    92   ar
    22    24    27    1
    23    89    91   ar
    24    72    73    1
    25    27    28    1
    26    92    91   ar
    27    97    98    1
    28    78    75   ar
    29    78    80   ar
    30   102   101    2
    31    73    75   ar
    32    73    74   ar
    33    35    36    1
    34    99   100    1
    35    75    77   ar
    36    80    81   ar
    37    38    37    2
    38    66    65    1
    39    28    30   ar
    40    28    29   ar
    41    74    76   ar
    42   101   100    1
    43    41    39    1
    44    30    32   ar
    45    65    67    1
    46    65    62    1
    47   100   103    1
    48    37    36    1
    49    36    39    1
    50    29    31   ar
    51    77    76   ar
    52    77    79   ar
    53    81    79   ar
    54    39    40    1
    55    63    64    2
    56    63    62    1
    57    55    53    1
    58    54    53    1
    59   103   104    1
    60    32    33   ar
    61    62    61    1
    62    53    50    1
    63    31    33   ar
    64    19    18    1
    65    19    20    2
    66   105   106    1
    67    33    34    1
    68   108   107    2
    69    18    21    1
    70    18    17    1
    71    61    58   am
    72    45    44    2
    73    21    22    1
    74    42    43    1
    75    50    49    1
    76    50    51    1
    77    44    49   am
    78    44    43    1
    79   107   106    1
    80   106   109    1
    81   109   110    1
    82   109   111    1
    83    43    46    1
    84    58    59    2
    85    58    57    1
    86   147   146    1
    87   147   148    2
    88    51    56   am
    89    51    52    2
    90   120   118   ar
    91   120   122   ar
    92    56    57    1
    93   146   149    1
    94   146   145    1
    95   118   117   ar
    96   143   142    1
    97    57    60    1
    98     1     2    1
    99   122   121   ar
   100   149   150    1
   101    46    48    1
   102    46    47    1
   103   117   116    1
   104   117   119   ar
   105   112   113    1
   106   116   113    1
   107     8     6   am
   108    12    11    2
   109   115   114    2
   110   121   119   ar
   111   142   144    1
   112   142   141    1
   113     6     7    2
   114     6     5    1
   115     2     5    1
   116     2     3    1
   117   113   114    1
   118    11    10    1
   119     4     3    2
   120   138   139    1
   121   138   141    1
   122   138   137    1
   123   139   140    2
   124    13    10    1
   125    13    14    1
   126   160   159    1
   127    10     9    1
   128   168   167    2
   129   127   128    1
   130   127   124    1
   131    15    14    1
   132   167   166    1
   133   167   169   am
   134    14    16    1
   135   159   161    1
   136   159   158    2
   137   166   163    1
   138   128   129   ar
   139   128   130   ar
   140   129   131   ar
   141   133   130   ar
   142   133   135   ar
   143   130   132   ar
   144   124   125    1
   145   124   123    1
   146   135   136   ar
   147   131   132   ar
   148   132   134   ar
   149   125   126    2
   150   158   157    1
   151   157   156    1
   152   136   134   ar
   153   163   164    1
   154   163   162    1
   155   164   165    2
   156   151   152    1
   157   154   153    2
   158   155   156    1
   159   155   152    1
   160   152   153    1
