@<TRIPOS>MOLECULE
tmp/5irwC01.pdb
 192 183 0 0 0
SMALL
GASTEIGER

@<TRIPOS>ATOM
      1  N          5.7920    6.2180   27.7090 N.3    10  ASN10      -0.1240
      2  CA         6.1420    6.0840   26.3060 C.3    10  ASN10       0.1653
      3  C          5.4320    5.0080   25.5550 C.2    10  ASN10       0.2266
      4  O          4.6770    4.2320   26.1220 O.2    10  ASN10      -0.2867
      5  CB         7.6730    6.0610   26.1210 C.3    10  ASN10       0.1155
      6  CG         8.3460    4.7570   26.5150 C.2    10  ASN10       0.2627
      7  OD1        7.7380    3.7140   26.5530 O.2    10  ASN10      -0.2716
      8  ND2        9.6430    4.8360   26.7810 N.am   10  ASN10      -0.0877
      9  N          6.4260    2.2300   24.4900 N.3    12  LEU12      -0.1245
     10  CA         6.6540    0.8810   25.0070 C.3    12  LEU12       0.1561
     11  C          6.0340    0.6600   26.3440 C.2    12  LEU12       0.2260
     12  O          6.1170   -0.4430   26.8800 O.2    12  LEU12      -0.2867
     13  CB         8.1350    0.5800   25.1390 C.3    12  LEU12       0.0270
     14  CG         9.0020    0.8240   23.8890 C.3    12  LEU12       0.0019
     15  CD1       10.5050    0.6290   24.1890 C.3    12  LEU12       0.0001
     16  CD2        8.5780   -0.0410   22.7240 C.3    12  LEU12       0.0001
     17  N          6.7870    2.2940   29.1640 N.3    14  SER14      -0.1217
     18  CA         7.6570    2.7420   30.2480 C.3    14  SER14       0.1889
     19  C          7.1710    4.0780   30.8010 C.2    14  SER14       0.2288
     20  O          6.5830    4.8790   30.0620 O.2    14  SER14      -0.2866
     21  CB         9.0990    2.9250   29.7260 C.3    14  SER14       0.2089
     22  OG         9.5720    1.7150   29.2030 O.3    14  SER14      -0.2183
     23  N         12.9660    6.5210   36.3780 N.3    31  TYR31      -0.1241
     24  CA        12.5560    5.8010   35.1560 C.3    31  TYR31       0.1605
     25  C         12.1960    4.3470   35.5050 C.2    31  TYR31       0.2264
     26  O         12.9610    3.6230   36.1620 O.2    31  TYR31      -0.2867
     27  CB        13.7180    5.8450   34.1410 C.3    31  TYR31       0.0534
     28  CG        13.2610    5.6500   32.7040 C.ar   31  TYR31      -0.0201
     29  CD1       13.0550    6.7330   31.8730 C.ar   31  TYR31      -0.0009
     30  CD2       12.9930    4.3900   32.2060 C.ar   31  TYR31      -0.0009
     31  CE1       12.6280    6.5630   30.5660 C.ar   31  TYR31       0.0417
     32  CE2       12.5420    4.2140   30.9270 C.ar   31  TYR31       0.0417
     33  CZ        12.3520    5.2990   30.1060 C.ar   31  TYR31       0.1957
     34  OH        11.9250    5.1400   28.7830 O.3    31  TYR31      -0.2866
     35  N         11.2920    1.2600   33.3170 N.3    33  THR33      -0.1218
     36  CA        11.1650    0.6520   32.0050 C.3    33  THR33       0.1862
     37  C         10.1570   -0.4930   32.0800 C.2    33  THR33       0.2287
     38  O         10.1090   -1.2450   33.0450 O.2    33  THR33      -0.2866
     39  CB        12.4930    0.1790   31.4230 C.3    33  THR33       0.1770
     40  OG1       12.2660   -0.3310   30.1240 O.3    33  THR33      -0.2211
     41  CG2       13.1660   -0.9290   32.2800 C.3    33  THR33       0.0375
     42  N         10.3820   -2.7010   29.6380 N.3    35  VAL35      -0.1231
     43  CA        11.0390   -3.7290   28.8230 C.3    35  VAL35       0.1692
     44  C         12.4460   -3.8190   29.2590 C.2    35  VAL35       0.2593
     45  O         13.0180   -2.8530   29.7510 O.2    35  VAL35      -0.2718
     46  CB        11.0490   -3.3990   27.2700 C.3    35  VAL35       0.0266
     47  CG1        9.6470   -3.3240   26.7250 C.3    35  VAL35       0.0020
     48  CG2       11.6960   -2.0750   26.9610 C.3    35  VAL35       0.0020
     49  N         13.0390   -4.9650   29.0250 N.am   36  THR36      -0.1939
     50  CA        14.4540   -5.1200   29.3300 C.3    36  THR36       0.2028
     51  C         14.9920   -6.2550   28.4980 C.2    36  THR36       0.2642
     52  O         14.2160   -7.1030   28.0730 O.2    36  THR36      -0.2714
     53  CB        14.6840   -5.4260   30.8400 C.3    36  THR36       0.1808
     54  OG1       16.0820   -5.7020   31.0810 O.3    36  THR36      -0.2208
     55  CG2       13.9120   -6.6180   31.2800 C.3    36  THR36       0.0379
     56  N         16.3120   -6.3410   28.3560 N.am   37  ALA37      -0.1963
     57  CA        16.8960   -7.3640   27.4820 C.3    37  ALA37       0.1728
     58  C         17.1130   -8.7300   28.0920 C.2    37  ALA37       0.2616
     59  O         17.3540   -9.6320   27.3520 O.2    37  ALA37      -0.2715
     60  CB        18.1770   -6.8610   26.9130 C.3    37  ALA37       0.0334
     61  N         17.0680   -8.8350   29.4300 N.am   38  THR38      -0.1951
     62  CA        17.3020  -10.0760   30.2120 C.3    38  THR38       0.1897
     63  C         16.0220  -10.4320   30.9770 C.2    38  THR38       0.2313
     64  O         15.0060   -9.7170   30.9010 O.2    38  THR38      -0.2863
     65  CB        18.6080   -9.9440   31.0650 C.3    38  THR38       0.1794
     66  OG1       19.6720  -10.1150   30.1410 O.3    38  THR38      -0.2208
     67  CG2       18.8590  -11.0290   32.1350 C.3    38  THR38       0.0378
     68  N         16.3060  -10.5330   34.4220 N.3    40  ASN40      -0.1240
     69  CA        16.4800   -9.9850   35.7610 C.3    40  ASN40       0.1653
     70  C         15.3250   -9.0500   35.9940 C.2    40  ASN40       0.2266
     71  O         14.8120   -8.4820   35.0620 O.2    40  ASN40      -0.2867
     72  CB        17.7750   -9.2120   35.8970 C.3    40  ASN40       0.1155
     73  CG        18.9990  -10.0940   35.8350 C.2    40  ASN40       0.2627
     74  OD1       18.9170  -11.2720   35.5350 O.2    40  ASN40      -0.2716
     75  ND2       20.1460   -9.5160   36.1260 N.am   40  ASN40      -0.0877
     76  N         20.9940    2.6590   35.3050 N.3    68  TRP68      -0.1241
     77  CA        20.1270    1.4860   35.5930 C.3    68  TRP68       0.1605
     78  C         20.5610    0.7820   36.8390 C.2    68  TRP68       0.2264
     79  O         21.7520    0.6740   37.1010 O.2    68  TRP68      -0.2867
     80  CB        20.1010    0.4930   34.4020 C.3    68  TRP68       0.0550
     81  CG        19.6020    1.0510   33.1500 C.ar   68  TRP68       0.0003
     82  CD1       20.3370    1.3620   32.0660 C.ar   68  TRP68       0.0946
     83  CD2       18.2240    1.3750   32.8170 C.ar   68  TRP68       0.0152
     84  NE1       19.5100    1.7630   31.0510 N.ar   68  TRP68      -0.2442
     85  CE2       18.2080    1.7760   31.4910 C.ar   68  TRP68       0.0810
     86  CE3       17.0160    1.3760   33.5160 C.ar   68  TRP68       0.0012
     87  CZ2       17.0330    2.2020   30.8610 C.ar   68  TRP68       0.0191
     88  CZ3       15.8180    1.6990   32.8410 C.ar   68  TRP68       0.0001
     89  CH2       15.8390    2.0790   31.5790 C.ar   68  TRP68       0.0015
     90  N         19.4950   -2.4520   37.7740 N.3    70  PHE70      -0.1227
     91  CA        19.4090   -3.8840   37.6640 C.3    70  PHE70       0.1736
     92  C         20.3170   -4.4290   36.5390 C.2    70  PHE70       0.2596
     93  O         20.0950   -5.5380   36.0670 O.2    70  PHE70      -0.2718
     94  CB        17.9220   -4.2670   37.4530 C.3    70  PHE70       0.0547
     95  CG        17.2930   -3.6220   36.2260 C.ar   70  PHE70      -0.0202
     96  CD1       16.8880   -2.2910   36.2640 C.ar   70  PHE70      -0.0042
     97  CD2       17.0700   -4.3400   35.0780 C.ar   70  PHE70      -0.0042
     98  CE1       16.2850   -1.7000   35.1900 C.ar   70  PHE70      -0.0003
     99  CE2       16.4830   -3.7350   33.9600 C.ar   70  PHE70      -0.0003
    100  CZ        16.0960   -2.4230   34.0310 C.ar   70  PHE70      -0.0000
    101  N         21.2910   -3.6320   36.0700 N.am   71  SER71      -0.1938
    102  CA        22.2410   -4.0280   35.0060 C.3    71  SER71       0.2055
    103  C         23.4620   -3.1760   35.0900 C.2    71  SER71       0.2643
    104  O         23.3970   -2.0480   35.6870 O.2    71  SER71      -0.2714
    105  CB        21.5780   -3.8820   33.6050 C.3    71  SER71       0.2130
    106  OG        22.4180   -3.6160   32.5290 O.3    71  SER71      -0.2179
    107  N         24.5710   -3.6480   34.5110 N.am   72  GLU72      -0.1963
    108  CA        25.7790   -2.7830   34.3500 C.3    72  GLU72       0.1733
    109  C         25.6650   -1.6860   33.2580 C.2    72  GLU72       0.2617
    110  O         26.5940   -0.9040   33.0250 O.2    72  GLU72      -0.2715
    111  CB        26.9450   -3.6480   34.0970 C.3    72  GLU72       0.0429
    112  CG        27.2510   -4.5940   35.2760 C.3    72  GLU72       0.1163
    113  CD        28.3510   -5.6360   34.9870 C.2    72  GLU72       0.3649
    114  OE1       28.8800   -5.6640   33.8450 O.co2  72  GLU72      -0.2457
    115  OE2       28.6980   -6.3910   35.9140 O.co2  72  GLU72      -0.2457
    116  N         24.4920   -1.5920   32.6300 N.am   73  SER73      -0.1950
    117  CA        24.2470   -0.7540   31.4980 C.3    73  SER73       0.1924
    118  C         23.9600    0.7000   31.8640 C.2    73  SER73       0.2314
    119  O         23.5580    0.9740   32.9770 O.2    73  SER73      -0.2863
    120  CB        22.9960   -1.2370   30.7310 C.3    73  SER73       0.2116
    121  OG        23.2480   -2.4750   30.1510 O.3    73  SER73      -0.2180
    122  N         21.7780    4.1190   29.7450 N.3    75  THR75      -0.1218
    123  CA        21.0480    4.6340   28.6010 C.3    75  THR75       0.1862
    124  C         21.0620    6.1960   28.6310 C.2    75  THR75       0.2287
    125  O         20.9270    6.7700   29.7040 O.2    75  THR75      -0.2866
    126  CB        19.6100    4.1240   28.5700 C.3    75  THR75       0.1770
    127  OG1       19.5930    2.7250   28.3430 O.3    75  THR75      -0.2211
    128  CG2       18.8340    4.7620   27.4230 C.3    75  THR75       0.0375
    129  N         19.1710    9.5490   26.6390 N.3    77  PHE77      -0.1241
    130  CA        18.0940    9.9880   25.7810 C.3    77  PHE77       0.1605
    131  C         18.3310   11.4450   25.4580 C.2    77  PHE77       0.2264
    132  O         18.8300   12.2090   26.2720 O.2    77  PHE77      -0.2867
    133  CB        16.7350    9.9670   26.4940 C.3    77  PHE77       0.0534
    134  CG        16.1510    8.6440   26.7640 C.ar   77  PHE77      -0.0203
    135  CD1       16.5580    7.8920   27.8740 C.ar   77  PHE77      -0.0042
    136  CD2       15.0490    8.2010   26.0080 C.ar   77  PHE77      -0.0042
    137  CE1       16.0030    6.6550   28.1240 C.ar   77  PHE77      -0.0003
    138  CE2       14.4210    7.0020   26.3270 C.ar   77  PHE77      -0.0003
    139  CZ        14.9370    6.2080   27.3500 C.ar   77  PHE77      -0.0000
    140  N         17.5240    7.3910   21.7570 N.3    95  TRP95      -0.1241
    141  CA        18.3790    6.8730   22.7980 C.3    95  TRP95       0.1605
    142  C         19.5070    5.9860   22.3320 C.2    95  TRP95       0.2264
    143  O         19.4520    5.4330   21.2510 O.2    95  TRP95      -0.2867
    144  CB        17.5730    6.1500   23.8220 C.3    95  TRP95       0.0550
    145  CG        16.6610    5.1100   23.3270 C.ar   95  TRP95       0.0003
    146  CD1       15.3180    5.2290   23.1510 C.ar   95  TRP95       0.0946
    147  CD2       17.0080    3.7720   22.9680 C.ar   95  TRP95       0.0152
    148  NE1       14.8270    4.0620   22.6430 N.ar   95  TRP95      -0.2442
    149  CE2       15.8540    3.1470   22.5710 C.ar   95  TRP95       0.0810
    150  CE3       18.2090    3.0580   22.9460 C.ar   95  TRP95       0.0012
    151  CZ2       15.8390    1.8050   22.1790 C.ar   95  TRP95       0.0191
    152  CZ3       18.2100    1.7400   22.5870 C.ar   95  TRP95       0.0001
    153  CH2       17.0560    1.1190   22.1840 C.ar   95  TRP95       0.0015
    154  N         21.6910    2.8480   24.1650 N.3    97  LEU97      -0.1245
    155  CA        21.7900    1.9170   25.2960 C.3    97  LEU97       0.1561
    156  C         23.1620    1.2680   25.2460 C.2    97  LEU97       0.2260
    157  O         23.4670    0.4850   24.3180 O.2    97  LEU97      -0.2867
    158  CB        20.7640    0.8500   25.1740 C.3    97  LEU97       0.0270
    159  CG        20.9030   -0.4450   26.0510 C.3    97  LEU97       0.0019
    160  CD1       21.0050   -0.1360   27.5040 C.3    97  LEU97       0.0001
    161  CD2       19.6400   -1.2590   25.8930 C.3    97  LEU97       0.0001
    162  N         25.8180   -1.2530   26.7110 N.3    99  SER99      -0.1202
    163  CA        26.0750   -2.4340   27.6000 C.3    99  SER99       0.2020
    164  C         27.4770   -2.4190   28.0360 C.2    99  SER99       0.2619
    165  O         28.3330   -1.8760   27.3510 O.2    99  SER99      -0.2717
    166  CB        25.8980   -3.7160   26.7780 C.3    99  SER99       0.2103
    167  OG        24.5610   -3.8390   26.4260 O.3    99  SER99      -0.2182
    168  N         27.7230   -3.0760   29.1320 N.am  100  SER100     -0.1951
    169  CA        29.0900   -3.3650   29.5260 C.3   100  SER100      0.1924
    170  C         29.6390   -4.5100   28.6680 C.2   100  SER100      0.2314
    171  O         28.9910   -5.5720   28.5570 O.2   100  SER100     -0.2863
    172  CB        29.2440   -3.7420   31.0040 C.3   100  SER100      0.2116
    173  OG        28.4810   -4.8770   31.3590 O.3   100  SER100     -0.2180
    174  N         23.4090   -0.0160   21.3960 N.3   112  ARG112     -0.1245
    175  CA        22.1740   -0.0640   20.6750 C.3   112  ARG112      0.1563
    176  C         21.5590    1.3270   20.5720 C.2   112  ARG112      0.2260
    177  O         21.8130    2.1890   21.4120 O.2   112  ARG112     -0.2867
    178  CB        21.1440   -0.9570   21.4220 C.3   112  ARG112      0.0307
    179  CG        21.4960   -2.4550   21.4310 C.3   112  ARG112      0.0489
    180  CD        20.3350   -3.1520   22.1420 C.3   112  ARG112      0.2205
    181  NE        20.4810   -4.5820   22.0230 N.pl3 112  ARG112     -0.0865
    182  CZ        21.3160   -5.2900   22.7380 C.cat 112  ARG112      0.5346
    183  NH1       22.0280   -4.6950   23.6770 N.pl3 112  ARG112      0.1354
    184  NH2       21.4820   -6.5550   22.4780 N.pl3 112  ARG112      0.1354
    185  N         11.9990    6.8380   21.3190 N.3   116  ASN116     -0.1240
    186  CA        10.7710    6.7760   22.1020 C.3   116  ASN116      0.1653
    187  C         10.0060    8.0800   22.0010 C.2   116  ASN116      0.2266
    188  O         10.6120    9.1540   22.0030 O.2   116  ASN116     -0.2867
    189  CB        11.0330    6.5170   23.5840 C.3   116  ASN116      0.1155
    190  CG        11.3060    5.0650   23.9050 C.2   116  ASN116      0.2627
    191  OD1       12.3010    4.7290   24.5210 O.2   116  ASN116     -0.2716
    192  ND2       10.4000    4.2170   23.5450 N.am  116  ASN116     -0.0877
@<TRIPOS>BOND
     1   176   175    1
     2   176   177    2
     3   175   174    1
     4   175   178    1
     5   143   142    2
     6   185   186    1
     7   178   179    1
     8   179   180    1
     9   140   141    1
    10   187   188    2
    11   187   186    1
    12   181   180    1
    13   181   182    2
    14   186   189    1
    15   151   153   ar
    16   151   149   ar
    17   153   152   ar
    18   142   141    1
    19   184   182    1
    20   149   148   ar
    21   149   147   ar
    22   152   150   ar
    23   148   146   ar
    24    16    14    1
    25   182   183    1
    26   141   144    1
    27   150   147   ar
    28   147   145   ar
    29   146   145   ar
    30   145   144    1
    31   192   190   am
    32   189   190    1
    33    14    15    1
    34    14    13    1
    35   190   191    2
    36   154   155    1
    37   157   156    2
    38     9    10    1
    39    10    13    1
    40    10    11    1
    41   158   155    1
    42   158   159    1
    43   156   155    1
    44   131   130    1
    45   131   132    2
    46     3     4    2
    47     3     2    1
    48   130   133    1
    49   130   129    1
    50   161   159    1
    51   136   138   ar
    52   136   134   ar
    53   159   160    1
    54     5     2    1
    55     5     6    1
    56     2     1    1
    57   138   139   ar
    58    11    12    2
    59   167   166    1
    60   133   134    1
    61     6     7    2
    62     6     8   am
    63   162   163    1
    64    47    46    1
    65   134   135   ar
    66   166   163    1
    67    60    57    1
    68    48    46    1
    69    46    43    1
    70   139   137   ar
    71   165   164    2
    72    59    58    2
    73   128   126    1
    74    57    58    1
    75    57    56    1
    76   163   164    1
    77   135   137   ar
    78   164   168   am
    79    52    51    2
    80    58    61   am
    81   127   126    1
    82    56    51   am
    83    51    50    1
    84   171   170    2
    85   126   123    1
    86   123   124    1
    87   123   122    1
    88   124   125    2
    89   170   169    1
    90    34    33    1
    91    43    44    1
    92    43    42    1
    93    49    44   am
    94    49    50    1
    95   168   169    1
    96    17    18    1
    97    22    21    1
    98    44    45    2
    99    50    53    1
   100    61    62    1
   101   169   172    1
   102    21    18    1
   103    20    19    2
   104    33    31   ar
   105    33    32   ar
   106    40    39    1
   107    66    65    1
   108   121   120    1
   109    62    63    1
   110    62    65    1
   111    18    19    1
   112    31    29   ar
   113   120   117    1
   114    53    54    1
   115    53    55    1
   116    87    85   ar
   117    87    89   ar
   118    64    63    2
   119    32    30   ar
   120   172   173    1
   121    84    85   ar
   122    84    82   ar
   123    65    67    1
   124    39    36    1
   125    39    41    1
   126    85    83   ar
   127   117   118    1
   128   117   116    1
   129    89    88   ar
   130   118   119    2
   131    29    28   ar
   132    36    37    1
   133    36    35    1
   134    82    81   ar
   135    37    38    2
   136    30    28   ar
   137   106   105    1
   138   116   109   am
   139    28    27    1
   140    83    81   ar
   141    83    86   ar
   142    88    86   ar
   143   110   109    2
   144    81    80    1
   145   109   108    1
   146   105   102    1
   147   114   113   ar
   148    99   100   ar
   149    99    97   ar
   150   100    98   ar
   151   111   108    1
   152   111   112    1
   153    27    24    1
   154   108   107    1
   155    80    77    1
   156    68    69    1
   157   107   103   am
   158   113   112    1
   159   113   115   ar
   160   102   103    1
   161   102   101    1
   162    71    70    2
   163    97    95   ar
   164   103   104    2
   165    24    25    1
   166    24    23    1
   167    98    96   ar
   168    76    77    1
   169    25    26    2
   170    74    73    2
   171    77    78    1
   172    69    72    1
   173    69    70    1
   174    73    72    1
   175    73    75   am
   176    93    92    2
   177   101    92   am
   178    95    96   ar
   179    95    94    1
   180    92    91    1
   181    78    79    2
   182    94    91    1
   183    91    90    1
