@<TRIPOS>MOLECULE
tmp/5irxC02.pdb
 181 173 0 0 0
SMALL
GASTEIGER

@<TRIPOS>ATOM
      1  N        126.1650   88.9530  120.2020 N.3   173  PHE173     -0.1241
      2  CA       125.3280   90.0210  120.7110 C.3   173  PHE173      0.1605
      3  C        124.5910   90.7780  119.6310 C.2   173  PHE173      0.2264
      4  O        123.4600   91.1730  119.8540 O.2   173  PHE173     -0.2867
      5  CB       126.1640   90.9910  121.5380 C.3   173  PHE173      0.0534
      6  CG       126.6190   90.4190  122.8350 C.ar  173  PHE173     -0.0203
      7  CD1      125.7980   90.4560  123.9390 C.ar  173  PHE173     -0.0042
      8  CD2      127.8490   89.8120  122.9440 C.ar  173  PHE173     -0.0042
      9  CE1      126.2080   89.9210  125.1350 C.ar  173  PHE173     -0.0003
     10  CE2      128.2610   89.2740  124.1370 C.ar  173  PHE173     -0.0003
     11  CZ       127.4390   89.3290  125.2320 C.ar  173  PHE173     -0.0000
     12  N        120.9670   88.5400  120.1930 N.3   177  TYR177     -0.1227
     13  CA       120.9060   89.2800  121.4480 C.3   177  TYR177      0.1736
     14  C        119.8540   88.7130  122.3680 C.2   177  TYR177      0.2596
     15  O        120.1240   88.4250  123.5330 O.2   177  TYR177     -0.2718
     16  CB       120.5890   90.7400  121.1830 C.3   177  TYR177      0.0548
     17  CG       120.3060   91.5460  122.4120 C.ar  177  TYR177     -0.0200
     18  CD1      121.3190   91.9200  123.2740 C.ar  177  TYR177     -0.0009
     19  CD2      119.0200   91.9600  122.6970 C.ar  177  TYR177     -0.0009
     20  CE1      121.0480   92.6650  124.3880 C.ar  177  TYR177      0.0417
     21  CE2      118.7530   92.7040  123.8000 C.ar  177  TYR177      0.0417
     22  CZ       119.7640   93.0540  124.6370 C.ar  177  TYR177      0.1957
     23  OH       119.4730   93.7990  125.7420 O.3   177  TYR177     -0.2866
     24  N        118.6460   88.5560  121.8640 N.am  178  SER178     -0.1952
     25  CA       117.5380   88.2330  122.7340 C.3   178  SER178      0.1924
     26  C        117.5080   86.7740  123.1270 C.2   178  SER178      0.2314
     27  O        116.6850   86.3890  123.9530 O.2   178  SER178     -0.2863
     28  CB       116.2290   88.6110  122.0640 C.3   178  SER178      0.2116
     29  OG       115.1830   88.4470  122.9890 O.3   178  SER178     -0.2180
     30  N        120.3780   85.2330  124.2680 N.3   180  ILE180     -0.1231
     31  CA       121.2920   85.0490  125.3820 C.3   180  ILE180      0.1692
     32  C        120.7560   85.6870  126.6510 C.2   180  ILE180      0.2592
     33  O        121.1700   85.2950  127.7420 O.2   180  ILE180     -0.2718
     34  CB       122.7030   85.5520  125.0260 C.3   180  ILE180      0.0266
     35  CG1      122.7870   87.0470  124.8410 C.3   180  ILE180      0.0019
     36  CG2      123.1480   84.9620  123.7400 C.3   180  ILE180      0.0020
     37  CD1      123.3960   87.7690  126.0020 C.3   180  ILE180      0.0001
     38  N        119.8380   86.6490  126.5520 N.am  181  LEU181     -0.1966
     39  CA       119.2280   87.1700  127.7640 C.3   181  LEU181      0.1728
     40  C        118.2900   86.1700  128.4060 C.2   181  LEU181      0.2616
     41  O        118.1360   86.1870  129.6270 O.2   181  LEU181     -0.2715
     42  CB       118.4700   88.4600  127.5030 C.3   181  LEU181      0.0311
     43  CG       119.2900   89.6740  127.1110 C.3   181  LEU181      0.0022
     44  CD1      118.3860   90.8540  126.9900 C.3   181  LEU181      0.0001
     45  CD2      120.3520   89.9390  128.1210 C.3   181  LEU181      0.0001
     46  N        117.6500   85.3080  127.6250 N.am  182  PHE182     -0.1974
     47  CA       116.9670   84.1770  128.2320 C.3   182  PHE182      0.1639
     48  C        117.9420   83.1750  128.8080 C.2   182  PHE182      0.2290
     49  O        117.6010   82.4540  129.7450 O.2   182  PHE182     -0.2864
     50  CB       116.0640   83.4920  127.2270 C.3   182  PHE182      0.0560
     51  CG       114.7790   84.1800  127.0290 C.ar  182  PHE182     -0.0200
     52  CD1      113.7430   83.9540  127.8940 C.ar  182  PHE182     -0.0042
     53  CD2      114.6000   85.0560  125.9960 C.ar  182  PHE182     -0.0042
     54  CE1      112.5490   84.5850  127.7270 C.ar  182  PHE182     -0.0003
     55  CE2      113.4070   85.6880  125.8260 C.ar  182  PHE182     -0.0003
     56  CZ       112.3810   85.4520  126.6940 C.ar  182  PHE182     -0.0000
     57  N        120.9250   83.9980  130.1990 N.3   184  VAL184     -0.1245
     58  CA       121.4520   84.5870  131.4240 C.3   184  VAL184      0.1561
     59  C        120.4100   84.5290  132.5360 C.2   184  VAL184      0.2260
     60  O        120.7450   84.2700  133.6960 O.2   184  VAL184     -0.2867
     61  CB       121.9410   86.0190  131.1410 C.3   184  VAL184      0.0252
     62  CG1      122.3330   86.7210  132.3910 C.3   184  VAL184      0.0019
     63  CG2      123.1400   85.9720  130.2590 C.3   184  VAL184      0.0019
     64  N        121.0840   82.6270  136.1380 N.3   188  PHE188     -0.1241
     65  CA       120.8640   83.2090  137.4560 C.3   188  PHE188      0.1605
     66  C        119.9650   82.3360  138.3010 C.2   188  PHE188      0.2264
     67  O        120.1100   82.3060  139.5230 O.2   188  PHE188     -0.2867
     68  CB       120.2640   84.6090  137.3870 C.3   188  PHE188      0.0534
     69  CG       121.2670   85.6830  137.2020 C.ar  188  PHE188     -0.0203
     70  CD1      122.1140   86.0050  138.2330 C.ar  188  PHE188     -0.0042
     71  CD2      121.3220   86.4200  136.0480 C.ar  188  PHE188     -0.0042
     72  CE1      123.0370   87.0030  138.0950 C.ar  188  PHE188     -0.0003
     73  CE2      122.2480   87.4230  135.9100 C.ar  188  PHE188     -0.0003
     74  CZ       123.1020   87.7150  136.9330 C.ar  188  PHE188     -0.0000
     75  N        117.7520   88.7140  140.6030 N.3   209  PHE209     -0.1241
     76  CA       118.2050   89.0280  139.2570 C.3   209  PHE209      0.1605
     77  C        117.5790   88.1270  138.2200 C.2   209  PHE209      0.2264
     78  O        117.4160   88.5410  137.0790 O.2   209  PHE209     -0.2867
     79  CB       119.7160   88.9420  139.1670 C.3   209  PHE209      0.0534
     80  CG       120.4020   90.1790  139.5940 C.ar  209  PHE209     -0.0203
     81  CD1      120.6740   91.1660  138.6760 C.ar  209  PHE209     -0.0042
     82  CD2      120.7350   90.3850  140.9120 C.ar  209  PHE209     -0.0042
     83  CE1      121.2960   92.3180  139.0590 C.ar  209  PHE209     -0.0003
     84  CE2      121.3540   91.5390  141.2990 C.ar  209  PHE209     -0.0003
     85  CZ       121.6350   92.5050  140.3720 C.ar  209  PHE209     -0.0000
     86  N        113.9220   89.9590  137.9520 N.3   212  ALA212     -0.1231
     87  CA       113.8790   91.2250  137.2450 C.3   212  ALA212      0.1694
     88  C        114.1680   91.0180  135.7770 C.2   212  ALA212      0.2591
     89  O        113.5410   91.6400  134.9220 O.2   212  ALA212     -0.2718
     90  CB       114.8810   92.1940  137.8500 C.3   212  ALA212      0.0304
     91  N        115.1010   90.1280  135.4690 N.am  213  MET213     -0.1979
     92  CA       115.4310   89.8380  134.0870 C.3   213  MET213      0.1605
     93  C        114.3430   89.0310  133.4220 C.2   213  MET213      0.2287
     94  O        114.1660   89.1370  132.2110 O.2   213  MET213     -0.2864
     95  CB       116.7540   89.0920  134.0330 C.3   213  MET213      0.0413
     96  CG       117.4120   89.0320  132.7110 C.3   213  MET213      0.0598
     97  SD       118.9260   88.1270  132.8890 S.3   213  MET213     -0.1393
     98  CE       119.7280   89.1990  134.0430 C.3   213  MET213      0.0692
     99  N        111.7490   91.6350  132.2340 N.3   216  THR216     -0.1203
    100  CA       112.1970   92.4450  131.1160 C.3   216  THR216      0.1994
    101  C        112.4120   91.6220  129.8650 C.2   216  THR216      0.2617
    102  O        112.3810   92.1740  128.7680 O.2   216  THR216     -0.2717
    103  CB       113.4760   93.1740  131.4600 C.3   216  THR216      0.1784
    104  OG1      114.5000   92.2160  131.7150 O.3   216  THR216     -0.2211
    105  CG2      113.2620   93.9960  132.6810 C.3   216  THR216      0.0376
    106  N        112.5820   90.3120  129.9950 N.am  217  ASN217     -0.1974
    107  CA       112.5890   89.4520  128.8250 C.3   217  ASN217      0.1688
    108  C        111.2160   89.2330  128.2430 C.2   217  ASN217      0.2292
    109  O        111.1070   88.5740  127.2150 O.2   217  ASN217     -0.2864
    110  CB       113.2000   88.1060  129.1600 C.3   217  ASN217      0.1181
    111  CG       114.6700   88.1800  129.3260 C.2   217  ASN217      0.2629
    112  OD1      115.3380   88.9120  128.6190 O.2   217  ASN217     -0.2716
    113  ND2      115.1960   87.4090  130.2490 N.am  217  ASN217     -0.0877
    114  N        109.4690   91.5040  126.9110 N.3   219  LEU219     -0.1231
    115  CA       109.4040   92.2550  125.6720 C.3   219  LEU219      0.1693
    116  C        110.2500   91.6510  124.5690 C.2   219  LEU219      0.2592
    117  O        110.5160   92.3220  123.5740 O.2   219  LEU219     -0.2718
    118  CB       109.7540   93.7250  125.9000 C.3   219  LEU219      0.0284
    119  CG       110.9900   94.3090  126.5510 C.3   219  LEU219      0.0019
    120  CD1      112.1630   94.3670  125.6360 C.3   219  LEU219      0.0001
    121  CD2      110.6000   95.6920  126.9110 C.3   219  LEU219      0.0001
    122  N        110.6740   90.4020  124.7180 N.am  220  TYR220     -0.1976
    123  CA       110.9960   89.6010  123.5510 C.3   220  TYR220      0.1639
    124  C        109.7800   89.4270  122.6630 C.2   220  TYR220      0.2290
    125  O        109.8960   89.4030  121.4380 O.2   220  TYR220     -0.2864
    126  CB       111.5280   88.2480  123.9900 C.3   220  TYR220      0.0560
    127  CG       111.5700   87.2260  122.8900 C.ar  220  TYR220     -0.0198
    128  CD1      112.5100   87.2900  121.8900 C.ar  220  TYR220     -0.0009
    129  CD2      110.6720   86.1840  122.8700 C.ar  220  TYR220     -0.0009
    130  CE1      112.5500   86.3570  120.9020 C.ar  220  TYR220      0.0417
    131  CE2      110.6960   85.2500  121.8880 C.ar  220  TYR220      0.0417
    132  CZ       111.6350   85.3370  120.9070 C.ar  220  TYR220      0.1957
    133  OH       111.6520   84.3870  119.9220 O.3   220  TYR220     -0.2866
    134  N        108.7630   92.1150  120.1270 N.3   223  ARG223     -0.1245
    135  CA       109.5210   91.9850  118.8950 C.3   223  ARG223      0.1563
    136  C        108.8420   90.9900  117.9740 C.2   223  ARG223      0.2260
    137  O        108.7410   89.8020  118.2850 O.2   223  ARG223     -0.2867
    138  CB       110.9310   91.5200  119.2280 C.3   223  ARG223      0.0307
    139  CG       111.8640   91.4230  118.0840 C.3   223  ARG223      0.0489
    140  CD       113.0900   90.6520  118.5030 C.3   223  ARG223      0.2205
    141  NE       113.8900   91.3360  119.5020 N.pl3 223  ARG223     -0.0865
    142  CZ       114.8730   92.1740  119.2090 C.cat 223  ARG223      0.5346
    143  NH1      115.1720   92.4230  117.9470 N.pl3 223  ARG223      0.1354
    144  NH2      115.5640   92.7520  120.1760 N.pl3 223  ARG223      0.1354
    145  N        111.5090   97.1920  121.4030 N.3   232  ALA232     -0.1245
    146  CA       112.4560   96.1730  121.8110 C.3   232  ALA232      0.1562
    147  C        113.6970   96.1810  120.9480 C.2   232  ALA232      0.2260
    148  O        114.7320   95.6680  121.3660 O.2   232  ALA232     -0.2867
    149  CB       111.7990   94.8050  121.7560 C.3   232  ALA232      0.0290
    150  N        115.8540   99.3270  122.1690 N.3   235  ILE235     -0.1245
    151  CA       116.4440   99.1430  123.4840 C.3   235  ILE235      0.1561
    152  C        117.6690   98.2480  123.3860 C.2   235  ILE235      0.2260
    153  O        118.5410   98.2920  124.2490 O.2   235  ILE235     -0.2867
    154  CB       115.3890   98.5980  124.4610 C.3   235  ILE235      0.0252
    155  CG1      115.8250   98.7630  125.8900 C.3   235  ILE235      0.0019
    156  CG2      115.1660   97.1390  124.2740 C.3   235  ILE235      0.0019
    157  CD1      114.7390   98.4510  126.8160 C.3   235  ILE235      0.0001
    158  N        121.7400   99.7670  124.0440 N.3   239  ILE239     -0.1231
    159  CA       122.6560   99.1060  124.9630 C.3   239  ILE239      0.1692
    160  C        123.9240   98.6860  124.2480 C.2   239  ILE239      0.2591
    161  O        125.0320   98.9430  124.7210 O.2   239  ILE239     -0.2718
    162  CB       121.9670   97.9090  125.6300 C.3   239  ILE239      0.0266
    163  CG1      120.8620   98.3860  126.5450 C.3   239  ILE239      0.0019
    164  CG2      122.9360   97.1090  126.4340 C.3   239  ILE239      0.0020
    165  CD1      120.0320   97.2900  127.0940 C.3   239  ILE239      0.0001
    166  N        123.7880   98.0600  123.0910 N.am  240  LEU240     -0.1980
    167  CA       124.9370   97.4760  122.4180 C.3   240  LEU240      0.1596
    168  C        125.7900   98.5090  121.7050 C.2   240  LEU240      0.2287
    169  O        127.0150   98.4770  121.8220 O.2   240  LEU240     -0.2864
    170  CB       124.4660   96.4130  121.4470 C.3   240  LEU240      0.0297
    171  CG       124.4680   94.9760  121.9390 C.3   240  LEU240      0.0022
    172  CD1      123.7080   94.7570  123.1930 C.3   240  LEU240      0.0001
    173  CD2      123.7850   94.2370  120.8530 C.3   240  LEU240      0.0001
    174  N        125.3120  102.7300  124.5560 N.3   243  LEU243     -0.1245
    175  CA       125.7190  102.7380  125.9520 C.3   243  LEU243      0.1561
    176  C        126.9810  101.9250  126.1790 C.2   243  LEU243      0.2260
    177  O        127.7190  102.1890  127.1270 O.2   243  LEU243     -0.2867
    178  CB       124.5850  102.2050  126.8090 C.3   243  LEU243      0.0270
    179  CG       124.6660  102.2890  128.3130 C.3   243  LEU243      0.0019
    180  CD1      124.6660  103.7290  128.7050 C.3   243  LEU243      0.0001
    181  CD2      123.4890  101.5770  128.9000 C.3   243  LEU243      0.0001
@<TRIPOS>BOND
     1   143   142    1
     2   136   137    2
     3   136   135    1
     4   139   140    1
     5   139   138    1
     6   140   141    1
     7   135   138    1
     8   135   134    1
     9   142   141    2
    10   142   144    1
    11     3     4    2
    12     3     2    1
    13   133   132    1
    14    12    13    1
    15     1     2    1
    16     2     5    1
    17   173   171    1
    18   130   132   ar
    19   130   128   ar
    20   132   131   ar
    21   147   148    2
    22   147   146    1
    23    16    13    1
    24    16    17    1
    25   145   146    1
    26   125   124    2
    27   170   171    1
    28   170   167    1
    29    13    14    1
    30     5     6    1
    31   168   169    2
    32   168   167    1
    33   149   146    1
    34    24    14   am
    35    24    25    1
    36   131   129   ar
    37   128   127   ar
    38   171   172    1
    39    28    25    1
    40    28    29    1
    41   150   151    1
    42    14    15    2
    43    17    19   ar
    44    17    18   ar
    45   167   166    1
    46   124   123    1
    47    19    21   ar
    48    25    26    1
    49     6     8   ar
    50     6     7   ar
    51   129   127   ar
    52   127   126    1
    53     8    10   ar
    54   166   160   am
    55    26    27    2
    56    18    20   ar
    57   152   151    1
    58   152   153    2
    59   151   154    1
    60   123   126    1
    61   123   122    1
    62   117   116    2
    63    36    34    1
    64    21    22   ar
    65     7     9   ar
    66   158   159    1
    67    10    11   ar
    68   160   161    2
    69   160   159    1
    70    30    31    1
    71   156   154    1
    72    20    22   ar
    73   154   155    1
    74   174   175    1
    75   116   122   am
    76   116   115    1
    77    22    23    1
    78    35    34    1
    79    35    37    1
    80   159   162    1
    81    34    31    1
    82     9    11   ar
    83    31    32    1
    84   162   164    1
    85   162   163    1
    86   120   119    1
    87   115   118    1
    88   115   114    1
    89    55    53   ar
    90    55    56   ar
    91   155   157    1
    92   118   119    1
    93   175   176    1
    94   175   178    1
    95    53    51   ar
    96   176   177    2
    97   163   165    1
    98   119   121    1
    99    38    32   am
   100    38    39    1
   101    32    33    2
   102    56    54   ar
   103   178   179    1
   104    44    43    1
   105    51    50    1
   106    51    52   ar
   107    43    42    1
   108    43    45    1
   109   109   108    2
   110    50    47    1
   111    42    39    1
   112    46    47    1
   113    46    40   am
   114    54    52   ar
   115    39    40    1
   116    47    48    1
   117   108   107    1
   118   179   180    1
   119   179   181    1
   120    40    41    2
   121   112   111    2
   122   102   101    2
   123    48    49    2
   124   107   110    1
   125   107   106    1
   126   110   111    1
   127   111   113   am
   128   101   106   am
   129   101   100    1
   130    57    58    1
   131    63    61    1
   132   100   103    1
   133   100    99    1
   134    61    58    1
   135    61    62    1
   136    58    59    1
   137   103   104    1
   138   103   105    1
   139    94    93    2
   140    59    60    2
   141    96    97    1
   142    96    95    1
   143    97    98    1
   144    93    92    1
   145    95    92    1
   146    92    91    1
   147    89    88    2
   148    91    88   am
   149    88    87    1
   150    73    71   ar
   151    73    74   ar
   152    71    69   ar
   153    64    65    1
   154    74    72   ar
   155    78    77    2
   156    69    68    1
   157    69    70   ar
   158    87    90    1
   159    87    86    1
   160    68    65    1
   161    65    66    1
   162    72    70   ar
   163    77    76    1
   164    66    67    2
   165    81    83   ar
   166    81    80   ar
   167    83    85   ar
   168    79    76    1
   169    79    80    1
   170    76    75    1
   171    80    82   ar
   172    85    84   ar
   173    82    84   ar
