@<TRIPOS>MOLECULE
tmp/5irxC04.pdb
 83 80 0 0 0
SMALL
GASTEIGER

@<TRIPOS>ATOM
      1  N        130.4300  103.7700  127.5950 N.3   247  MET247     -0.1245
      2  CA       130.7760  103.5160  128.9830 C.3   247  MET247      0.1570
      3  C        132.2590  103.3090  129.2030 C.2   247  MET247      0.2261
      4  O        132.6480  103.0100  130.3250 O.2   247  MET247     -0.2867
      5  CB       130.0430  102.2980  129.5320 C.3   247  MET247      0.0387
      6  CG       130.5350  100.9870  128.9900 C.3   247  MET247      0.0595
      7  SD       129.8240   99.6180  129.8970 S.3   247  MET247     -0.1393
      8  CE       130.6270   99.8600  131.4760 C.3   247  MET247      0.0692
      9  N        133.7280  106.1410  131.8810 N.3   251  LEU251     -0.1245
     10  CA       134.3550  105.4770  133.0080 C.3   251  LEU251      0.1561
     11  C        135.7600  105.9810  133.2460 C.2   251  LEU251      0.2260
     12  O        136.3270  105.7240  134.3040 O.2   251  LEU251     -0.2867
     13  CB       134.3890  103.9880  132.7570 C.3   251  LEU251      0.0270
     14  CG       134.4860  103.0120  133.9000 C.3   251  LEU251      0.0019
     15  CD1      133.1980  103.1110  134.6660 C.3   251  LEU251      0.0001
     16  CD2      134.6610  101.6400  133.3350 C.3   251  LEU251      0.0001
     17  N        134.8330  109.0110  135.4340 N.3   254  LEU254     -0.1231
     18  CA       134.4150  108.5760  136.7550 C.3   254  LEU254      0.1693
     19  C        135.6010  108.1120  137.5700 C.2   254  LEU254      0.2592
     20  O        135.8280  108.5980  138.6760 O.2   254  LEU254     -0.2718
     21  CB       133.3930  107.4600  136.6340 C.3   254  LEU254      0.0284
     22  CG       132.9080  106.8930  137.9510 C.3   254  LEU254      0.0019
     23  CD1      132.1970  107.9530  138.7110 C.3   254  LEU254      0.0001
     24  CD2      131.9990  105.7450  137.6870 C.3   254  LEU254      0.0001
     25  N        136.3900  107.2020  137.0260 N.am  255  PHE255     -0.1976
     26  CA       137.5570  106.7250  137.7410 C.3   255  PHE255      0.1639
     27  C        138.6450  107.7790  137.8240 C.2   255  PHE255      0.2290
     28  O        139.4730  107.7270  138.7310 O.2   255  PHE255     -0.2864
     29  CB       138.0920  105.4720  137.0660 C.3   255  PHE255      0.0560
     30  CG       139.1530  104.7860  137.8420 C.ar  255  PHE255     -0.0200
     31  CD1      138.8240  104.0180  138.9390 C.ar  255  PHE255     -0.0042
     32  CD2      140.4770  104.9080  137.4870 C.ar  255  PHE255     -0.0042
     33  CE1      139.7990  103.3830  139.6630 C.ar  255  PHE255     -0.0003
     34  CE2      141.4520  104.2750  138.2110 C.ar  255  PHE255     -0.0003
     35  CZ       141.1130  103.5120  139.2990 C.ar  255  PHE255     -0.0000
     36  N        135.7760  108.2170  151.7250 N.3   271  ASN271     -0.1225
     37  CA       136.9510  107.5290  152.2290 C.3   271  ASN271      0.1785
     38  C        137.3980  106.4490  151.2600 C.2   271  ASN271      0.2598
     39  O        138.5950  106.2840  151.0170 O.2   271  ASN271     -0.2718
     40  CB       136.6470  106.9220  153.5970 C.3   271  ASN271      0.1169
     41  CG       137.8920  106.4900  154.3380 C.2   271  ASN271      0.2627
     42  OD1      139.0140  106.7040  153.8820 O.2   271  ASN271     -0.2716
     43  ND2      137.6990  105.8710  155.4940 N.am  271  ASN271     -0.0877
     44  N        136.4550  105.7190  150.6950 N.am  272  SER272     -0.1938
     45  CA       136.7810  104.6180  149.8130 C.3   272  SER272      0.2055
     46  C        136.5880  105.0130  148.3630 C.2   272  SER272      0.2643
     47  O        135.9330  106.0020  148.0390 O.2   272  SER272     -0.2714
     48  CB       135.9260  103.3960  150.1210 C.3   272  SER272      0.2130
     49  OG       136.2420  102.3540  149.2190 O.3   272  SER272     -0.2179
     50  N        137.1720  104.2090  147.4860 N.am  273  LEU273     -0.1963
     51  CA       137.0100  104.4390  146.0640 C.3   273  LEU273      0.1728
     52  C        135.6230  104.0410  145.6030 C.2   273  LEU273      0.2616
     53  O        135.0980  104.6260  144.6560 O.2   273  LEU273     -0.2715
     54  CB       138.0730  103.6620  145.3040 C.3   273  LEU273      0.0311
     55  CG       138.1940  103.8780  143.8090 C.3   273  LEU273      0.0022
     56  CD1      138.5620  105.3000  143.5630 C.3   273  LEU273      0.0001
     57  CD2      139.2570  102.9710  143.2740 C.3   273  LEU273      0.0001
     58  N        135.0090  103.0680  146.2680 N.am  274  TYR274     -0.1974
     59  CA       133.6900  102.6090  145.8600 C.3   274  TYR274      0.1639
     60  C        132.6160  103.6160  146.2210 C.2   274  TYR274      0.2290
     61  O        131.7400  103.9090  145.4090 O.2   274  TYR274     -0.2864
     62  CB       133.3800  101.2700  146.5050 C.3   274  TYR274      0.0560
     63  CG       132.0700  100.6720  146.0770 C.ar  274  TYR274     -0.0198
     64  CD1      131.9510  100.0270  144.8610 C.ar  274  TYR274     -0.0009
     65  CD2      130.9550  100.7440  146.8910 C.ar  274  TYR274     -0.0009
     66  CE1      130.7610   99.4740  144.4710 C.ar  274  TYR274      0.0417
     67  CE2      129.7670  100.1910  146.5120 C.ar  274  TYR274      0.0417
     68  CZ       129.6750   99.5600  145.3060 C.ar  274  TYR274      0.1957
     69  OH       128.4800   99.0100  144.9310 O.3   274  TYR274     -0.2866
     70  N        132.9100  106.6420  143.8560 N.3   277  CYS277     -0.1221
     71  CA       132.3680  106.4120  142.5280 C.3   277  CYS277      0.1808
     72  C        130.8520  106.3840  142.5330 C.2   277  CYS277      0.2601
     73  O        130.2340  106.5760  141.4860 O.2   277  CYS277     -0.2717
     74  CB       132.9000  105.1120  141.9480 C.3   277  CYS277      0.0970
     75  SG       134.6270  105.1210  141.4870 S.3   277  CYS277     -0.0800
     76  N        130.2280  106.1430  143.6830 N.am  278  LEU278     -0.1979
     77  CA       128.7760  106.2120  143.7190 C.3   278  LEU278      0.1596
     78  C        128.2980  107.6370  143.8720 C.2   278  LEU278      0.2287
     79  O        127.2810  108.0140  143.2900 O.2   278  LEU278     -0.2864
     80  CB       128.2110  105.3560  144.8370 C.3   278  LEU278      0.0297
     81  CG       128.4770  103.8700  144.6730 C.3   278  LEU278      0.0022
     82  CD1      127.7680  103.1280  145.7680 C.3   278  LEU278      0.0001
     83  CD2      128.0720  103.3660  143.3150 C.3   278  LEU278      0.0001
@<TRIPOS>BOND
     1     1     2    1
     2     2     3    1
     3     2     5    1
     4     6     5    1
     5     6     7    1
     6     3     4    2
     7     7     8    1
     8     9    10    1
     9    13    10    1
    10    13    14    1
    11    10    11    1
    12    11    12    2
    13    16    14    1
    14    14    15    1
    15    17    18    1
    16    21    18    1
    17    21    22    1
    18    18    19    1
    19    25    19   am
    20    25    26    1
    21    29    26    1
    22    29    30    1
    23    32    30   ar
    24    32    34   ar
    25    19    20    2
    26    24    22    1
    27    26    27    1
    28    27    28    2
    29    30    31   ar
    30    22    23    1
    31    34    35   ar
    32    31    33   ar
    33    35    33   ar
    34    73    72    2
    35    75    74    1
    36    74    71    1
    37    71    72    1
    38    71    70    1
    39    72    76   am
    40    57    55    1
    41    79    78    2
    42    83    81    1
    43    56    55    1
    44    76    77    1
    45    77    78    1
    46    77    80    1
    47    55    54    1
    48    66    64   ar
    49    66    68   ar
    50    53    52    2
    51    81    80    1
    52    81    82    1
    53    64    63   ar
    54    69    68    1
    55    54    51    1
    56    68    67   ar
    57    61    60    2
    58    52    51    1
    59    52    58   am
    60    59    60    1
    61    59    58    1
    62    59    62    1
    63    51    50    1
    64    63    62    1
    65    63    65   ar
    66    67    65   ar
    67    50    46   am
    68    47    46    2
    69    46    45    1
    70    49    48    1
    71    45    48    1
    72    45    44    1
    73    44    38   am
    74    39    38    2
    75    38    37    1
    76    36    37    1
    77    37    40    1
    78    40    41    1
    79    42    41    2
    80    41    43   am
