@<TRIPOS>MOLECULE
tmp/5irzD05.pdb
 79 75 0 0 0
SMALL
GASTEIGER

@<TRIPOS>ATOM
      1  N        119.8250   84.0080   92.7000 N.3   112  ILE112     -0.1231
      2  CA       120.7670   84.0670   91.5910 C.3   112  ILE112      0.1692
      3  C        120.3490   83.1050   90.4930 C.2   112  ILE112      0.2591
      4  O        120.3920   83.4460   89.3060 O.2   112  ILE112     -0.2718
      5  CB       122.1910   83.7880   92.0970 C.3   112  ILE112      0.0266
      6  CG1      122.6580   84.9350   92.9830 C.3   112  ILE112      0.0019
      7  CG2      123.1620   83.6000   90.9590 C.3   112  ILE112      0.0020
      8  CD1      123.9430   84.6440   93.7030 C.3   112  ILE112      0.0001
      9  N        119.9070   81.9050   90.8680 N.am  113  ILE113     -0.1980
     10  CA       119.4260   80.9410   89.8870 C.3   113  ILE113      0.1595
     11  C        118.1430   81.4340   89.2360 C.2   113  ILE113      0.2287
     12  O        117.9790   81.3480   88.0160 O.2   113  ILE113     -0.2864
     13  CB       119.2380   79.5660   90.5510 C.3   113  ILE113      0.0276
     14  CG1      120.5780   79.0330   91.0390 C.3   113  ILE113      0.0022
     15  CG2      118.6160   78.5760   89.5990 C.3   113  ILE113      0.0022
     16  CD1      121.5890   78.8520   89.9460 C.3   113  ILE113      0.0001
     17  N        119.0090   84.4100   86.7440 N.3   116  ALA116     -0.1231
     18  CA       119.6550   83.9610   85.5210 C.3   116  ALA116      0.1694
     19  C        118.7870   83.0200   84.7040 C.2   116  ALA116      0.2591
     20  O        119.0250   82.8790   83.5030 O.2   116  ALA116     -0.2718
     21  CB       120.9800   83.2820   85.8460 C.3   116  ALA116      0.0304
     22  N        117.7950   82.3790   85.3090 N.am  117  ALA117     -0.1980
     23  CA       116.8420   81.6210   84.5190 C.3   117  ALA117      0.1597
     24  C        115.7940   82.5130   83.8850 C.2   117  ALA117      0.2287
     25  O        115.1420   82.0960   82.9250 O.2   117  ALA117     -0.2864
     26  CB       116.1570   80.5610   85.3760 C.3   117  ALA117      0.0319
     27  N        117.8020   85.0190   80.8340 N.3   120  TYR120     -0.1227
     28  CA       117.9900   84.3520   79.5520 C.3   120  TYR120      0.1736
     29  C        116.7390   83.6200   79.1170 C.2   120  TYR120      0.2595
     30  O        116.8180   82.5040   78.6020 O.2   120  TYR120     -0.2718
     31  CB       119.1660   83.3890   79.6140 C.3   120  TYR120      0.0548
     32  CG       120.4760   84.0730   79.8450 C.ar  120  TYR120     -0.0200
     33  CD1      121.0880   84.7850   78.8310 C.ar  120  TYR120     -0.0009
     34  CD2      121.1170   83.9850   81.0660 C.ar  120  TYR120     -0.0009
     35  CE1      122.2880   85.4130   79.0320 C.ar  120  TYR120      0.0417
     36  CE2      122.3240   84.6010   81.2770 C.ar  120  TYR120      0.0417
     37  CZ       122.9030   85.3160   80.2550 C.ar  120  TYR120      0.1957
     38  OH       124.1070   85.9420   80.4560 O.3   120  TYR120     -0.2866
     39  N        115.5720   84.2100   79.3470 N.am  121  ARG121     -0.1980
     40  CA       114.3430   83.5970   78.8920 C.3   121  ARG121      0.1597
     41  C        114.2840   83.6390   77.3660 C.2   121  ARG121      0.2287
     42  O        114.8760   84.5220   76.7420 O.2   121  ARG121     -0.2864
     43  CB       113.1350   84.3070   79.4980 C.3   121  ARG121      0.0334
     44  CG       112.9000   85.7180   79.0210 C.3   121  ARG121      0.0492
     45  CD       111.6800   86.2980   79.6940 C.3   121  ARG121      0.2205
     46  NE       111.3990   87.6540   79.2500 N.pl3 121  ARG121     -0.0865
     47  CZ       110.6280   87.9420   78.2110 C.cat 121  ARG121      0.5346
     48  NH1      110.0610   86.9680   77.5190 N.pl3 121  ARG121      0.1354
     49  NH2      110.4180   89.2010   77.8670 N.pl3 121  ARG121      0.1354
     50  N        123.5080   75.6930   76.2660 N.3   136  GLY136     -0.1225
     51  CA       122.7320   76.6860   76.9910 C.3   136  GLY136      0.1811
     52  C        121.4040   76.1340   77.4660 C.2   136  GLY136      0.2280
     53  O        120.9830   76.3890   78.5970 O.2   136  GLY136     -0.2866
     54  N        120.5250   73.6150   80.8820 N.3   139  PHE139     -0.1227
     55  CA       121.3170   74.3190   81.8780 C.3   139  PHE139      0.1736
     56  C        120.6020   75.5320   82.4450 C.2   139  PHE139      0.2595
     57  O        120.9130   75.9400   83.5680 O.2   139  PHE139     -0.2718
     58  CB       122.6560   74.7400   81.2620 C.3   139  PHE139      0.0547
     59  CG       123.6220   75.3360   82.2350 C.ar  139  PHE139     -0.0202
     60  CD1      124.2500   74.5420   83.1770 C.ar  139  PHE139     -0.0042
     61  CD2      123.9390   76.6800   82.1760 C.ar  139  PHE139     -0.0042
     62  CE1      125.1520   75.0860   84.0660 C.ar  139  PHE139     -0.0003
     63  CE2      124.8450   77.2330   83.0610 C.ar  139  PHE139     -0.0003
     64  CZ       125.4510   76.4350   84.0060 C.ar  139  PHE139     -0.0000
     65  N        119.6420   76.1120   81.7260 N.am  140  ARG140     -0.1980
     66  CA       118.7040   77.0500   82.3150 C.3   140  ARG140      0.1597
     67  C        117.3280   76.4440   82.5220 C.2   140  ARG140      0.2287
     68  O        116.5450   76.9860   83.3060 O.2   140  ARG140     -0.2864
     69  CB       118.5550   78.3030   81.4490 C.3   140  ARG140      0.0334
     70  CG       117.8920   78.0540   80.1190 C.3   140  ARG140      0.0492
     71  CD       117.6060   79.3500   79.4010 C.3   140  ARG140      0.2205
     72  NE       117.0370   79.1150   78.0820 N.pl3 140  ARG140     -0.0865
     73  CZ       115.7430   78.9300   77.8520 C.cat 140  ARG140      0.5346
     74  NH1      115.3130   78.7230   76.6180 N.pl3 140  ARG140      0.1354
     75  NH2      114.8820   78.9430   78.8580 N.pl3 140  ARG140      0.1354
     76  N        117.7040   75.4540   85.5960 N.3   143  GLY143     -0.1225
     77  CA       117.5680   76.6500   86.4040 C.3   143  GLY143      0.1811
     78  C        116.1250   77.0470   86.6290 C.2   143  GLY143      0.2280
     79  O        115.7940   77.6220   87.6680 O.2   143  GLY143     -0.2866
@<TRIPOS>BOND
     1    50    51    1
     2    74    73    1
     3    42    41    2
     4    51    52    1
     5    41    40    1
     6    52    53    2
     7    48    47    1
     8    73    72    2
     9    73    75    1
    10    49    47    1
    11    72    71    1
    12    47    46    2
    13    30    29    2
    14    33    35   ar
    15    33    32   ar
    16    40    39    1
    17    40    43    1
    18    44    43    1
    19    44    45    1
    20    35    37   ar
    21    29    39   am
    22    29    28    1
    23    46    45    1
    24    71    70    1
    25    28    31    1
    26    28    27    1
    27    31    32    1
    28    32    34   ar
    29    70    69    1
    30    37    38    1
    31    37    36   ar
    32    54    55    1
    33    34    36   ar
    34    58    55    1
    35    58    59    1
    36    69    66    1
    37    65    66    1
    38    65    56   am
    39    55    56    1
    40    61    59   ar
    41    61    63   ar
    42    59    60   ar
    43    66    67    1
    44    56    57    2
    45    67    68    2
    46    25    24    2
    47    63    64   ar
    48    60    62   ar
    49    20    19    2
    50    24    23    1
    51    64    62   ar
    52    23    22    1
    53    23    26    1
    54    19    22   am
    55    19    18    1
    56    18    21    1
    57    18    17    1
    58    76    77    1
    59    77    78    1
    60    78    79    2
    61    12    11    2
    62    11    10    1
    63     4     3    2
    64    15    13    1
    65    10    13    1
    66    10     9    1
    67    16    14    1
    68     3     9   am
    69     3     2    1
    70    13    14    1
    71     7     5    1
    72     2     5    1
    73     2     1    1
    74     5     6    1
    75     6     8    1
