@<TRIPOS>MOLECULE
tmp/5irzD03.pdb
 202 191 0 0 0
SMALL
GASTEIGER

@<TRIPOS>ATOM
      1  N         99.9400   90.9950  119.1790 N.3    70  SER70      -0.1217
      2  CA       100.3130   92.4060  119.0670 C.3    70  SER70       0.1889
      3  C         99.3140   93.3560  119.7200 C.2    70  SER70       0.2288
      4  O         99.3820   94.5690  119.4930 O.2    70  SER70      -0.2866
      5  CB       100.5500   92.8230  117.6070 C.3    70  SER70       0.2089
      6  OG       100.8500   94.1180  117.4490 O.3    70  SER70      -0.2183
      7  N        107.0910   93.6420  123.3530 N.3    76  HIS76      -0.1241
      8  CA       108.4550   93.8520  122.9090 C.3    76  HIS76       0.1621
      9  C        109.4190   94.0160  124.0670 C.2    76  HIS76       0.2264
     10  O        110.6320   93.9060  123.8670 O.2    76  HIS76      -0.2867
     11  CB       108.5160   95.0830  122.0050 C.3    76  HIS76       0.0745
     12  CG       107.5680   95.0190  120.8500 C.ar   76  HIS76       0.0817
     13  ND1      107.7450   94.1620  119.7860 N.ar   76  HIS76      -0.2268
     14  CD2      106.4320   95.7080  120.5920 C.ar   76  HIS76       0.1154
     15  CE1      106.7570   94.3210  118.9250 C.ar   76  HIS76       0.1986
     16  NE2      105.9470   95.2550  119.3890 N.ar   76  HIS76      -0.2212
     17  N         98.9290   92.8160  110.5730 N.3   174  VAL174     -0.1231
     18  CA        99.5420   93.7010  111.5530 C.3   174  VAL174      0.1692
     19  C        100.8390   93.1270  112.1100 C.2   174  VAL174      0.2592
     20  O        101.8420   93.8390  112.2180 O.2   174  VAL174     -0.2718
     21  CB        98.5530   94.0360  112.6960 C.3   174  VAL174      0.0266
     22  CG1       99.2230   94.8320  113.7950 C.3   174  VAL174      0.0020
     23  CG2       97.3820   94.8400  112.1620 C.3   174  VAL174      0.0020
     24  N        100.8590   91.8420  112.4510 N.am  175  ASP175     -0.1960
     25  CA       102.0160   91.2730  113.1270 C.3   175  ASP175      0.1840
     26  C        102.7730   90.2520  112.2880 C.2   175  ASP175      0.2623
     27  O        103.7250   89.6460  112.7890 O.2   175  ASP175     -0.2715
     28  CB       101.5840   90.6370  114.4510 C.3   175  ASP175      0.1450
     29  CG       102.7700   90.0570  115.2020 C.2   175  ASP175      0.3671
     30  OD1      103.8030   90.7470  115.3210 O.co2 175  ASP175     -0.2456
     31  OD2      102.6720   88.8960  115.6570 O.co2 175  ASP175     -0.2456
     32  N        102.3890   90.0360  111.0370 N.am  176  SER176     -0.1936
     33  CA       103.0070   88.9890  110.2320 C.3   176  SER176      0.2055
     34  C        103.2960   89.4860  108.8230 C.2   176  SER176      0.2643
     35  O        102.9150   88.8570  107.8360 O.2   176  SER176     -0.2714
     36  CB       102.1270   87.7470  110.1960 C.3   176  SER176      0.2130
     37  OG       100.9240   88.0180  109.5080 O.3   176  SER176     -0.2179
     38  N        103.9440   90.6520  108.7160 N.am  177  TYR177     -0.1959
     39  CA       104.2590   91.2080  107.4030 C.3   177  TYR177      0.1771
     40  C        105.2510   90.3520  106.6370 C.2   177  TYR177      0.2620
     41  O        105.1930   90.3000  105.4070 O.2   177  TYR177     -0.2715
     42  CB       104.8410   92.6100  107.5200 C.3   177  TYR177      0.0574
     43  CG       103.8890   93.6560  108.0030 C.ar  177  TYR177     -0.0198
     44  CD1      102.8990   94.1500  107.1720 C.ar  177  TYR177     -0.0009
     45  CD2      104.0150   94.1950  109.2670 C.ar  177  TYR177     -0.0009
     46  CE1      102.0330   95.1230  107.6060 C.ar  177  TYR177      0.0417
     47  CE2      103.1650   95.1690  109.7070 C.ar  177  TYR177      0.0417
     48  CZ       102.1740   95.6290  108.8770 C.ar  177  TYR177      0.1957
     49  OH       101.3180   96.6050  109.3240 O.3   177  TYR177     -0.2866
     50  N        106.1720   89.6950  107.3350 N.am  178  SER178     -0.1950
     51  CA       107.2290   88.9660  106.6550 C.3   178  SER178      0.1924
     52  C        106.7320   87.7060  105.9780 C.2   178  SER178      0.2314
     53  O        107.1450   87.4230  104.8520 O.2   178  SER178     -0.2863
     54  CB       108.3330   88.6000  107.6350 C.3   178  SER178      0.2116
     55  OG       109.3000   87.7950  106.9940 O.3   178  SER178     -0.2180
     56  N        104.8270   88.2710  102.6690 N.3   181  LEU181     -0.1245
     57  CA       105.6420   88.6480  101.5210 C.3   181  LEU181      0.1561
     58  C        106.4240   87.4730  100.9530 C.2   181  LEU181      0.2260
     59  O        106.7100   87.4530   99.7540 O.2   181  LEU181     -0.2867
     60  CB       106.5880   89.7770  101.9010 C.3   181  LEU181      0.0270
     61  CG       105.9110   91.0960  102.2370 C.3   181  LEU181      0.0019
     62  CD1      106.9380   92.1080  102.6700 C.3   181  LEU181      0.0001
     63  CD2      105.1470   91.5930  101.0420 C.3   181  LEU181      0.0001
     64  N        110.8420   90.8040   91.3440 N.3   212  ALA212     -0.1231
     65  CA       110.9950   92.0650   92.0460 C.3   212  ALA212      0.1694
     66  C        110.6980   91.9060   93.5230 C.2   212  ALA212      0.2591
     67  O        111.3510   92.5370   94.3550 O.2   212  ALA212     -0.2718
     68  CB       110.0740   93.1080   91.4290 C.3   212  ALA212      0.0304
     69  N        109.7180   91.0700   93.8620 N.am  213  MET213     -0.1979
     70  CA       109.3990   90.8200   95.2600 C.3   213  MET213      0.1605
     71  C        110.5070   90.0370   95.9340 C.2   213  MET213      0.2287
     72  O        110.8220   90.2820   97.1010 O.2   213  MET213     -0.2864
     73  CB       108.0850   90.0540   95.3590 C.3   213  MET213      0.0413
     74  CG       107.5080   89.9240   96.7360 C.3   213  MET213      0.0598
     75  SD       106.8420   91.4810   97.3160 S.3   213  MET213     -0.1393
     76  CE       105.4110   91.6010   96.2520 C.3   213  MET213      0.0692
     77  N        113.4760   92.1060   97.1900 N.3   216  THR216     -0.1203
     78  CA       113.0830   92.9120   98.3320 C.3   216  THR216      0.1994
     79  C        112.8260   92.0650   99.5640 C.2   216  THR216      0.2617
     80  O        112.9310   92.5720  100.6810 O.2   216  THR216     -0.2717
     81  CB       111.8450   93.7240   97.9900 C.3   216  THR216      0.1784
     82  OG1      110.7760   92.8320   97.6690 O.3   216  THR216     -0.2211
     83  CG2      112.1230   94.5920   96.7960 C.3   216  THR216      0.0376
     84  N        112.5220   90.7820   99.3900 N.am  217  ASN217     -0.1974
     85  CA       112.3960   89.8680  100.5130 C.3   217  ASN217      0.1688
     86  C        113.7330   89.4550  101.0950 C.2   217  ASN217      0.2292
     87  O        113.7570   88.7970  102.1360 O.2   217  ASN217     -0.2864
     88  CB       111.6360   88.6220  100.0890 C.3   217  ASN217      0.1181
     89  CG       110.1970   88.9050   99.8050 C.2   217  ASN217      0.2629
     90  OD1      109.5660   89.6960  100.4960 O.2   217  ASN217     -0.2716
     91  ND2      109.6610   88.2620   98.7790 N.am  217  ASN217     -0.0877
     92  N        115.6980   91.4560  102.4270 N.3   219  LEU219     -0.1231
     93  CA       115.8320   92.2310  103.6530 C.3   219  LEU219      0.1693
     94  C        115.3110   91.4930  104.8730 C.2   219  LEU219      0.2592
     95  O        115.5020   91.9790  105.9910 O.2   219  LEU219     -0.2718
     96  CB       115.0930   93.5590  103.5420 C.3   219  LEU219      0.0284
     97  CG       115.6620   94.5490  102.5410 C.3   219  LEU219      0.0019
     98  CD1      114.8040   95.7890  102.5060 C.3   219  LEU219      0.0001
     99  CD2      117.0840   94.8910  102.9000 C.3   219  LEU219      0.0001
    100  N        114.6210   90.3660  104.6870 N.am  220  TYR220     -0.1976
    101  CA       114.2500   89.5340  105.8240 C.3   220  TYR220      0.1639
    102  C        115.4680   89.0220  106.5600 C.2   220  TYR220      0.2290
    103  O        115.4620   88.9450  107.7900 O.2   220  TYR220     -0.2864
    104  CB       113.3940   88.3570  105.3730 C.3   220  TYR220      0.0560
    105  CG       113.2080   87.3220  106.4480 C.ar  220  TYR220     -0.0198
    106  CD1      112.4460   87.5890  107.5680 C.ar  220  TYR220     -0.0009
    107  CD2      113.7920   86.0740  106.3360 C.ar  220  TYR220     -0.0009
    108  CE1      112.2790   86.6430  108.5480 C.ar  220  TYR220      0.0417
    109  CE2      113.6300   85.1270  107.3070 C.ar  220  TYR220      0.0417
    110  CZ       112.8750   85.4140  108.4080 C.ar  220  TYR220      0.1957
    111  OH       112.7200   84.4540  109.3750 O.3   220  TYR220     -0.2866
    112  N        117.9140   90.6290  109.7910 N.3   223  ARG223     -0.1245
    113  CA       117.9350   90.1920  111.1740 C.3   223  ARG223      0.1563
    114  C        118.9920   89.1100  111.3300 C.2   223  ARG223      0.2260
    115  O        119.3440   88.4120  110.3780 O.2   223  ARG223     -0.2867
    116  CB       116.5620   89.6860  111.5950 C.3   223  ARG223      0.0307
    117  CG       116.1330   88.4180  110.9160 C.3   223  ARG223      0.0489
    118  CD       114.6720   88.1720  111.1480 C.3   223  ARG223      0.2205
    119  NE       113.8810   89.2030  110.4930 N.pl3 223  ARG223     -0.0865
    120  CZ       112.5700   89.3430  110.6330 C.cat 223  ARG223      0.5346
    121  NH1      111.9370   90.3140  109.9980 N.pl3 223  ARG223      0.1354
    122  NH2      111.8910   88.5100  111.4030 N.pl3 223  ARG223      0.1354
    123  N        116.5340   97.6400  109.2820 N.3   232  ALA232     -0.1245
    124  CA       115.3890   97.1810  108.5120 C.3   232  ALA232      0.1562
    125  C        114.0920   97.2340  109.2970 C.2   232  ALA232      0.2260
    126  O        113.0200   97.1910  108.6910 O.2   232  ALA232     -0.2867
    127  CB       115.6160   95.7630  108.0130 C.3   232  ALA232      0.0290
    128  N        112.9030  100.7160  108.4840 N.3   235  ILE235     -0.1231
    129  CA       112.2810  100.8190  107.1660 C.3   235  ILE235      0.1692
    130  C        110.8130  100.4210  107.2460 C.2   235  ILE235      0.2592
    131  O        109.9560  101.0150  106.5820 O.2   235  ILE235     -0.2718
    132  CB       113.0450   99.9590  106.1460 C.3   235  ILE235      0.0266
    133  CG1      114.4900  100.4050  106.0510 C.3   235  ILE235      0.0019
    134  CG2      112.4480  100.0750  104.7660 C.3   235  ILE235      0.0020
    135  CD1      115.3200   99.4840  105.2210 C.3   235  ILE235      0.0001
    136  N        110.5000   99.4290  108.0810 N.am  236  GLU236     -0.1966
    137  CA       109.1110   99.0670  108.3420 C.3   236  GLU236      0.1733
    138  C        108.3480  100.2080  108.9990 C.2   236  GLU236      0.2616
    139  O        107.1770  100.4380  108.6840 O.2   236  GLU236     -0.2715
    140  CB       109.0640   97.8160  109.2160 C.3   236  GLU236      0.0429
    141  CG       107.6850   97.3860  109.6730 C.3   236  GLU236      0.1163
    142  CD       107.7290   96.1570  110.5590 C.2   236  GLU236      0.3649
    143  OE1      108.8270   95.5940  110.7350 O.co2 236  GLU236     -0.2457
    144  OE2      106.6770   95.7730  111.1090 O.co2 236  GLU236     -0.2457
    145  N        108.9980  100.9590  109.8810 N.am  237  LYS237     -0.1977
    146  CA       108.2830  102.0320  110.5540 C.3   237  LYS237      0.1596
    147  C        108.0580  103.2280  109.6480 C.2   237  LYS237      0.2287
    148  O        107.0760  103.9500  109.8290 O.2   237  LYS237     -0.2864
    149  CB       109.0330  102.4600  111.8060 C.3   237  LYS237      0.0298
    150  CG       109.2780  101.3010  112.7280 C.3   237  LYS237      0.0038
    151  CD       107.9780  100.6590  113.1330 C.3   237  LYS237      0.0206
    152  CE       108.2190   99.5080  114.0610 C.3   237  LYS237      0.1093
    153  NZ       106.9440   98.8230  114.3840 N.3   237  LYS237     -0.1314
    154  N        107.4380  103.0430  106.4140 N.3   239  ILE239     -0.1231
    155  CA       106.3370  102.7080  105.5240 C.3   239  ILE239      0.1692
    156  C        105.0130  102.8530  106.2540 C.2   239  ILE239      0.2591
    157  O        104.0740  103.4810  105.7570 O.2   239  ILE239     -0.2718
    158  CB       106.5170  101.2920  104.9610 C.3   239  ILE239      0.0266
    159  CG1      107.7860  101.2170  104.1300 C.3   239  ILE239      0.0019
    160  CG2      105.3450  100.9090  104.1030 C.3   239  ILE239      0.0020
    161  CD1      108.1550   99.8240  103.7270 C.3   239  ILE239      0.0001
    162  N        104.9330  102.3160  107.4620 N.am  240  LEU240     -0.1980
    163  CA       103.6500  102.2240  108.1360 C.3   240  LEU240      0.1596
    164  C        103.2490  103.5100  108.8370 C.2   240  LEU240      0.2287
    165  O        102.0720  103.6730  109.1650 O.2   240  LEU240     -0.2864
    166  CB       103.6880  101.0770  109.1360 C.3   240  LEU240      0.0297
    167  CG       103.9470   99.7400  108.4540 C.3   240  LEU240      0.0022
    168  CD1      104.1060   98.6590  109.4910 C.3   240  LEU240      0.0001
    169  CD2      102.8380   99.4060  107.4840 C.3   240  LEU240      0.0001
    170  N        112.0490   95.6450  118.9270 N.3   339  ILE339     -0.1245
    171  CA       111.3250   94.8850  117.9180 C.3   339  ILE339      0.1561
    172  C        112.2850   93.9920  117.1440 C.2   339  ILE339      0.2260
    173  O        111.9110   92.8940  116.7190 O.2   339  ILE339     -0.2867
    174  CB       110.5200   95.8480  117.0240 C.3   339  ILE339      0.0252
    175  CG1      109.4210   96.4990  117.8530 C.3   339  ILE339      0.0019
    176  CG2      109.8650   95.1570  115.8520 C.3   339  ILE339      0.0019
    177  CD1      108.6780   97.5820  117.1480 C.3   339  ILE339      0.0001
    178  N        112.7180   90.8120  119.1300 N.3   342  LEU342     -0.1231
    179  CA       111.6090   89.8900  118.9660 C.3   342  LEU342      0.1693
    180  C        111.6480   89.2200  117.6020 C.2   342  LEU342      0.2591
    181  O        111.1680   88.0920  117.4590 O.2   342  LEU342     -0.2718
    182  CB       110.2920   90.6280  119.1940 C.3   342  LEU342      0.0284
    183  CG       108.9840   89.8590  119.3560 C.3   342  LEU342      0.0019
    184  CD1      108.1080   90.6300  120.3000 C.3   342  LEU342      0.0001
    185  CD2      108.2420   89.6910  118.0530 C.3   342  LEU342      0.0001
    186  N        112.2110   89.8830  116.5920 N.am  343  GLN343     -0.1979
    187  CA       112.3110   89.2470  115.2840 C.3   343  GLN343      0.1601
    188  C        113.3670   88.1560  115.2830 C.2   343  GLN343      0.2287
    189  O        113.2100   87.1430  114.5970 O.2   343  GLN343     -0.2864
    190  CB       112.6160   90.2760  114.2040 C.3   343  GLN343      0.0394
    191  CG       111.4900   91.2160  113.8930 C.3   343  GLN343      0.0908
    192  CD       111.8620   92.1830  112.8020 C.2   343  GLN343      0.2608
    193  OE1      112.9860   92.1730  112.3100 O.2   343  GLN343     -0.2717
    194  NE2      110.9220   93.0300  112.4150 N.am  343  GLN343     -0.0878
    195  N        111.7610   85.0470  117.1410 N.3   346  ILE346     -0.1245
    196  CA       110.8950   84.1790  116.3580 C.3   346  ILE346      0.1561
    197  C        111.7230   83.2270  115.5100 C.2   346  ILE346      0.2260
    198  O        111.3980   82.0410  115.3920 O.2   346  ILE346     -0.2867
    199  CB       109.9360   85.0260  115.5090 C.3   346  ILE346      0.0252
    200  CG1      109.0090   85.8200  116.4150 C.3   346  ILE346      0.0019
    201  CG2      109.1020   84.1670  114.5970 C.3   346  ILE346      0.0019
    202  CD1      108.1560   86.7970  115.6730 C.3   346  ILE346      0.0001
@<TRIPOS>BOND
     1    64    65    1
     2    68    65    1
     3    65    66    1
     4    66    69   am
     5    66    67    2
     6    69    70    1
     7    70    73    1
     8    70    71    1
     9    73    74    1
    10    71    72    2
    11    76    75    1
    12    74    75    1
    13    83    81    1
    14    77    78    1
    15    82    81    1
    16    81    78    1
    17    78    79    1
    18    91    89   am
    19    84    79   am
    20    84    85    1
    21    79    80    2
    22    59    58    2
    23    89    88    1
    24    89    90    2
    25    88    85    1
    26    85    86    1
    27    58    57    1
    28    63    61    1
    29    86    87    2
    30    57    60    1
    31    57    56    1
    32    60    61    1
    33    61    62    1
    34    92    93    1
    35    98    97    1
    36    97    99    1
    37    97    96    1
    38    96    93    1
    39    93    94    1
    40   161   159    1
    41   160   158    1
    42   159   158    1
    43   100    94   am
    44   100   101    1
    45   134   132    1
    46    53    52    2
    47    94    95    2
    48   158   155    1
    49   135   133    1
    50   104   101    1
    51   104   105    1
    52    41    40    2
    53   155   156    1
    54   155   154    1
    55   157   156    2
    56   101   102    1
    57    52    51    1
    58   133   132    1
    59   132   129    1
    60   156   162   am
    61   107   105   ar
    62   107   109   ar
    63   105   106   ar
    64   102   103    2
    65   131   130    2
    66    40    50   am
    67    40    39    1
    68    51    50    1
    69    51    54    1
    70    55    54    1
    71   129   130    1
    72   129   128    1
    73    44    46   ar
    74    44    43   ar
    75   130   136   am
    76   109   110   ar
    77    39    42    1
    78    39    38    1
    79   162   163    1
    80   169   167    1
    81    42    43    1
    82   106   108   ar
    83    46    48   ar
    84    35    34    2
    85    43    45   ar
    86   127   124    1
    87   136   137    1
    88   163   164    1
    89   163   166    1
    90   137   138    1
    91   137   140    1
    92   110   108   ar
    93   110   111    1
    94   167   166    1
    95   167   168    1
    96   124   123    1
    97   124   125    1
    98   139   138    2
    99   126   125    2
   100    38    34   am
   101    34    33    1
   102   164   165    2
   103    48    49    1
   104    48    47   ar
   105   138   145   am
   106   140   141    1
   107    45    47   ar
   108    37    36    1
   109   147   148    2
   110   147   146    1
   111   141   142    1
   112   112   113    1
   113   145   146    1
   114   121   120    1
   115    36    33    1
   116    33    32    1
   117   115   114    2
   118   119   120    2
   119   119   118    1
   120   146   149    1
   121   142   143   ar
   122   142   144   ar
   123    17    18    1
   124   120   122    1
   125   117   118    1
   126   117   116    1
   127    32    26   am
   128   113   114    1
   129   113   116    1
   130    18    19    1
   131    18    21    1
   132   149   150    1
   133    19    20    2
   134    19    24   am
   135    23    21    1
   136    26    27    2
   137    26    25    1
   138   193   192    2
   139   194   192   am
   140    24    25    1
   141    21    22    1
   142   150   151    1
   143   192   191    1
   144    25    28    1
   145   151   152    1
   146   191   190    1
   147   152   153    1
   148   190   187    1
   149    28    29    1
   150   189   188    2
   151   201   199    1
   152    29    30   ar
   153    29    31   ar
   154   188   187    1
   155   187   186    1
   156   198   197    2
   157   199   196    1
   158   199   200    1
   159   197   196    1
   160   202   200    1
   161   176   174    1
   162   196   195    1
   163   186   180   am
   164   173   172    2
   165   174   175    1
   166   174   171    1
   167   172   171    1
   168   177   175    1
   169     6     5    1
   170   181   180    2
   171   180   179    1
   172     5     2    1
   173   171   170    1
   174   185   183    1
   175    15    16   ar
   176    15    13   ar
   177   179   178    1
   178   179   182    1
   179     2     1    1
   180     2     3    1
   181   182   183    1
   182   183   184    1
   183    16    14   ar
   184     4     3    2
   185    13    12   ar
   186    14    12   ar
   187    12    11    1
   188    11     8    1
   189     8     7    1
   190     8     9    1
   191    10     9    2
