@<TRIPOS>MOLECULE
tmp/5irzD02.pdb
 160 157 0 0 0
SMALL
GASTEIGER

@<TRIPOS>ATOM
      1  N        123.1000   79.5380  106.8180 N.3   102  PHE102     -0.1227
      2  CA       122.9210   78.6090  105.7170 C.3   102  PHE102      0.1736
      3  C        121.5990   78.8400  105.0090 C.2   102  PHE102      0.2595
      4  O        121.5180   78.6570  103.7920 O.2   102  PHE102     -0.2718
      5  CB       123.0120   77.1740  106.2150 C.3   102  PHE102      0.0547
      6  CG       122.8190   76.1560  105.1410 C.ar  102  PHE102     -0.0202
      7  CD1      123.8200   75.9070  104.2230 C.ar  102  PHE102     -0.0042
      8  CD2      121.6380   75.4430  105.0530 C.ar  102  PHE102     -0.0042
      9  CE1      123.6420   74.9670  103.2300 C.ar  102  PHE102     -0.0003
     10  CE2      121.4540   74.5040  104.0650 C.ar  102  PHE102     -0.0003
     11  CZ       122.4580   74.2650  103.1530 C.ar  102  PHE102     -0.0000
     12  N        120.5600   79.2440  105.7390 N.am  103  ASN103     -0.1974
     13  CA       119.2910   79.5420  105.0850 C.3   103  ASN103      0.1688
     14  C        119.3900   80.8060  104.2480 C.2   103  ASN103      0.2292
     15  O        118.7680   80.9050  103.1870 O.2   103  ASN103     -0.2864
     16  CB       118.1800   79.6660  106.1180 C.3   103  ASN103      0.1181
     17  CG       117.7960   78.3360  106.7050 C.2   103  ASN103      0.2629
     18  OD1      117.7340   77.3340  105.9970 O.2   103  ASN103     -0.2716
     19  ND2      117.5320   78.3130  108.0010 N.am  103  ASN103     -0.0877
     20  N        121.2940   79.7070  101.0910 N.3   106  VAL106     -0.1231
     21  CA       120.4570   79.0250  100.1150 C.3   106  VAL106      0.1692
     22  C        119.5960   80.0270   99.3670 C.2   106  VAL106      0.2592
     23  O        119.5120   79.9950   98.1330 O.2   106  VAL106     -0.2718
     24  CB       119.6090   77.9440  100.8040 C.3   106  VAL106      0.0266
     25  CG1      118.5730   77.3850   99.8580 C.3   106  VAL106      0.0020
     26  CG2      120.5010   76.8300  101.2720 C.3   106  VAL106      0.0020
     27  N        118.9740   80.9530  100.0950 N.am  107  TYR107     -0.1976
     28  CA       118.0680   81.9040   99.4660 C.3   107  TYR107      0.1639
     29  C        118.8150   82.9040   98.6010 C.2   107  TYR107      0.2290
     30  O        118.2720   83.3720   97.5970 O.2   107  TYR107     -0.2864
     31  CB       117.2510   82.6310  100.5240 C.3   107  TYR107      0.0560
     32  CG       116.2260   83.5730   99.9550 C.ar  107  TYR107     -0.0198
     33  CD1      115.0500   83.0920   99.4110 C.ar  107  TYR107     -0.0009
     34  CD2      116.4310   84.9400   99.9650 C.ar  107  TYR107     -0.0009
     35  CE1      114.1100   83.9450   98.8920 C.ar  107  TYR107      0.0417
     36  CE2      115.4970   85.7990   99.4470 C.ar  107  TYR107      0.0417
     37  CZ       114.3390   85.2940   98.9130 C.ar  107  TYR107      0.1957
     38  OH       113.4010   86.1480   98.3930 O.3   107  TYR107     -0.2866
     39  N        119.2780   81.0410   95.7500 N.3   110  TYR110     -0.1241
     40  CA       118.0320   80.8050   95.0470 C.3   110  TYR110      0.1605
     41  C        117.7250   81.9320   94.0810 C.2   110  TYR110      0.2264
     42  O        117.3130   81.6830   92.9440 O.2   110  TYR110     -0.2867
     43  CB       116.8950   80.6350   96.0350 C.3   110  TYR110      0.0534
     44  CG       115.5750   80.5160   95.3490 C.ar  110  TYR110     -0.0201
     45  CD1      115.2790   79.4070   94.5890 C.ar  110  TYR110     -0.0009
     46  CD2      114.6120   81.5010   95.4830 C.ar  110  TYR110     -0.0009
     47  CE1      114.0750   79.2870   93.9600 C.ar  110  TYR110      0.0417
     48  CE2      113.3970   81.3870   94.8630 C.ar  110  TYR110      0.0417
     49  CZ       113.1350   80.2760   94.1040 C.ar  110  TYR110      0.1957
     50  OH       111.9230   80.1530   93.4770 O.3   110  TYR110     -0.2866
     51  N        114.4010   74.4140   89.2380 N.3   146  LEU146     -0.1245
     52  CA       114.7590   74.7320   90.6130 C.3   146  LEU146      0.1561
     53  C        114.0320   75.9740   91.0920 C.2   146  LEU146      0.2260
     54  O        113.6210   76.0440   92.2550 O.2   146  LEU146     -0.2867
     55  CB       116.2640   74.9280   90.7460 C.3   146  LEU146      0.0270
     56  CG       117.0930   73.6720   90.5320 C.3   146  LEU146      0.0019
     57  CD1      118.5710   73.9920   90.6160 C.3   146  LEU146      0.0001
     58  CD2      116.7010   72.6240   91.5460 C.3   146  LEU146      0.0001
     59  N        110.4730   75.1610   91.8720 N.3   149  SER149     -0.1202
     60  CA       110.4270   74.3820   93.1030 C.3   149  SER149      0.2020
     61  C        110.6180   75.2480   94.3370 C.2   149  SER149      0.2619
     62  O        110.0930   74.9210   95.4070 O.2   149  SER149     -0.2717
     63  CB       111.4900   73.2920   93.0670 C.3   149  SER149      0.2103
     64  OG       111.5160   72.5780   94.2870 O.3   149  SER149     -0.2182
     65  N        111.3550   76.3490   94.2140 N.am  150  GLY150     -0.1956
     66  CA       111.4260   77.2930   95.3110 C.3   150  GLY150      0.1869
     67  C        110.1140   78.0050   95.5490 C.2   150  GLY150      0.2309
     68  O        109.7590   78.2900   96.6940 O.2   150  GLY150     -0.2863
     69  N        108.0910   75.5580   97.3640 N.3   153  TYR153     -0.1227
     70  CA       108.5370   75.3970   98.7440 C.3   153  TYR153      0.1736
     71  C        108.0100   76.5080   99.6360 C.2   153  TYR153      0.2595
     72  O        107.4990   76.2440  100.7270 O.2   153  TYR153     -0.2718
     73  CB       110.0590   75.3480   98.8110 C.3   153  TYR153      0.0548
     74  CG       110.5710   75.2290  100.2220 C.ar  153  TYR153     -0.0200
     75  CD1      110.4880   74.0300  100.9070 C.ar  153  TYR153     -0.0009
     76  CD2      111.1320   76.3180  100.8710 C.ar  153  TYR153     -0.0009
     77  CE1      110.9480   73.9210  102.1990 C.ar  153  TYR153      0.0417
     78  CE2      111.5900   76.2180  102.1600 C.ar  153  TYR153      0.0417
     79  CZ       111.4980   75.0210  102.8190 C.ar  153  TYR153      0.1957
     80  OH       111.9630   74.9310  104.1070 O.3   153  TYR153     -0.2866
     81  N        108.1150   77.7570   99.1880 N.am  154  PHE154     -0.1976
     82  CA       107.5880   78.8660   99.9720 C.3   154  PHE154      0.1639
     83  C        106.0720   78.8900   99.9910 C.2   154  PHE154      0.2290
     84  O        105.4850   79.5520  100.8510 O.2   154  PHE154     -0.2864
     85  CB       108.1250   80.1850   99.4340 C.3   154  PHE154      0.0560
     86  CG       109.5700   80.4060   99.7250 C.ar  154  PHE154     -0.0200
     87  CD1      110.1850   79.7470  100.7700 C.ar  154  PHE154     -0.0042
     88  CD2      110.3210   81.2480   98.9360 C.ar  154  PHE154     -0.0042
     89  CE1      111.5150   79.9440  101.0380 C.ar  154  PHE154     -0.0003
     90  CE2      111.6550   81.4450   99.1960 C.ar  154  PHE154     -0.0003
     91  CZ       112.2530   80.7920  100.2480 C.ar  154  PHE154     -0.0000
     92  N        105.3970   76.1050  102.7140 N.3   157  ARG157     -0.1245
     93  CA       105.8590   76.6280  103.9910 C.3   157  ARG157      0.1563
     94  C        105.0100   77.8110  104.4250 C.2   157  ARG157      0.2260
     95  O        104.8780   78.0740  105.6240 O.2   157  ARG157     -0.2867
     96  CB       107.3330   77.0180  103.8970 C.3   157  ARG157      0.0307
     97  CG       108.0080   77.3310  105.2170 C.3   157  ARG157      0.0489
     98  CD       109.4710   77.6540  104.9980 C.3   157  ARG157      0.2205
     99  NE       110.1610   77.9920  106.2380 N.pl3 157  ARG157     -0.0865
    100  CZ       111.4320   78.3750  106.3050 C.cat 157  ARG157      0.5346
    101  NH1      111.9750   78.6620  107.4780 N.pl3 157  ARG157      0.1354
    102  NH2      112.1590   78.4900  105.2010 N.pl3 157  ARG157      0.1354
    103  N        106.1720   89.6950  107.3350 N.3   178  SER178     -0.1202
    104  CA       107.2290   88.9660  106.6550 C.3   178  SER178      0.2020
    105  C        106.7320   87.7060  105.9780 C.2   178  SER178      0.2618
    106  O        107.1450   87.4230  104.8520 O.2   178  SER178     -0.2717
    107  CB       108.3330   88.6000  107.6350 C.3   178  SER178      0.2103
    108  OG       109.3000   87.7950  106.9940 O.3   178  SER178     -0.2182
    109  N        105.8490   86.9550  106.6220 N.am  179  GLU179     -0.1979
    110  CA       105.4310   85.6780  106.0720 C.3   179  GLU179      0.1602
    111  C        104.4410   85.8450  104.9300 C.2   179  GLU179      0.2287
    112  O        104.3440   84.9680  104.0650 O.2   179  GLU179     -0.2864
    113  CB       104.8380   84.8140  107.1850 C.3   179  GLU179      0.0415
    114  CG       104.6360   83.3700  106.8070 C.3   179  GLU179      0.1163
    115  CD       105.9410   82.6380  106.5860 C.2   179  GLU179      0.3649
    116  OE1      106.9510   83.0020  107.2250 O.co2 179  GLU179     -0.2457
    117  OE2      105.9610   81.7040  105.7590 O.co2 179  GLU179     -0.2457
    118  N        106.7860   86.4930  101.7800 N.3   182  PHE182     -0.1241
    119  CA       107.2660   85.2370  101.2170 C.3   182  PHE182      0.1605
    120  C        106.1550   84.4810  100.5140 C.2   182  PHE182      0.2264
    121  O        106.4150   83.7520   99.5530 O.2   182  PHE182     -0.2867
    122  CB       107.8750   84.3450  102.2940 C.3   182  PHE182      0.0534
    123  CG       109.2900   84.6810  102.6480 C.ar  182  PHE182     -0.0203
    124  CD1      110.0650   85.4600  101.8150 C.ar  182  PHE182     -0.0042
    125  CD2      109.8550   84.1810  103.8090 C.ar  182  PHE182     -0.0042
    126  CE1      111.3630   85.7450  102.1390 C.ar  182  PHE182     -0.0003
    127  CE2      111.1550   84.4680  104.1360 C.ar  182  PHE182     -0.0003
    128  CZ       111.9080   85.2570  103.2960 C.ar  182  PHE182     -0.0000
    129  N        114.6210   90.3660  104.6870 N.3   220  TYR220     -0.1227
    130  CA       114.2500   89.5340  105.8240 C.3   220  TYR220      0.1736
    131  C        115.4680   89.0220  106.5600 C.2   220  TYR220      0.2595
    132  O        115.4620   88.9450  107.7900 O.2   220  TYR220     -0.2718
    133  CB       113.3940   88.3570  105.3730 C.3   220  TYR220      0.0548
    134  CG       113.2080   87.3220  106.4480 C.ar  220  TYR220     -0.0200
    135  CD1      112.4460   87.5890  107.5680 C.ar  220  TYR220     -0.0009
    136  CD2      113.7920   86.0740  106.3360 C.ar  220  TYR220     -0.0009
    137  CE1      112.2790   86.6430  108.5480 C.ar  220  TYR220      0.0417
    138  CE2      113.6300   85.1270  107.3070 C.ar  220  TYR220      0.0417
    139  CZ       112.8750   85.4140  108.4080 C.ar  220  TYR220      0.1957
    140  OH       112.7200   84.4540  109.3750 O.3   220  TYR220     -0.2866
    141  N        116.5240   88.7020  105.8380 N.am  221  TYR221     -0.1976
    142  CA       117.6930   88.1280  106.4670 C.3   221  TYR221      0.1639
    143  C        118.6270   89.1620  107.0570 C.2   221  TYR221      0.2290
    144  O        119.7140   88.7980  107.5000 O.2   221  TYR221     -0.2864
    145  CB       118.4340   87.2810  105.4560 C.3   221  TYR221      0.0560
    146  CG       117.6470   86.0820  105.0320 C.ar  221  TYR221     -0.0198
    147  CD1      117.6390   84.9450  105.8160 C.ar  221  TYR221     -0.0009
    148  CD2      116.9050   86.0830  103.8710 C.ar  221  TYR221     -0.0009
    149  CE1      116.9210   83.8440  105.4490 C.ar  221  TYR221      0.0417
    150  CE2      116.1780   84.9780  103.4940 C.ar  221  TYR221      0.0417
    151  CZ       116.1950   83.8610  104.2950 C.ar  221  TYR221      0.1957
    152  OH       115.4830   82.7420  103.9540 O.3   221  TYR221     -0.2866
    153  N        111.6400   79.2290  115.5380 N.3   350  ASP350     -0.1239
    154  CA       111.1650   78.5760  114.3270 C.3   350  ASP350      0.1674
    155  C        112.0360   77.3890  113.9480 C.2   350  ASP350      0.2266
    156  O        111.5430   76.4270  113.3530 O.2   350  ASP350     -0.2867
    157  CB       111.1110   79.5760  113.1770 C.3   350  ASP350      0.1410
    158  CG       110.2790   79.1240  112.0000 C.2   350  ASP350      0.3668
    159  OD1      109.6470   78.0790  112.0170 O.co2 350  ASP350     -0.2456
    160  OD2      110.1360   79.8980  111.0510 O.co2 350  ASP350     -0.2456
@<TRIPOS>BOND
     1    51    52    1
     2    56    57    1
     3    56    55    1
     4    56    58    1
     5    52    55    1
     6    52    53    1
     7    53    54    2
     8    59    60    1
     9    42    41    2
    10    63    60    1
    11    63    64    1
    12    60    61    1
    13    50    49    1
    14    47    49   ar
    15    47    45   ar
    16    41    40    1
    17    49    48   ar
    18    65    61   am
    19    65    66    1
    20    61    62    2
    21    45    44   ar
    22    48    46   ar
    23    40    39    1
    24    40    43    1
    25    66    67    1
    26    44    46   ar
    27    44    43    1
    28    67    68    2
    29    69    70    1
    30    30    29    2
    31    23    22    2
    32    38    37    1
    33    29    28    1
    34    70    73    1
    35    70    71    1
    36    73    74    1
    37    35    37   ar
    38    35    33   ar
    39    37    36   ar
    40    88    90   ar
    41    88    86   ar
    42    81    71   am
    43    81    82    1
    44    90    91   ar
    45    22    27   am
    46    22    21    1
    47    33    32   ar
    48    85    86    1
    49    85    82    1
    50    36    34   ar
    51    28    27    1
    52    28    31    1
    53   121   120    2
    54    71    72    2
    55    86    87   ar
    56    25    24    1
    57    32    34   ar
    58    32    31    1
    59    82    83    1
    60    83    84    2
    61    21    24    1
    62    21    20    1
    63    74    76   ar
    64    74    75   ar
    65    91    89   ar
    66   120   119    1
    67    87    89   ar
    68    24    26    1
    69    76    78   ar
    70    75    77   ar
    71   119   118    1
    72   119   122    1
    73   124   126   ar
    74   124   123   ar
    75   126   128   ar
    76    78    79   ar
    77    77    79   ar
    78   122   123    1
    79   123   125   ar
    80    92    93    1
    81    79    80    1
    82    11     9   ar
    83    11    10   ar
    84    15    14    2
    85     9     7   ar
    86   128   127   ar
    87   150   148   ar
    88   150   151   ar
    89     4     3    2
    90   125   127   ar
    91   148   146   ar
    92    96    93    1
    93    96    97    1
    94   152   151    1
    95    93    94    1
    96    10     8   ar
    97   112   111    2
    98     7     6   ar
    99    14    13    1
   100   151   149   ar
   101    94    95    2
   102   129   130    1
   103   106   105    2
   104   111   110    1
   105    98    97    1
   106    98    99    1
   107     3     2    1
   108     3    12   am
   109   146   145    1
   110   146   147   ar
   111     8     6   ar
   112    13    12    1
   113    13    16    1
   114     6     5    1
   115   102   100    1
   116   133   130    1
   117   133   134    1
   118   149   147   ar
   119   145   142    1
   120     2     5    1
   121     2     1    1
   122   117   115   ar
   123   130   131    1
   124   141   142    1
   125   141   131   am
   126   105   109   am
   127   105   104    1
   128    18    17    2
   129   110   109    1
   130   110   113    1
   131    16    17    1
   132    99   100    2
   133   100   101    1
   134   136   134   ar
   135   136   138   ar
   136   134   135   ar
   137   142   143    1
   138   131   132    2
   139   115   114    1
   140   115   116   ar
   141   104   103    1
   142   104   107    1
   143    17    19   am
   144   114   113    1
   145   108   107    1
   146   143   144    2
   147   138   139   ar
   148   135   137   ar
   149   139   137   ar
   150   139   140    1
   151   160   158   ar
   152   158   159   ar
   153   158   157    1
   154   157   154    1
   155   156   155    2
   156   155   154    1
   157   154   153    1
