@<TRIPOS>MOLECULE
tmp/5is0D01.pdb
 137 131 0 0 0
SMALL
GASTEIGER

@<TRIPOS>ATOM
      1  N        130.5900  141.9450  111.0930 N.3   177  TYR177     -0.1227
      2  CA       130.0110  141.4240  109.8730 C.3   177  TYR177      0.1736
      3  C        128.6500  142.0540  109.6500 C.2   177  TYR177      0.2596
      4  O        127.9770  142.4660  110.5980 O.2   177  TYR177     -0.2718
      5  CB       129.8960  139.9140  109.9810 C.3   177  TYR177      0.0548
      6  CG       129.2950  139.2410  108.7930 C.ar  177  TYR177     -0.0200
      7  CD1      130.0330  139.0410  107.6390 C.ar  177  TYR177     -0.0009
      8  CD2      127.9840  138.7960  108.8260 C.ar  177  TYR177     -0.0009
      9  CE1      129.4790  138.4120  106.5450 C.ar  177  TYR177      0.0417
     10  CE2      127.4230  138.1670  107.7470 C.ar  177  TYR177      0.0417
     11  CZ       128.1730  137.9790  106.6090 C.ar  177  TYR177      0.1957
     12  OH       127.6030  137.3530  105.5300 O.3   177  TYR177     -0.2866
     13  N        128.2670  142.1410  108.3760 N.am  178  SER178     -0.1952
     14  CA       127.1260  142.9210  107.8940 C.3   178  SER178      0.1924
     15  C        127.2570  144.3870  108.2540 C.2   178  SER178      0.2314
     16  O        126.2730  145.0520  108.5570 O.2   178  SER178     -0.2863
     17  CB       125.7810  142.3800  108.3760 C.3   178  SER178      0.2116
     18  OG       124.7540  143.2570  107.9740 O.3   178  SER178     -0.2180
     19  N        129.6550  144.3370  104.6100 N.3   181  LEU181     -0.1231
     20  CA       128.9470  144.0540  103.3730 C.3   181  LEU181      0.1693
     21  C        128.4020  145.3150  102.7360 C.2   181  LEU181      0.2592
     22  O        128.3970  145.4350  101.5100 O.2   181  LEU181     -0.2718
     23  CB       127.8240  143.0690  103.6340 C.3   181  LEU181      0.0284
     24  CG       128.2990  141.6940  104.0460 C.3   181  LEU181      0.0019
     25  CD1      127.1200  140.8190  104.3270 C.3   181  LEU181      0.0001
     26  CD2      129.1090  141.1210  102.9410 C.3   181  LEU181      0.0001
     27  N        127.9700  146.2770  103.5420 N.am  182  PHE182     -0.1976
     28  CA       127.6050  147.5560  102.9640 C.3   182  PHE182      0.1639
     29  C        128.8090  148.2990  102.4420 C.2   182  PHE182      0.2290
     30  O        128.6830  149.0920  101.5070 O.2   182  PHE182     -0.2864
     31  CB       126.8810  148.4210  103.9670 C.3   182  PHE182      0.0560
     32  CG       125.4520  148.1040  104.0900 C.ar  182  PHE182     -0.0200
     33  CD1      124.5790  148.5420  103.1350 C.ar  182  PHE182     -0.0042
     34  CD2      124.9700  147.4090  105.1650 C.ar  182  PHE182     -0.0042
     35  CE1      123.2600  148.2730  103.2330 C.ar  182  PHE182     -0.0003
     36  CE2      123.6410  147.1400  105.2680 C.ar  182  PHE182     -0.0003
     37  CZ       122.7870  147.5760  104.3010 C.ar  182  PHE182     -0.0000
     38  N        127.8540  142.4780   90.8710 N.3   209  PHE209     -0.1241
     39  CA       128.1790  142.0980   92.2360 C.3   209  PHE209      0.1605
     40  C        127.8010  143.1780   93.2180 C.2   209  PHE209      0.2264
     41  O        127.5080  142.8770   94.3660 O.2   209  PHE209     -0.2867
     42  CB       129.6550  141.7940   92.3860 C.3   209  PHE209      0.0534
     43  CG       130.0650  140.5410   91.7470 C.ar  209  PHE209     -0.0203
     44  CD1      129.8040  139.3480   92.3520 C.ar  209  PHE209     -0.0042
     45  CD2      130.7370  140.5500   90.5560 C.ar  209  PHE209     -0.0042
     46  CE1      130.1850  138.1810   91.7650 C.ar  209  PHE209     -0.0003
     47  CE2      131.1240  139.3850   89.9680 C.ar  209  PHE209     -0.0003
     48  CZ       130.8470  138.2000   90.5730 C.ar  209  PHE209     -0.0000
     49  N        123.7850  142.2140   93.5420 N.3   212  ALA212     -0.1231
     50  CA       123.4240  141.0240   94.2860 C.3   212  ALA212      0.1694
     51  C        123.8120  141.1650   95.7380 C.2   212  ALA212      0.2591
     52  O        123.0840  140.7160   96.6210 O.2   212  ALA212     -0.2718
     53  CB       124.0950  139.8100   93.6820 C.3   212  ALA212      0.0304
     54  N        124.9510  141.7960   96.0050 N.am  213  MET213     -0.1979
     55  CA       125.3170  142.1480   97.3660 C.3   213  MET213      0.1605
     56  C        124.3330  143.1220   97.9660 C.2   213  MET213      0.2287
     57  O        124.0960  143.0820   99.1700 O.2   213  MET213     -0.2864
     58  CB       126.6860  142.7960   97.3890 C.3   213  MET213      0.0413
     59  CG       127.3580  142.8700   98.7040 C.3   213  MET213      0.0598
     60  SD       128.0600  141.2810   99.0890 S.3   213  MET213     -0.1393
     61  CE       129.3920  141.2730   97.9060 C.3   213  MET213      0.0692
     62  N        120.9270  141.4020   99.0740 N.3   216  THR216     -0.1203
     63  CA       121.1200  140.5850  100.2540 C.3   216  THR216      0.1994
     64  C        121.4640  141.3970  101.4820 C.2   216  THR216      0.2617
     65  O        121.4180  140.8590  102.5850 O.2   216  THR216     -0.2717
     66  CB       122.2150  139.5780  100.0120 C.3   216  THR216      0.1784
     67  OG1      123.4160  140.2820   99.7070 O.3   216  THR216     -0.2211
     68  CG2      121.8500  138.7200   98.8580 C.3   216  THR216      0.0376
     69  N        121.8030  142.6630  101.3350 N.am  217  ASN217     -0.1974
     70  CA       121.9420  143.5220  102.4910 C.3   217  ASN217      0.1688
     71  C        120.6370  144.0870  102.9410 C.2   217  ASN217      0.2292
     72  O        120.6020  144.8330  103.9100 O.2   217  ASN217     -0.2864
     73  CB       122.8960  144.6530  102.1940 C.3   217  ASN217      0.1181
     74  CG       124.2770  144.1770  102.0770 C.2   217  ASN217      0.2629
     75  OD1      124.6850  143.2880  102.8060 O.2   217  ASN217     -0.2716
     76  ND2      125.0270  144.7520  101.1610 N.am  217  ASN217     -0.0877
     77  N        118.6410  142.1180  104.1790 N.3   219  LEU219     -0.1231
     78  CA       118.4610  141.3450  105.3900 C.3   219  LEU219      0.1693
     79  C        118.9370  142.0760  106.6220 C.2   219  LEU219      0.2592
     80  O        118.6280  141.6370  107.7280 O.2   219  LEU219     -0.2718
     81  CB       119.2160  140.0390  105.3030 C.3   219  LEU219      0.0284
     82  CG       118.6660  139.0810  104.2820 C.3   219  LEU219      0.0019
     83  CD1      119.5230  137.8570  104.3020 C.3   219  LEU219      0.0001
     84  CD2      117.2600  138.7580  104.6470 C.3   219  LEU219      0.0001
     85  N        119.7230  143.1370  106.4560 N.am  220  TYR220     -0.1976
     86  CA       120.1960  143.9050  107.5970 C.3   220  TYR220      0.1639
     87  C        119.0620  144.4840  108.3990 C.2   220  TYR220      0.2290
     88  O        119.1260  144.5160  109.6250 O.2   220  TYR220     -0.2864
     89  CB       121.0990  145.0270  107.1350 C.3   220  TYR220      0.0560
     90  CG       121.3570  146.0490  108.1910 C.ar  220  TYR220     -0.0198
     91  CD1      122.1480  145.7630  109.2760 C.ar  220  TYR220     -0.0009
     92  CD2      120.8200  147.3160  108.0890 C.ar  220  TYR220     -0.0009
     93  CE1      122.3840  146.7010  110.2400 C.ar  220  TYR220      0.0417
     94  CE2      121.0500  148.2590  109.0450 C.ar  220  TYR220      0.0417
     95  CZ       121.8340  147.9460  110.1180 C.ar  220  TYR220      0.1957
     96  OH       122.0660  148.8960  111.0770 O.3   220  TYR220     -0.2866
     97  N        116.6740  143.0370  111.7490 N.3   223  ARG223     -0.1245
     98  CA       116.6930  143.5290  113.1100 C.3   223  ARG223      0.1563
     99  C        115.6930  144.6660  113.2210 C.2   223  ARG223      0.2260
    100  O        115.4220  145.3810  112.2590 O.2   223  ARG223     -0.2867
    101  CB       118.0930  143.9800  113.4940 C.3   223  ARG223      0.0307
    102  CG       118.5720  145.1820  112.7470 C.3   223  ARG223      0.0489
    103  CD       120.0330  145.3690  112.9320 C.3   223  ARG223      0.2205
    104  NE       120.7560  144.2750  112.3140 N.pl3 223  ARG223     -0.0865
    105  CZ       122.0630  144.1130  112.4130 C.cat 223  ARG223      0.5346
    106  NH1      122.6550  143.0870  111.8270 N.pl3 223  ARG223      0.1354
    107  NH2      122.7790  144.9890  113.0930 N.pl3 223  ARG223      0.1354
    108  N        117.4170  135.7740  111.2160 N.3   232  ALA232     -0.1245
    109  CA       118.5080  136.1620  110.3380 C.3   232  ALA232      0.1562
    110  C        119.8550  136.0900  111.0190 C.2   232  ALA232      0.2260
    111  O        120.8760  136.0780  110.3340 O.2   232  ALA232     -0.2867
    112  CB       118.2990  137.5690  109.8080 C.3   232  ALA232      0.0290
    113  N        121.1490  132.6530  110.2980 N.3   235  ILE235     -0.1231
    114  CA       121.6840  132.5640  108.9550 C.3   235  ILE235      0.1692
    115  C        123.1040  133.0920  108.9170 C.2   235  ILE235      0.2591
    116  O        123.9380  132.5900  108.1630 O.2   235  ILE235     -0.2718
    117  CB       120.7650  133.3190  107.9980 C.3   235  ILE235      0.0266
    118  CG1      119.3600  132.7930  108.1650 C.3   235  ILE235      0.0019
    119  CG2      121.1650  133.0950  106.5790 C.3   235  ILE235      0.0020
    120  CD1      118.3710  133.6400  107.4930 C.3   235  ILE235      0.0001
    121  N        123.4230  134.0790  109.7510 N.am  236  GLU236     -0.1979
    122  CA       124.8120  134.5100  109.8170 C.3   236  GLU236      0.1602
    123  C        125.6900  133.4830  110.4940 C.2   236  GLU236      0.2287
    124  O        126.7710  133.1740  109.9910 O.2   236  GLU236     -0.2864
    125  CB       124.9530  135.8350  110.5480 C.3   236  GLU236      0.0415
    126  CG       124.5370  137.0440  109.7540 C.3   236  GLU236      0.1163
    127  CD       124.7730  138.3420  110.5090 C.2   236  GLU236      0.3649
    128  OE1      125.1050  138.2850  111.7070 O.co2 236  GLU236     -0.2457
    129  OE2      124.6450  139.4210  109.8960 O.co2 236  GLU236     -0.2457
    130  N        126.6340  130.4170  108.4470 N.3   239  ILE239     -0.1245
    131  CA       127.6160  130.6460  107.4020 C.3   239  ILE239      0.1561
    132  C        129.0150  130.6980  107.9850 C.2   239  ILE239      0.2260
    133  O        129.9170  129.9990  107.5230 O.2   239  ILE239     -0.2867
    134  CB       127.2800  131.9200  106.6220 C.3   239  ILE239      0.0252
    135  CG1      126.0220  131.7030  105.8080 C.3   239  ILE239      0.0019
    136  CG2      128.4190  132.3120  105.7340 C.3   239  ILE239      0.0019
    137  CD1      125.5300  132.9470  105.1920 C.3   239  ILE239      0.0001
@<TRIPOS>BOND
     1    47    45   ar
     2    47    48   ar
     3    45    43   ar
     4    48    46   ar
     5    38    39    1
     6    43    44   ar
     7    43    42    1
     8    46    44   ar
     9    39    42    1
    10    39    40    1
    11    40    41    2
    12    49    50    1
    13    53    50    1
    14    50    51    1
    15    51    54   am
    16    51    52    2
    17    54    55    1
    18    55    58    1
    19    55    56    1
    20    58    59    1
    21    61    60    1
    22    56    57    2
    23    59    60    1
    24    68    66    1
    25    62    63    1
    26    67    66    1
    27    66    63    1
    28    63    64    1
    29    76    74   am
    30    69    64   am
    31    69    70    1
    32    64    65    2
    33    30    29    2
    34    22    21    2
    35    74    73    1
    36    74    75    2
    37    73    70    1
    38    29    28    1
    39    70    71    1
    40    21    20    1
    41    21    27   am
    42    26    24    1
    43    71    72    2
    44    28    27    1
    45    28    31    1
    46    33    35   ar
    47    33    32   ar
    48    35    37   ar
    49    20    23    1
    50    20    19    1
    51    23    24    1
    52    31    32    1
    53    24    25    1
    54    32    34   ar
    55    77    78    1
    56    82    83    1
    57    82    84    1
    58    82    81    1
    59    37    36   ar
    60    34    36   ar
    61   137   135    1
    62    81    78    1
    63    78    79    1
    64    12    11    1
    65   136   134    1
    66   135   134    1
    67    85    79   am
    68    85    86    1
    69     9    11   ar
    70     9     7   ar
    71   119   117    1
    72    11    10   ar
    73   134   131    1
    74    79    80    2
    75    89    86    1
    76    89    90    1
    77   131   132    1
    78   131   130    1
    79   120   118    1
    80   133   132    2
    81    86    87    1
    82     7     6   ar
    83    10     8   ar
    84    14    15    1
    85    14    13    1
    86    14    17    1
    87    18    17    1
    88   117   118    1
    89   117   114    1
    90    92    90   ar
    91    92    94   ar
    92   116   115    2
    93    90    91   ar
    94    15    16    2
    95    13     3   am
    96    87    88    2
    97     6     8   ar
    98     6     5    1
    99   115   114    1
   100   115   121   am
   101   114   113    1
   102    94    95   ar
   103    91    93   ar
   104     3     2    1
   105     3     4    2
   106   121   122    1
   107   126   127    1
   108   126   125    1
   109   112   109    1
   110   122   123    1
   111   122   125    1
   112     2     5    1
   113     2     1    1
   114   129   127   ar
   115   124   123    2
   116    95    93   ar
   117    95    96    1
   118   111   110    2
   119   109   110    1
   120   109   108    1
   121   127   128   ar
   122    97    98    1
   123   106   105    1
   124   100    99    2
   125   104   105    2
   126   104   103    1
   127   105   107    1
   128   102   103    1
   129   102   101    1
   130    98    99    1
   131    98   101    1
