@<TRIPOS>MOLECULE
tmp/5is5A00.pdb
 233 221 0 0 0
SMALL
GASTEIGER

@<TRIPOS>ATOM
      1  N          1.1900  -40.1610   -8.2470 N.3   483  LYS483     -0.1245
      2  CA         1.0060  -39.0030   -9.1430 C.3   483  LYS483      0.1561
      3  C         -0.3660  -38.3010   -8.9880 C.2   483  LYS483      0.2260
      4  O         -0.3590  -37.0820   -8.7820 O.2   483  LYS483     -0.2867
      5  CB         1.3550  -39.3170  -10.6190 C.3   483  LYS483      0.0271
      6  CG         1.1310  -38.1400  -11.5650 C.3   483  LYS483      0.0035
      7  CD         2.0200  -38.1750  -12.7770 C.3   483  LYS483      0.0206
      8  CE         1.8700  -36.9160  -13.5880 C.3   483  LYS483      0.1093
      9  NZ         2.7480  -36.9280  -14.7830 N.3   483  LYS483     -0.1314
     10  N         -6.5470  -28.5850  -15.6390 N.3   523  GLN523     -0.1245
     11  CA        -5.7450  -29.1570  -16.7150 C.3   523  GLN523      0.1566
     12  C         -4.2240  -29.0650  -16.4650 C.2   523  GLN523      0.2260
     13  O         -3.4390  -29.5640  -17.2810 O.2   523  GLN523     -0.2867
     14  CB        -6.1570  -28.5460  -18.0660 C.3   523  GLN523      0.0367
     15  CG        -7.6630  -28.4710  -18.3330 C.3   523  GLN523      0.0905
     16  CD        -8.2050  -29.8590  -18.6950 C.2   523  GLN523      0.2608
     17  OE1       -7.5170  -30.8370  -18.9000 O.2   523  GLN523     -0.2717
     18  NE2       -9.5470  -29.8830  -18.8030 N.am  523  GLN523     -0.0878
     19  N         -0.6370  -29.9350  -14.5090 N.3   525  THR525     -0.1203
     20  CA         0.0420  -31.1170  -13.9590 C.3   525  THR525      0.1994
     21  C          1.5730  -30.9380  -14.0300 C.2   525  THR525      0.2618
     22  O          2.0670  -29.8190  -14.2010 O.2   525  THR525     -0.2717
     23  CB        -0.4780  -32.4240  -14.6340 C.3   525  THR525      0.1784
     24  OG1        0.1290  -33.5610  -14.0150 O.3   525  THR525     -0.2211
     25  CG2       -0.2550  -32.4560  -16.1630 C.3   525  THR525      0.0376
     26  N          2.3070  -32.0360  -13.8740 N.am  526  PHE526     -0.1961
     27  CA         3.7540  -32.0550  -13.9440 C.3   526  PHE526      0.1771
     28  C          4.2050  -33.2460  -14.7740 C.2   526  PHE526      0.2619
     29  O          3.5520  -34.2940  -14.7610 O.2   526  PHE526     -0.2715
     30  CB         4.4000  -32.0510  -12.5440 C.3   526  PHE526      0.0574
     31  CG         4.1580  -33.2830  -11.7010 C.ar  526  PHE526     -0.0200
     32  CD1        5.1180  -34.2840  -11.6110 C.ar  526  PHE526     -0.0042
     33  CD2        2.9850  -33.4260  -10.9670 C.ar  526  PHE526     -0.0042
     34  CE1        4.8880  -35.4290  -10.8400 C.ar  526  PHE526     -0.0003
     35  CE2        2.7530  -34.5750  -10.2060 C.ar  526  PHE526     -0.0003
     36  CZ         3.7060  -35.5680  -10.1450 C.ar  526  PHE526     -0.0000
     37  N          5.3090  -33.0710  -15.5130 N.am  527  MET527     -0.1963
     38  CA         5.9110  -34.0960  -16.3630 C.3   527  MET527      0.1736
     39  C          6.8110  -35.0260  -15.5280 C.2   527  MET527      0.2616
     40  O          7.4940  -34.5670  -14.6090 O.2   527  MET527     -0.2715
     41  CB         6.6810  -33.4410  -17.5170 C.3   527  MET527      0.0427
     42  CG         5.8100  -32.5130  -18.3570 C.3   527  MET527      0.0599
     43  SD         6.6850  -31.4510  -19.5310 S.3   527  MET527     -0.1393
     44  CE         7.4240  -32.6560  -20.6080 C.3   527  MET527      0.0692
     45  N          6.7870  -36.3360  -15.8500 N.am  528  ASP528     -0.1957
     46  CA         7.5330  -37.4050  -15.1700 C.3   528  ASP528      0.1840
     47  C          9.0790  -37.3550  -15.2110 C.2   528  ASP528      0.2622
     48  O          9.7150  -38.0290  -14.4080 O.2   528  ASP528     -0.2715
     49  CB         6.9810  -38.7830  -15.5600 C.3   528  ASP528      0.1450
     50  CG         5.5370  -39.0080  -15.1450 C.2   528  ASP528      0.3671
     51  OD1        5.0940  -38.3780  -14.1560 O.co2 528  ASP528     -0.2456
     52  OD2        4.8590  -39.8330  -15.7890 O.co2 528  ASP528     -0.2456
     53  N          9.6750  -36.5300  -16.1040 N.am  529  SER529     -0.1950
     54  CA        11.1290  -36.3170  -16.2480 C.3   529  SER529      0.1924
     55  C         11.7770  -35.9340  -14.9010 C.2   529  SER529      0.2314
     56  O         11.0960  -35.3810  -14.0330 O.2   529  SER529     -0.2863
     57  CB        11.4050  -35.2310  -17.2850 C.3   529  SER529      0.2116
     58  OG        12.7750  -35.0560  -17.5610 O.3   529  SER529     -0.2180
     59  N          9.1110  -31.1940  -14.4260 N.3   533  PRO533     -0.2116
     60  CA         8.6220  -29.8990  -14.9490 C.3   533  PRO533      0.1372
     61  C          7.1070  -29.7140  -14.8820 C.2   533  PRO533      0.2244
     62  O          6.3730  -30.6960  -14.8440 O.2   533  PRO533     -0.2868
     63  CB         9.1340  -29.8730  -16.3960 C.3   533  PRO533      0.0268
     64  CG        10.1870  -30.8920  -16.4530 C.3   533  PRO533      0.0207
     65  CD         9.7840  -31.9570  -15.4940 C.3   533  PRO533      0.0892
     66  N          3.3630  -28.4910  -16.2400 N.3   535  TRP535     -0.1241
     67  CA         2.5000  -28.3680  -17.4000 C.3   535  TRP535      0.1605
     68  C          1.3960  -27.3980  -16.9640 C.2   535  TRP535      0.2264
     69  O          0.5370  -27.7590  -16.1470 O.2   535  TRP535     -0.2867
     70  CB         1.9400  -29.7530  -17.7390 C.3   535  TRP535      0.0550
     71  CG         1.1460  -29.8150  -19.0030 C.ar  535  TRP535      0.0003
     72  CD1       -0.2130  -29.7960  -19.1210 C.ar  535  TRP535      0.0946
     73  CD2        1.6650  -29.9770  -20.3320 C.ar  535  TRP535      0.0152
     74  NE1       -0.5750  -29.9270  -20.4430 N.ar  535  TRP535     -0.2442
     75  CE2        0.5590  -30.0610  -21.2060 C.ar  535  TRP535      0.0810
     76  CE3        2.9600  -30.0850  -20.8670 C.ar  535  TRP535      0.0012
     77  CZ2        0.7100  -30.2160  -22.5910 C.ar  535  TRP535      0.0191
     78  CZ3        3.1040  -30.2510  -22.2370 C.ar  535  TRP535      0.0001
     79  CH2        1.9880  -30.3330  -23.0800 C.ar  535  TRP535      0.0015
     80  N          5.5760  -24.6110  -20.1330 N.3   552  ILE552     -0.1245
     81  CA         6.2820  -25.6380  -19.3730 C.3   552  ILE552      0.1561
     82  C          7.3280  -24.9360  -18.5340 C.2   552  ILE552      0.2260
     83  O          8.2120  -24.2850  -19.0810 O.2   552  ILE552     -0.2867
     84  CB         6.8890  -26.7870  -20.2520 C.3   552  ILE552      0.0252
     85  CG1        5.7860  -27.6170  -20.9500 C.3   552  ILE552      0.0019
     86  CG2        7.8190  -27.7070  -19.4210 C.3   552  ILE552      0.0019
     87  CD1        6.2490  -28.4060  -22.1510 C.3   552  ILE552      0.0001
     88  N         10.4620  -25.3280  -16.0900 N.3   554  LYS554     -0.1245
     89  CA        11.4890  -26.2850  -15.6880 C.3   554  LYS554      0.1561
     90  C         12.6020  -25.6340  -14.8770 C.2   554  LYS554      0.2260
     91  O         13.2430  -24.6930  -15.3510 O.2   554  LYS554     -0.2867
     92  CB        12.0390  -27.0890  -16.8900 C.3   554  LYS554      0.0271
     93  CG        13.1490  -28.0840  -16.5210 C.3   554  LYS554      0.0035
     94  CD        13.3310  -29.1800  -17.5410 C.3   554  LYS554      0.0206
     95  CE        14.5810  -29.0220  -18.3570 C.3   554  LYS554      0.1093
     96  NZ        14.7930  -30.1930  -19.2450 N.3   554  LYS554     -0.1314
     97  N         19.0590  -24.2630  -19.8060 N.3   559  LEU559     -0.1245
     98  CA        18.1970  -24.1280  -20.9910 C.3   559  LEU559      0.1561
     99  C         18.7900  -23.2990  -22.1610 C.2   559  LEU559      0.2260
    100  O         18.1220  -23.1000  -23.1860 O.2   559  LEU559     -0.2867
    101  CB        16.8260  -23.5760  -20.5380 C.3   559  LEU559      0.0270
    102  CG        15.6180  -24.5240  -20.5590 C.3   559  LEU559      0.0019
    103  CD1       15.9630  -25.9200  -20.0680 C.3   559  LEU559      0.0001
    104  CD2       14.5120  -23.9780  -19.7270 C.3   559  LEU559      0.0001
    105  N         19.4180  -25.4480  -25.5540 N.3   562  ASP562     -0.1239
    106  CA        18.0960  -25.6550  -26.1500 C.3   562  ASP562      0.1674
    107  C         17.6130  -24.3890  -26.8360 C.2   562  ASP562      0.2266
    108  O         17.2270  -24.4490  -28.0050 O.2   562  ASP562     -0.2867
    109  CB        17.0810  -26.1020  -25.0940 C.3   562  ASP562      0.1410
    110  CG        17.3630  -27.4770  -24.5570 C.2   562  ASP562      0.3668
    111  OD1       16.6710  -28.4270  -24.9770 O.co2 562  ASP562     -0.2456
    112  OD2       18.3060  -27.6130  -23.7420 O.co2 562  ASP562     -0.2456
    113  N          9.2880  -24.1730  -31.5280 N.3   588  TYR588     -0.1241
    114  CA         8.6100  -23.7930  -30.2860 C.3   588  TYR588      0.1605
    115  C          9.5440  -22.9390  -29.4310 C.2   588  TYR588      0.2264
    116  O         10.7670  -23.1140  -29.4830 O.2   588  TYR588     -0.2867
    117  CB         8.1150  -25.0440  -29.5170 C.3   588  TYR588      0.0534
    118  CG         9.2250  -25.9840  -29.1020 C.ar  588  TYR588     -0.0201
    119  CD1        9.8830  -25.8240  -27.8840 C.ar  588  TYR588     -0.0009
    120  CD2        9.6260  -27.0310  -29.9290 C.ar  588  TYR588     -0.0009
    121  CE1       10.9280  -26.6640  -27.5110 C.ar  588  TYR588      0.0417
    122  CE2       10.6670  -27.8830  -29.5620 C.ar  588  TYR588      0.0417
    123  CZ        11.3240  -27.6850  -28.3570 C.ar  588  TYR588      0.1957
    124  OH        12.3470  -28.5090  -27.9760 O.3   588  TYR588     -0.2866
    125  N         11.5140  -21.3300  -26.2260 N.3   590  CYS590     -0.1235
    126  CA        12.3190  -21.8360  -25.1210 C.3   590  CYS590      0.1677
    127  C         13.1180  -20.6760  -24.5980 C.2   590  CYS590      0.2270
    128  O         14.0530  -20.2350  -25.2600 O.2   590  CYS590     -0.2867
    129  CB        13.2240  -22.9820  -25.5660 C.3   590  CYS590      0.0956
    130  SG        14.1750  -23.7310  -24.2210 S.3   590  CYS590     -0.0801
    131  N          9.2250  -23.2270  -21.5600 N.3   600  ILE600     -0.1231
    132  CA         9.1830  -23.9110  -22.8540 C.3   600  ILE600      0.1692
    133  C          7.7300  -23.8370  -23.3640 C.2   600  ILE600      0.2592
    134  O          6.8000  -24.1460  -22.6120 O.2   600  ILE600     -0.2718
    135  CB         9.7280  -25.3780  -22.7720 C.3   600  ILE600      0.0266
    136  CG1       11.1060  -25.4670  -22.0700 C.3   600  ILE600      0.0019
    137  CG2        9.8360  -25.9940  -24.1540 C.3   600  ILE600      0.0020
    138  CD1       11.1320  -26.2910  -20.7770 C.3   600  ILE600      0.0001
    139  N          7.5350  -23.3920  -24.6170 N.am  601  GLU601     -0.1966
    140  CA         6.2090  -23.2560  -25.2280 C.3   601  GLU601      0.1733
    141  C          5.5680  -24.6330  -25.4630 C.2   601  GLU601      0.2616
    142  O          6.2350  -25.5470  -25.9500 O.2   601  GLU601     -0.2715
    143  CB         6.3010  -22.4650  -26.5510 C.3   601  GLU601      0.0429
    144  CG         4.9590  -22.0630  -27.1500 C.3   601  GLU601      0.1163
    145  CD         4.9630  -21.6580  -28.6130 C.2   601  GLU601      0.3649
    146  OE1        5.9830  -21.1040  -29.0840 O.co2 601  GLU601     -0.2457
    147  OE2        3.9270  -21.8690  -29.2840 O.co2 601  GLU601     -0.2457
    148  N          4.2810  -24.7720  -25.1120 N.am  602  VAL602     -0.1963
    149  CA         3.5380  -26.0110  -25.3110 C.3   602  VAL602      0.1727
    150  C          3.0310  -26.0530  -26.7590 C.2   602  VAL602      0.2616
    151  O          2.3980  -25.1010  -27.2270 O.2   602  VAL602     -0.2715
    152  CB         2.3920  -26.1720  -24.2680 C.3   602  VAL602      0.0290
    153  CG1        1.3170  -27.1540  -24.7200 C.3   602  VAL602      0.0023
    154  CG2        2.9390  -26.5750  -22.9120 C.3   602  VAL602      0.0023
    155  N          3.3300  -27.1530  -27.4710 N.am  603  VAL603     -0.1977
    156  CA         2.8160  -27.3510  -28.8180 C.3   603  VAL603      0.1596
    157  C          1.5670  -28.1900  -28.5900 C.2   603  VAL603      0.2287
    158  O          1.6760  -29.3600  -28.2210 O.2   603  VAL603     -0.2864
    159  CB         3.8150  -28.0200  -29.8020 C.3   603  VAL603      0.0276
    160  CG1        3.2000  -28.1620  -31.1940 C.3   603  VAL603      0.0022
    161  CG2        5.1180  -27.2380  -29.8780 C.3   603  VAL603      0.0022
    162  N         -0.1990  -32.4400  -30.0300 N.3   606  SER606     -0.1202
    163  CA         1.0080  -33.2060  -30.3310 C.3   606  SER606      0.2020
    164  C          1.1970  -34.3270  -29.3010 C.2   606  SER606      0.2619
    165  O          0.6580  -34.2530  -28.1940 O.2   606  SER606     -0.2717
    166  CB         2.2360  -32.2950  -30.4320 C.3   606  SER606      0.2103
    167  OG         2.8720  -32.0240  -29.1940 O.3   606  SER606     -0.2182
    168  N          1.9230  -35.3750  -29.6930 N.am  607  ASP607     -0.1959
    169  CA         2.2390  -36.5480  -28.8750 C.3   607  ASP607      0.1840
    170  C          3.6450  -37.0300  -29.2770 C.2   607  ASP607      0.2622
    171  O          4.1630  -36.5670  -30.2910 O.2   607  ASP607     -0.2715
    172  CB         1.1890  -37.6540  -29.1160 C.3   607  ASP607      0.1450
    173  CG         0.8530  -38.5280  -27.9150 C.2   607  ASP607      0.3671
    174  OD1        1.6810  -38.5980  -26.9760 O.co2 607  ASP607     -0.2456
    175  OD2       -0.2300  -39.1650  -27.9260 O.co2 607  ASP607     -0.2456
    176  N          4.2740  -37.9200  -28.4860 N.am  608  THR608     -0.1951
    177  CA         5.6020  -38.4610  -28.8250 C.3   608  THR608      0.1897
    178  C          5.4780  -39.7470  -29.6410 C.2   608  THR608      0.2313
    179  O          4.5410  -40.5270  -29.4350 O.2   608  THR608     -0.2863
    180  CB         6.4500  -38.7430  -27.5700 C.3   608  THR608      0.1794
    181  OG1        5.6960  -39.5450  -26.6610 O.3   608  THR608     -0.2208
    182  CG2        6.9680  -37.4740  -26.8920 C.3   608  THR608      0.0378
    183  N          4.9340  -42.7980  -27.4020 N.3   611  ASN611     -0.1240
    184  CA         3.5660  -43.0520  -26.9310 C.3   611  ASN611      0.1653
    185  C          2.6520  -43.5780  -28.0380 C.2   611  ASN611      0.2266
    186  O          1.7030  -44.2950  -27.7460 O.2   611  ASN611     -0.2867
    187  CB         2.9570  -41.8120  -26.2340 C.3   611  ASN611      0.1155
    188  CG         3.6230  -41.3620  -24.9370 C.2   611  ASN611      0.2627
    189  OD1        3.5570  -40.1850  -24.5610 O.2   611  ASN611     -0.2716
    190  ND2        4.2600  -42.2730  -24.2020 N.am  611  ASN611     -0.0877
    191  N         11.3430  -41.0030  -27.7800 N.3   665  ASP665     -0.1239
    192  CA        10.8540  -40.1840  -26.6670 C.3   665  ASP665      0.1674
    193  C         11.0820  -38.6820  -26.8210 C.2   665  ASP665      0.2266
    194  O         10.3560  -37.9050  -26.1940 O.2   665  ASP665     -0.2867
    195  CB        11.3960  -40.6980  -25.3200 C.3   665  ASP665      0.1410
    196  CG        10.6520  -40.1780  -24.1120 C.2   665  ASP665      0.3668
    197  OD1        9.6590  -39.4750  -24.2180 O.co2 665  ASP665     -0.2456
    198  OD2       10.9850  -40.5860  -22.9970 O.co2 665  ASP665     -0.2456
    199  N          8.4550  -35.7610  -31.5640 N.3   668  MET668     -0.1245
    200  CA         7.0130  -35.5900  -31.4980 C.3   668  MET668      0.1570
    201  C          6.3970  -35.3700  -32.8610 C.2   668  MET668      0.2261
    202  O          7.0780  -34.9340  -33.7860 O.2   668  MET668     -0.2867
    203  CB         6.6750  -34.3840  -30.6120 C.3   668  MET668      0.0387
    204  CG         7.2090  -34.4880  -29.2080 C.3   668  MET668      0.0595
    205  SD         6.4130  -33.2930  -28.1360 S.3   668  MET668     -0.1393
    206  CE         4.9520  -34.1840  -27.7250 C.3   668  MET668      0.0692
    207  N          8.4520  -32.8720  -35.2130 N.3   676  PHE676     -0.1241
    208  CA         9.4060  -31.9390  -34.6290 C.3   676  PHE676      0.1605
    209  C         10.2220  -32.5710  -33.5150 C.2   676  PHE676      0.2264
    210  O          9.8350  -33.6070  -32.9630 O.2   676  PHE676     -0.2867
    211  CB         8.7560  -30.6000  -34.2330 C.3   676  PHE676      0.0534
    212  CG         7.8780  -30.6140  -33.0130 C.ar  676  PHE676     -0.0203
    213  CD1        8.3480  -30.1400  -31.7950 C.ar  676  PHE676     -0.0042
    214  CD2        6.5650  -31.0620  -33.0870 C.ar  676  PHE676     -0.0042
    215  CE1        7.5270  -30.1310  -30.6720 C.ar  676  PHE676     -0.0003
    216  CE2        5.7520  -31.0790  -31.9540 C.ar  676  PHE676     -0.0003
    217  CZ         6.2390  -30.6200  -30.7550 C.ar  676  PHE676     -0.0000
    218  N         12.4490  -32.3010  -29.7890 N.3   678  ILE678     -0.1231
    219  CA        12.4880  -31.7230  -28.4450 C.3   678  ILE678      0.1692
    220  C         13.7660  -32.1900  -27.7220 C.2   678  ILE678      0.2592
    221  O         14.4230  -33.1290  -28.1910 O.2   678  ILE678     -0.2718
    222  CB        11.1960  -32.0180  -27.6080 C.3   678  ILE678      0.0266
    223  CG1       11.0100  -33.5270  -27.2970 C.3   678  ILE678      0.0019
    224  CG2        9.9410  -31.3730  -28.2240 C.3   678  ILE678      0.0020
    225  CD1       10.1520  -33.8760  -26.0840 C.3   678  ILE678      0.0001
    226  N         14.0910  -31.5420  -26.5710 N.am  679  ASP679     -0.1974
    227  CA        15.2490  -31.8170  -25.7060 C.3   679  ASP679      0.1709
    228  C         16.5780  -31.8890  -26.4600 C.2   679  ASP679      0.2293
    229  O         17.0740  -32.9790  -26.7510 O.2   679  ASP679     -0.2864
    230  CB        15.0210  -33.0630  -24.8290 C.3   679  ASP679      0.1436
    231  CG        13.9810  -32.8660  -23.7530 C.2   679  ASP679      0.3671
    232  OD1       14.2850  -32.1750  -22.7560 O.co2 679  ASP679     -0.2456
    233  OD2       12.8730  -33.4350  -23.8870 O.co2 679  ASP679     -0.2456
@<TRIPOS>BOND
     1   207   208    1
     2   208   211    1
     3   208   209    1
     4   211   212    1
     5   202   201    2
     6   209   210    2
     7   214   212   ar
     8   214   216   ar
     9   212   213   ar
    10   201   200    1
    11   216   217   ar
    12   213   215   ar
    13   199   200    1
    14   113   114    1
    15   200   203    1
    16   160   159    1
    17   217   215   ar
    18   203   204    1
    19   166   163    1
    20   166   167    1
    21   163   162    1
    22   163   164    1
    23   171   170    2
    24   114   117    1
    25   114   115    1
    26   120   122   ar
    27   120   118   ar
    28   161   159    1
    29   159   156    1
    30   218   219    1
    31   168   164   am
    32   168   169    1
    33   178   179    2
    34   178   177    1
    35   122   123   ar
    36   117   118    1
    37   116   115    2
    38   164   165    2
    39   147   145   ar
    40   170   169    1
    41   170   176   am
    42   204   205    1
    43   172   169    1
    44   172   173    1
    45   118   119   ar
    46   146   145   ar
    47   177   176    1
    48   177   180    1
    49   156   157    1
    50   156   155    1
    51   145   144    1
    52   157   158    2
    53   219   220    1
    54   219   222    1
    55   123   124    1
    56   123   121   ar
    57   224   222    1
    58   221   220    2
    59   205   206    1
    60   185   186    2
    61   185   184    1
    62   108   107    2
    63   175   173   ar
    64   173   174   ar
    65   119   121   ar
    66   191   192    1
    67   220   226   am
    68   222   223    1
    69   180   182    1
    70   180   181    1
    71   155   150   am
    72   183   184    1
    73   223   225    1
    74   151   150    2
    75   144   143    1
    76   184   187    1
    77   107   106    1
    78   193   192    1
    79   193   194    2
    80   150   149    1
    81   229   228    2
    82   192   195    1
    83   226   227    1
    84   143   140    1
    85   228   227    1
    86   187   188    1
    87   125   126    1
    88   106   105    1
    89   106   109    1
    90   142   141    2
    91   227   230    1
    92   129   126    1
    93   129   130    1
    94   141   140    1
    95   141   148   am
    96   195   196    1
    97   149   148    1
    98   149   152    1
    99   128   127    2
   100   140   139    1
   101   126   127    1
   102   109   110    1
   103   111   110   ar
   104   188   189    2
   105   188   190   am
   106   230   231    1
   107   153   152    1
   108   139   133   am
   109   110   112   ar
   110   152   154    1
   111   197   196   ar
   112   137   135    1
   113   196   198   ar
   114   233   231   ar
   115   231   232   ar
   116   133   132    1
   117   133   134    2
   118   100    99    2
   119    79    77   ar
   120    79    78   ar
   121   132   135    1
   122   132   131    1
   123   135   136    1
   124    77    75   ar
   125    78    76   ar
   126    99    98    1
   127    87    85    1
   128   136   138    1
   129    75    74   ar
   130    75    73   ar
   131    98   101    1
   132    98    97    1
   133    85    84    1
   134    76    73   ar
   135    44    43    1
   136   102   101    1
   137   102   103    1
   138   102   104    1
   139    74    72   ar
   140    73    71   ar
   141    84    86    1
   142    84    81    1
   143    80    81    1
   144    43    42    1
   145    81    82    1
   146    96    95    1
   147    72    71   ar
   148    83    82    2
   149    71    70    1
   150    17    16    2
   151    18    16   am
   152    16    15    1
   153    42    41    1
   154    95    94    1
   155    15    14    1
   156    14    11    1
   157    70    67    1
   158    58    57    1
   159    94    93    1
   160    41    38    1
   161    67    68    1
   162    67    66    1
   163    57    54    1
   164    13    12    2
   165    68    69    2
   166    92    93    1
   167    92    89    1
   168    11    12    1
   169    11    10    1
   170    64    63    1
   171    64    65    1
   172    63    60    1
   173    38    39    1
   174    38    37    1
   175    54    53    1
   176    54    55    1
   177    25    23    1
   178    53    47   am
   179    88    89    1
   180    45    39   am
   181    45    46    1
   182    52    50   ar
   183    89    90    1
   184    49    46    1
   185    49    50    1
   186    39    40    2
   187    37    28   am
   188    65    59    1
   189    91    90    2
   190    47    46    1
   191    47    48    2
   192    50    51   ar
   193    60    61    1
   194    60    59    1
   195    55    56    2
   196    61    62    2
   197     9     8    1
   198    28    29    2
   199    28    27    1
   200    23    24    1
   201    23    20    1
   202    19    20    1
   203    22    21    2
   204    21    20    1
   205    21    26   am
   206    27    26    1
   207    27    30    1
   208     8     7    1
   209     7     6    1
   210    30    31    1
   211    31    32   ar
   212    31    33   ar
   213    32    34   ar
   214     6     5    1
   215    33    35   ar
   216    34    36   ar
   217     5     2    1
   218    35    36   ar
   219     2     3    1
   220     2     1    1
   221     3     4    2
