@<TRIPOS>MOLECULE
tmp/5is7A01.pdb
 220 213 0 0 0
SMALL
GASTEIGER

@<TRIPOS>ATOM
      1  N         49.5220   44.1060  117.8430 N.3     3  PHE3       -0.1241
      2  CA        48.8100   42.9600  118.3940 C.3     3  PHE3        0.1605
      3  C         47.5100   42.6940  117.6390 C.2     3  PHE3        0.2264
      4  O         47.2050   41.5520  117.2980 O.2     3  PHE3       -0.2867
      5  CB        48.5100   43.1780  119.8780 C.3     3  PHE3        0.0534
      6  CG        47.7960   42.0240  120.5240 C.ar    3  PHE3       -0.0203
      7  CD1       48.5100   40.9720  121.0760 C.ar    3  PHE3       -0.0042
      8  CD2       46.4120   41.9870  120.5750 C.ar    3  PHE3       -0.0042
      9  CE1       47.8560   39.9090  121.6680 C.ar    3  PHE3       -0.0003
     10  CE2       45.7530   40.9260  121.1660 C.ar    3  PHE3       -0.0003
     11  CZ        46.4770   39.8860  121.7130 C.ar    3  PHE3       -0.0000
     12  N         41.0140   34.8310  124.9920 N.3    15  TYR15      -0.1227
     13  CA        42.3480   34.7380  125.5740 C.3    15  TYR15       0.1736
     14  C         42.4600   35.5480  126.8660 C.2    15  TYR15       0.2595
     15  O         42.9410   35.0430  127.8810 O.2    15  TYR15      -0.2718
     16  CB        43.3920   35.2150  124.5590 C.3    15  TYR15       0.0548
     17  CG        44.8240   35.1500  125.0430 C.ar   15  TYR15      -0.0200
     18  CD1       45.5630   33.9780  124.9350 C.ar   15  TYR15      -0.0009
     19  CD2       45.4440   36.2650  125.5890 C.ar   15  TYR15      -0.0009
     20  CE1       46.8760   33.9180  125.3680 C.ar   15  TYR15       0.0417
     21  CE2       46.7560   36.2140  126.0250 C.ar   15  TYR15       0.0417
     22  CZ        47.4670   35.0390  125.9100 C.ar   15  TYR15       0.1957
     23  OH        48.7720   34.9870  126.3450 O.3    15  TYR15      -0.2866
     24  N         42.0070   36.7970  126.8310 N.am   16  PHE16      -0.1976
     25  CA        42.1470   37.6870  127.9810 C.3    16  PHE16       0.1639
     26  C         41.0560   37.4620  129.0310 C.2    16  PHE16       0.2290
     27  O         41.2460   37.7900  130.2020 O.2    16  PHE16      -0.2864
     28  CB        42.1470   39.1480  127.5220 C.3    16  PHE16       0.0560
     29  CG        43.3700   39.5300  126.7330 C.ar   16  PHE16      -0.0200
     30  CD1       44.6210   39.5260  127.3280 C.ar   16  PHE16      -0.0042
     31  CD2       43.2700   39.8920  125.3990 C.ar   16  PHE16      -0.0042
     32  CE1       45.7510   39.8730  126.6070 C.ar   16  PHE16      -0.0003
     33  CE2       44.3960   40.2410  124.6740 C.ar   16  PHE16      -0.0003
     34  CZ        45.6370   40.2320  125.2790 C.ar   16  PHE16      -0.0000
     35  N         42.4020   34.7150  131.2540 N.3    19  TYR19      -0.1241
     36  CA        43.4320   35.1590  132.1860 C.3    19  TYR19       0.1605
     37  C         42.9100   36.1470  133.2280 C.2    19  TYR19       0.2264
     38  O         43.6530   36.5690  134.1140 O.2    19  TYR19      -0.2867
     39  CB        44.5930   35.7890  131.4180 C.3    19  TYR19       0.0534
     40  CG        45.5470   34.7720  130.8420 C.ar   19  TYR19      -0.0201
     41  CD1       46.3220   33.9780  131.6760 C.ar   19  TYR19      -0.0009
     42  CD2       45.6800   34.6080  129.4700 C.ar   19  TYR19      -0.0009
     43  CE1       47.1970   33.0520  131.1650 C.ar   19  TYR19       0.0417
     44  CE2       46.5580   33.6770  128.9470 C.ar   19  TYR19       0.0417
     45  CZ        47.3130   32.9020  129.8010 C.ar   19  TYR19       0.1957
     46  OH        48.1900   31.9730  129.2940 O.3    19  TYR19      -0.2866
     47  N         45.5580   32.1420  137.7600 N.3    25  GLN25      -0.1245
     48  CA        46.7640   32.6740  138.3830 C.3    25  GLN25       0.1566
     49  C         47.2300   31.7430  139.4960 C.2    25  GLN25       0.2260
     50  O         48.4230   31.4730  139.6340 O.2    25  GLN25      -0.2867
     51  CB        46.5140   34.0800  138.9340 C.3    25  GLN25       0.0367
     52  CG        46.3150   35.1360  137.8600 C.3    25  GLN25       0.0905
     53  CD        47.5640   35.3570  137.0290 C.2    25  GLN25       0.2608
     54  OE1       48.6830   35.2930  137.5410 O.2    25  GLN25      -0.2717
     55  NE2       47.3790   35.6120  135.7380 N.am   25  GLN25      -0.0878
     56  N         48.9610   28.6170  138.2170 N.3    28  MET28      -0.1245
     57  CA        50.3110   28.9010  137.7430 C.3    28  MET28       0.1570
     58  C         51.2530   29.1640  138.9070 C.2    28  MET28       0.2261
     59  O         52.3970   28.7120  138.9060 O.2    28  MET28      -0.2867
     60  CB        50.3000   30.0980  136.7910 C.3    28  MET28       0.0387
     61  CG        49.8170   29.7400  135.4040 C.3    28  MET28       0.0595
     62  SD        49.4790   31.1460  134.3290 S.3    28  MET28      -0.1393
     63  CE        48.7630   30.2520  132.9530 C.3    28  MET28       0.0692
     64  N         58.0730   26.7900  138.4730 N.3    34  ARG34      -0.1245
     65  CA        57.8660   28.0820  137.8280 C.3    34  ARG34       0.1563
     66  C         58.1260   29.2380  138.7910 C.2    34  ARG34       0.2260
     67  O         59.0330   30.0430  138.5800 O.2    34  ARG34      -0.2867
     68  CB        56.4380   28.1580  137.2820 C.3    34  ARG34       0.0307
     69  CG        55.9910   29.5120  136.7340 C.3    34  ARG34       0.0489
     70  CD        54.4760   29.5130  136.6320 C.3    34  ARG34       0.2205
     71  NE        53.9190   30.6310  135.8730 N.pl3  34  ARG34      -0.0865
     72  CZ        53.5120   31.7830  136.4010 C.cat  34  ARG34       0.5346
     73  NH1       53.6070   32.0060  137.7070 N.pl3  34  ARG34       0.1354
     74  NH2       53.0060   32.7210  135.6130 N.pl3  34  ARG34       0.1354
     75  N         56.0910   42.4260  131.4730 N.3    57  VAL57      -0.1231
     76  CA        55.1200   42.2290  130.4030 C.3    57  VAL57       0.1692
     77  C         54.1510   41.1180  130.7810 C.2    57  VAL57       0.2592
     78  O         54.5620   39.9830  131.0250 O.2    57  VAL57      -0.2718
     79  CB        55.8190   41.9070  129.0720 C.3    57  VAL57       0.0266
     80  CG1       54.8000   41.8190  127.9410 C.3    57  VAL57       0.0020
     81  CG2       56.8800   42.9540  128.7620 C.3    57  VAL57       0.0020
     82  N         52.8610   41.4430  130.8160 N.am   58  GLY58      -0.1957
     83  CA        51.8500   40.4810  131.2090 C.3    58  GLY58       0.1869
     84  C         52.0610   40.0230  132.6390 C.2    58  GLY58       0.2309
     85  O         52.2220   38.8340  132.9090 O.2    58  GLY58      -0.2863
     86  N         50.2420   39.6120  135.0850 N.3    60  GLY60      -0.1225
     87  CA        49.2010   38.8330  135.7320 C.3    60  GLY60       0.1811
     88  C         48.8560   39.3970  137.0980 C.2    60  GLY60       0.2280
     89  O         48.5410   40.5810  137.2260 O.2    60  GLY60      -0.2866
     90  N         52.7160   45.7550  133.2140 N.3    79  VAL79      -0.1231
     91  CA        51.6900   45.8850  132.1860 C.3    79  VAL79       0.1692
     92  C         50.8300   44.6240  132.1160 C.2    79  VAL79       0.2592
     93  O         51.3480   43.5080  132.0800 O.2    79  VAL79      -0.2718
     94  CB        52.3280   46.1880  130.8130 C.3    79  VAL79       0.0266
     95  CG1       51.2550   46.3720  129.7460 C.3    79  VAL79       0.0020
     96  CG2       53.2120   47.4270  130.8980 C.3    79  VAL79       0.0020
     97  N         49.5140   44.8160  132.0920 N.am   80  GLU80      -0.1966
     98  CA        48.5640   43.7090  132.0120 C.3    80  GLU80       0.1733
     99  C         47.3240   44.1280  131.2300 C.2    80  GLU80       0.2616
    100  O         46.7250   45.1640  131.5140 O.2    80  GLU80      -0.2715
    101  CB        48.1660   43.2360  133.4120 C.3    80  GLU80       0.0429
    102  CG        47.1310   42.1200  133.4200 C.3    80  GLU80       0.1163
    103  CD        47.6130   40.8780  132.7000 C.2    80  GLU80       0.3649
    104  OE1       48.7790   40.4800  132.9110 O.co2  80  GLU80      -0.2457
    105  OE2       46.8280   40.3030  131.9190 O.co2  80  GLU80      -0.2457
    106  N         46.9330   43.3110  130.2570 N.am   81  ALA81      -0.1963
    107  CA        45.8450   43.6670  129.3500 C.3    81  ALA81       0.1728
    108  C         44.4900   43.1200  129.8000 C.2    81  ALA81       0.2616
    109  O         43.4490   43.5990  129.3510 O.2    81  ALA81      -0.2715
    110  CB        46.1620   43.1770  127.9480 C.3    81  ALA81       0.0334
    111  N         44.4970   42.1200  130.6750 N.am   82  SER82      -0.1950
    112  CA        43.2500   41.5330  131.1570 C.3    82  SER82       0.1924
    113  C         42.7150   42.3190  132.3510 C.2    82  SER82       0.2314
    114  O         43.3000   43.3240  132.7540 O.2    82  SER82      -0.2863
    115  CB        43.4550   40.0650  131.5400 C.3    82  SER82       0.2116
    116  OG        44.2230   39.9440  132.7260 O.3    82  SER82      -0.2180
    117  N         46.5020   47.5640  129.9210 N.3   106  GLY106     -0.1210
    118  CA        46.5480   47.6600  128.4760 C.3   106  GLY106      0.1956
    119  C         47.4860   46.6400  127.8670 C.2   106  GLY106      0.2612
    120  O         48.1590   45.8910  128.5780 O.2   106  GLY106     -0.2717
    121  N         47.5280   46.6110  126.5410 N.am  107  LYS107     -0.1965
    122  CA        48.4170   45.7120  125.8220 C.3   107  LYS107      0.1728
    123  C         49.7500   46.4110  125.5890 C.2   107  LYS107      0.2616
    124  O         49.7900   47.5940  125.2510 O.2   107  LYS107     -0.2715
    125  CB        47.7790   45.2760  124.5040 C.3   107  LYS107      0.0311
    126  CG        46.4490   44.5600  124.7030 C.3   107  LYS107      0.0038
    127  CD        45.6260   44.4910  123.4310 C.3   107  LYS107      0.0206
    128  CE        44.2160   44.0020  123.7320 C.3   107  LYS107      0.1093
    129  NZ        43.3510   43.9550  122.5220 N.3   107  LYS107     -0.1314
    130  N         50.8410   45.6760  125.7800 N.am  108  VAL108     -0.1963
    131  CA        52.1770   46.2570  125.7340 C.3   108  VAL108      0.1727
    132  C         52.4560   46.8830  124.3700 C.2   108  VAL108      0.2616
    133  O         53.3490   47.7190  124.2360 O.2   108  VAL108     -0.2715
    134  CB        53.2470   45.2030  126.0840 C.3   108  VAL108      0.0290
    135  CG1       53.3040   44.1090  125.0210 C.3   108  VAL108      0.0023
    136  CG2       54.6070   45.8620  126.2730 C.3   108  VAL108      0.0023
    137  N         51.6920   46.4820  123.3590 N.am  109  GLU109     -0.1977
    138  CA        51.8450   47.0450  122.0230 C.3   109  GLU109      0.1602
    139  C         51.1570   48.4050  121.8940 C.2   109  GLU109      0.2287
    140  O         51.3100   49.0840  120.8790 O.2   109  GLU109     -0.2864
    141  CB        51.2810   46.0870  120.9660 C.3   109  GLU109      0.0415
    142  CG        52.0500   44.7810  120.8140 C.3   109  GLU109      0.1163
    143  CD        51.7000   43.7590  121.8790 C.2   109  GLU109      0.3649
    144  OE1       50.9460   44.1030  122.8130 O.co2 109  GLU109     -0.2457
    145  OE2       52.1770   42.6080  121.7770 O.co2 109  GLU109     -0.2457
    146  N         56.8270   35.9630  131.6580 N.3   123  GLU123     -0.1231
    147  CA        56.7210   34.5110  131.5920 C.3   123  GLU123      0.1684
    148  C         55.8050   34.1450  130.4290 C.2   123  GLU123      0.2434
    149  O         54.6860   33.6830  130.6340 O.2   123  GLU123     -0.2733
    150  CB        56.2010   33.9390  132.9140 C.3   123  GLU123      0.0402
    151  CG        54.9960   34.6700  133.4980 C.3   123  GLU123      0.1161
    152  CD        55.0000   34.6750  135.0150 C.2   123  GLU123      0.3649
    153  OE1       55.5990   33.7540  135.6140 O.co2 123  GLU123     -0.2457
    154  OE2       54.4020   35.6010  135.6080 O.co2 123  GLU123     -0.2457
    155  N         56.2870   34.3630  129.1950 N.am  124  PRO124     -0.2718
    156  CA        55.4790   34.2240  127.9800 C.3   124  PRO124      0.1535
    157  C         55.4390   32.8110  127.4040 C.2   124  PRO124      0.2598
    158  O         54.7740   32.5920  126.3920 O.2   124  PRO124     -0.2715
    159  CB        56.1820   35.1700  127.0100 C.3   124  PRO124      0.0310
    160  CG        57.6230   35.0300  127.3820 C.3   124  PRO124      0.0237
    161  CD        57.6510   34.8270  128.8790 C.3   124  PRO124      0.0939
    162  N         56.1390   31.8730  128.0320 N.am  125  MET125     -0.1964
    163  CA        56.2420   30.5180  127.4980 C.3   125  MET125      0.1736
    164  C         54.9060   29.7830  127.5620 C.2   125  MET125      0.2617
    165  O         54.2910   29.6870  128.6230 O.2   125  MET125     -0.2715
    166  CB        57.3060   29.7200  128.2600 C.3   125  MET125      0.0427
    167  CG        58.6900   30.3610  128.2640 C.3   125  MET125      0.0599
    168  SD        58.9640   31.4640  129.6660 S.3   125  MET125     -0.1393
    169  CE        59.3230   30.2770  130.9580 C.3   125  MET125      0.0692
    170  N         54.4650   29.2670  126.4170 N.am  126  GLY126     -0.1955
    171  CA        53.2920   28.4110  126.3570 C.3   126  GLY126      0.1869
    172  C         53.6770   26.9710  126.0670 C.2   126  GLY126      0.2309
    173  O         54.8330   26.5860  126.2520 O.2   126  GLY126     -0.2863
    174  N         50.4260   30.5500  122.2440 N.3   132  GLU132     -0.1245
    175  CA        49.9260   31.8410  122.7420 C.3   132  GLU132      0.1567
    176  C         50.5990   33.0120  122.0240 C.2   132  GLU132      0.2260
    177  O         50.1050   34.1390  122.0690 O.2   132  GLU132     -0.2867
    178  CB        50.1140   31.9850  124.2600 C.3   132  GLU132      0.0388
    179  CG        49.4910   30.8540  125.0730 C.3   132  GLU132      0.1160
    180  CD        49.5670   31.0950  126.5680 C.2   132  GLU132      0.3649
    181  OE1       49.6230   32.2760  126.9840 O.co2 132  GLU132     -0.2457
    182  OE2       49.5780   30.1040  127.3270 O.co2 132  GLU132     -0.2457
    183  N         52.8440   34.8150  122.7720 N.3   134  MET134     -0.1245
    184  CA        53.1240   35.9350  123.6590 C.3   134  MET134      0.1570
    185  C         54.5880   36.3380  123.5840 C.2   134  MET134      0.2261
    186  O         54.9580   37.4380  123.9950 O.2   134  MET134     -0.2867
    187  CB        52.7580   35.5920  125.1000 C.3   134  MET134      0.0387
    188  CG        52.8470   36.7800  126.0270 C.3   134  MET134      0.0595
    189  SD        52.5010   36.3470  127.7290 S.3   134  MET134     -0.1393
    190  CE        52.8660   37.9030  128.5360 C.3   134  MET134      0.0692
    191  N         54.9890   39.6440  121.9660 N.3   137  SER137     -0.1217
    192  CA        54.7570   40.8100  122.8140 C.3   137  SER137      0.1889
    193  C         56.0160   41.0950  123.6240 C.2   137  SER137      0.2288
    194  O         56.4270   42.2420  123.7870 O.2   137  SER137     -0.2866
    195  CB        53.5680   40.5840  123.7500 C.3   137  SER137      0.2089
    196  OG        52.3840   40.3210  123.0190 O.3   137  SER137     -0.2183
    197  N         53.5000   22.5320  134.8110 N.3   280  HIS280     -0.1226
    198  CA        52.1810   22.6790  134.2050 C.3   280  HIS280      0.1752
    199  C         52.2750   22.7480  132.6810 C.2   280  HIS280      0.2596
    200  O         51.2560   22.7380  131.9920 O.2   280  HIS280     -0.2718
    201  CB        51.4720   23.9210  134.7520 C.3   280  HIS280      0.0759
    202  CG        52.0710   25.2140  134.2940 C.ar  280  HIS280      0.0818
    203  ND1       53.2490   25.7120  134.8070 N.ar  280  HIS280     -0.2268
    204  CD2       51.6480   26.1160  133.3780 C.ar  280  HIS280      0.1154
    205  CE1       53.5300   26.8620  134.2210 C.ar  280  HIS280      0.1986
    206  NE2       52.5740   27.1310  133.3500 N.ar  280  HIS280     -0.2212
    207  N         53.4970   22.8180  132.1560 N.am  281  TRP281     -0.1976
    208  CA        53.7100   22.7820  130.7130 C.3   281  TRP281      0.1640
    209  C         53.7520   21.3430  130.2090 C.2   281  TRP281      0.2290
    210  O         53.5590   21.0940  129.0190 O.2   281  TRP281     -0.2864
    211  CB        55.0100   23.4950  130.3290 C.3   281  TRP281      0.0576
    212  CG        54.9510   24.9950  130.4030 C.ar  281  TRP281      0.0006
    213  CD1       54.3400   25.8360  129.5190 C.ar  281  TRP281      0.0946
    214  CD2       55.5480   25.8300  131.4030 C.ar  281  TRP281      0.0152
    215  NE1       54.5120   27.1420  129.9120 N.ar  281  TRP281     -0.2442
    216  CE2       55.2500   27.1640  131.0660 C.ar  281  TRP281      0.0810
    217  CE3       56.3030   25.5780  132.5530 C.ar  281  TRP281      0.0012
    218  CZ2       55.6800   28.2420  131.8350 C.ar  281  TRP281      0.0191
    219  CZ3       56.7270   26.6490  133.3170 C.ar  281  TRP281      0.0001
    220  CH2       56.4150   27.9640  132.9550 C.ar  281  TRP281      0.0015
@<TRIPOS>BOND
     1     4     3    2
     2     3     2    1
     3     1     2    1
     4     2     5    1
     5     5     6    1
     6     6     8   ar
     7     6     7   ar
     8     8    10   ar
     9   142   141    1
    10   142   143    1
    11   140   139    2
    12   141   138    1
    13     7     9   ar
    14    10    11   ar
    15     9    11   ar
    16   145   143   ar
    17   143   144   ar
    18   139   138    1
    19   191   192    1
    20   138   137    1
    21   176   177    2
    22   176   175    1
    23   174   175    1
    24   129   128    1
    25   175   178    1
    26   183   184    1
    27   192   193    1
    28   192   195    1
    29   196   195    1
    30   137   132   am
    31   127   128    1
    32   127   126    1
    33   185   184    1
    34   185   186    2
    35   193   194    2
    36   184   187    1
    37   133   132    2
    38   178   179    1
    39   132   131    1
    40   125   126    1
    41   125   122    1
    42    16    17    1
    43    16    13    1
    44    33    34   ar
    45    33    31   ar
    46    18    17   ar
    47    18    20   ar
    48    12    13    1
    49   135   134    1
    50    17    19   ar
    51   179   180    1
    52   187   188    1
    53   124   123    2
    54    34    32   ar
    55    20    22   ar
    56    31    29   ar
    57    13    14    1
    58    19    21   ar
    59   123   130   am
    60   123   122    1
    61   131   130    1
    62   131   134    1
    63   122   121    1
    64    22    21   ar
    65    22    23    1
    66   188   189    1
    67   172   173    2
    68   172   171    1
    69   134   136    1
    70   171   170    1
    71   158   157    2
    72   170   164   am
    73   121   119   am
    74   180   181   ar
    75   180   182   ar
    76    32    30   ar
    77    29    30   ar
    78    29    28    1
    79    24    14   am
    80    24    25    1
    81    14    15    2
    82   159   160    1
    83   159   156    1
    84   160   161    1
    85   157   156    1
    86   157   162   am
    87   163   164    1
    88   163   162    1
    89   163   166    1
    90    28    25    1
    91   164   165    2
    92   189   190    1
    93   119   118    1
    94   119   120    2
    95    80    79    1
    96   110   107    1
    97   156   155    1
    98    25    26    1
    99   166   167    1
   100   167   168    1
   101   118   117    1
   102    81    79    1
   103   161   155    1
   104    44    42   ar
   105    44    45   ar
   106   210   209    2
   107    26    27    2
   108    79    76    1
   109   155   148   am
   110    46    45    1
   111   107   108    1
   112   107   106    1
   113   109   108    2
   114    42    40   ar
   115   213   215   ar
   116   213   212   ar
   117   168   169    1
   118    95    94    1
   119   108   111   am
   120    45    43   ar
   121   215   216   ar
   122   209   208    1
   123   106    99   am
   124   211   212    1
   125   211   208    1
   126   212   214   ar
   127    76    77    1
   128    76    75    1
   129   148   149    2
   130   148   147    1
   131   111   112    1
   132   208   207    1
   133    77    82   am
   134    77    78    2
   135    94    96    1
   136    94    91    1
   137    82    83    1
   138    40    39    1
   139    40    41   ar
   140   216   214   ar
   141   216   218   ar
   142   112   115    1
   143   112   113    1
   144    43    41   ar
   145    83    84    1
   146    99   100    2
   147    99    98    1
   148    35    36    1
   149   214   217   ar
   150    39    36    1
   151   115   116    1
   152   147   146    1
   153   147   150    1
   154   218   220   ar
   155   105   103   ar
   156   200   199    2
   157    98    97    1
   158    98   101    1
   159    93    92    2
   160    97    92   am
   161    92    91    1
   162   207   199   am
   163    36    37    1
   164    91    90    1
   165   113   114    2
   166   217   219   ar
   167    84    85    2
   168   199   198    1
   169   103   104   ar
   170   103   102    1
   171   150   151    1
   172    63    62    1
   173   220   219   ar
   174    37    38    2
   175   206   204   ar
   176   206   205   ar
   177   204   202   ar
   178   101   102    1
   179   151   152    1
   180   198   201    1
   181   198   197    1
   182   205   203   ar
   183   202   201    1
   184   202   203   ar
   185    62    61    1
   186   152   154   ar
   187   152   153   ar
   188    86    87    1
   189    61    60    1
   190    74    72    1
   191    87    88    1
   192    55    53   am
   193    71    72    2
   194    71    70    1
   195    72    73    1
   196    70    69    1
   197    69    68    1
   198    60    57    1
   199    53    54    2
   200    53    52    1
   201    88    89    2
   202    68    65    1
   203    57    56    1
   204    57    58    1
   205    47    48    1
   206    65    64    1
   207    65    66    1
   208    52    51    1
   209    48    51    1
   210    48    49    1
   211    67    66    2
   212    59    58    2
   213    49    50    2
