@<TRIPOS>MOLECULE
tmp/5isbC01.pdb
 85 81 0 0 0
SMALL
GASTEIGER

@<TRIPOS>ATOM
      1  N         17.3400   41.3230  186.6130 N.3   139  LEU139     -0.1245
      2  CA        16.3420   41.9370  187.4920 C.3   139  LEU139      0.1561
      3  C         16.8240   43.2990  187.9560 C.2   139  LEU139      0.2260
      4  O         16.0350   44.2200  188.0860 O.2   139  LEU139     -0.2867
      5  CB        16.0320   41.0260  188.6810 C.3   139  LEU139      0.0270
      6  CG        15.3750   39.6900  188.3050 C.3   139  LEU139      0.0019
      7  CD1       15.2990   38.7590  189.5040 C.3   139  LEU139      0.0001
      8  CD2       13.9750   39.8900  187.7460 C.3   139  LEU139      0.0001
      9  N         15.8660   46.3470  185.9680 N.3   142  LYS142     -0.1231
     10  CA        14.5090   46.9160  186.0180 C.3   142  LYS142      0.1693
     11  C         14.4790   48.3080  186.6630 C.2   142  LYS142      0.2591
     12  O         13.4490   49.0040  186.6060 O.2   142  LYS142     -0.2718
     13  CB        13.5380   46.0010  186.7550 C.3   142  LYS142      0.0285
     14  CG        13.1970   44.7580  185.9380 C.3   142  LYS142      0.0035
     15  CD        12.0250   44.0040  186.5100 C.3   142  LYS142      0.0206
     16  CE        12.2280   43.4870  187.9190 C.3   142  LYS142      0.1093
     17  NZ        10.9900   42.7780  188.3280 N.3   142  LYS142     -0.1314
     18  N         15.5890   48.7470  187.2520 N.am  143  LYS143     -0.1980
     19  CA        15.6570   50.1540  187.6970 C.3   143  LYS143      0.1596
     20  C         15.4990   51.0760  186.4750 C.2   143  LYS143      0.2287
     21  O         15.1410   52.2360  186.6250 O.2   143  LYS143     -0.2864
     22  CB        16.9680   50.4640  188.4370 C.3   143  LYS143      0.0298
     23  CG        18.2480   50.3690  187.6050 C.3   143  LYS143      0.0038
     24  CD        19.4760   50.5880  188.4940 C.3   143  LYS143      0.0206
     25  CE        20.7930   50.5430  187.7100 C.3   143  LYS143      0.1093
     26  NZ        22.0610   50.6370  188.5510 N.3   143  LYS143     -0.1314
     27  N         13.4230   50.1870  183.8690 N.3   145  LEU145     -0.1231
     28  CA        12.1820   49.7860  183.2090 C.3   145  LEU145      0.1693
     29  C         11.0130   50.6540  183.6070 C.2   145  LEU145      0.2592
     30  O         10.7490   50.8090  184.7960 O.2   145  LEU145     -0.2718
     31  CB        11.8550   48.3220  183.5290 C.3   145  LEU145      0.0284
     32  CG        10.6920   47.6850  182.7660 C.3   145  LEU145      0.0019
     33  CD1       10.9020   47.7510  181.2320 C.3   145  LEU145      0.0001
     34  CD2       10.5520   46.2560  183.2470 C.3   145  LEU145      0.0001
     35  N         10.2870   51.1730  182.6170 N.am  146  LYS146     -0.1966
     36  CA         9.0580   51.9260  182.8910 C.3   146  LYS146      0.1713
     37  C          8.1020   51.0190  183.6750 C.2   146  LYS146      0.2458
     38  O          8.0950   49.8180  183.4490 O.2   146  LYS146     -0.2730
     39  CB         8.3970   52.3780  181.5970 C.3   146  LYS146      0.0311
     40  CG         9.1920   53.3410  180.7680 C.3   146  LYS146      0.0038
     41  CD         8.4270   53.5910  179.4940 C.3   146  LYS146      0.0206
     42  CE         9.1250   54.5790  178.5970 C.3   146  LYS146      0.1093
     43  NZ         8.3270   54.8100  177.3980 N.3   146  LYS146     -0.1314
     44  N          7.2570   51.5880  184.5540 N.am  147  PRO147     -0.2727
     45  CA         6.2870   50.7470  185.2770 C.3   147  PRO147      0.1402
     46  C          5.3880   49.9210  184.3720 C.2   147  PRO147      0.2269
     47  O          4.9790   48.8200  184.7540 O.2   147  PRO147     -0.2865
     48  CB         5.4750   51.7660  186.0880 C.3   147  PRO147      0.0296
     49  CG         6.4110   52.9070  186.2800 C.3   147  PRO147      0.0237
     50  CD         7.2300   52.9840  185.0210 C.3   147  PRO147      0.0939
     51  N          6.3610   48.6230  181.5950 N.3   149  GLY149     -0.1225
     52  CA         7.2650   47.8260  180.7810 C.3   149  GLY149      0.1811
     53  C          7.1350   46.3130  180.8030 C.2   149  GLY149      0.2280
     54  O          6.3730   45.7530  181.5790 O.2   149  GLY149     -0.2866
     55  N          8.9850   39.8690  185.7250 N.3   226  LEU226     -0.1231
     56  CA         8.3350   41.1760  185.8310 C.3   226  LEU226      0.1693
     57  C          8.0850   41.6120  187.2510 C.2   226  LEU226      0.2592
     58  O          8.0880   42.8020  187.5400 O.2   226  LEU226     -0.2718
     59  CB         6.9920   41.2210  185.1040 C.3   226  LEU226      0.0284
     60  CG         6.9830   41.5990  183.6350 C.3   226  LEU226      0.0019
     61  CD1        5.5680   41.4750  183.1090 C.3   226  LEU226      0.0001
     62  CD2        7.4890   43.0320  183.4800 C.3   226  LEU226      0.0001
     63  N          7.8670   40.6450  188.1300 N.am  227  GLU227     -0.1966
     64  CA         7.4590   40.9350  189.4990 C.3   227  GLU227      0.1733
     65  C          8.6290   40.8350  190.4890 C.2   227  GLU227      0.2616
     66  O          8.6970   41.6020  191.4550 O.2   227  GLU227     -0.2715
     67  CB         6.3650   39.9610  189.9310 C.3   227  GLU227      0.0429
     68  CG         5.0990   40.0700  189.1070 C.3   227  GLU227      0.1163
     69  CD         4.0450   39.0430  189.4980 C.2   227  GLU227      0.3649
     70  OE1        4.3520   38.1290  190.3020 O.co2 227  GLU227     -0.2457
     71  OE2        2.9020   39.1630  188.9990 O.co2 227  GLU227     -0.2457
     72  N          9.5610   39.9220  190.2240 N.am  228  ALA228     -0.1963
     73  CA        10.6210   39.5950  191.1800 C.3   228  ALA228      0.1728
     74  C         11.6720   40.7130  191.3850 C.2   228  ALA228      0.2616
     75  O         11.9020   41.5640  190.5010 O.2   228  ALA228     -0.2715
     76  CB        11.3060   38.3290  190.7650 C.3   228  ALA228      0.0334
     77  N         12.2830   40.6790  192.5710 N.am  229  LYS229     -0.1977
     78  CA        13.3830   41.5670  192.9730 C.3   229  LYS229      0.1596
     79  C         14.6380   40.7640  192.8510 C.2   229  LYS229      0.2287
     80  O         14.5770   39.5470  193.0490 O.2   229  LYS229     -0.2864
     81  CB        13.2150   42.0100  194.4240 C.3   229  LYS229      0.0298
     82  CG        11.9870   42.8140  194.7120 C.3   229  LYS229      0.0038
     83  CD        11.7740   42.9200  196.2210 C.3   229  LYS229      0.0206
     84  CE        11.3530   44.3180  196.6570 C.3   229  LYS229      0.1093
     85  NZ        10.6640   44.3120  197.9800 N.3   229  LYS229     -0.1314
@<TRIPOS>BOND
     1    43    42    1
     2    42    41    1
     3    41    40    1
     4    40    39    1
     5    52    53    1
     6    52    51    1
     7    53    54    2
     8    33    32    1
     9    39    36    1
    10    35    36    1
    11    35    29   am
    12    32    34    1
    13    32    31    1
    14    36    37    1
    15    61    60    1
    16    28    31    1
    17    28    29    1
    18    28    27    1
    19    38    37    2
    20    62    60    1
    21    29    30    2
    22    60    59    1
    23    37    44   am
    24    46    47    2
    25    46    45    1
    26    44    50    1
    27    44    45    1
    28    50    49    1
    29    59    56    1
    30    45    48    1
    31    55    56    1
    32    56    57    1
    33    14    15    1
    34    14    13    1
    35     9    10    1
    36    10    11    1
    37    10    13    1
    38    48    49    1
    39    20    21    2
    40    20    19    1
    41    15    16    1
    42    12    11    2
    43     1     2    1
    44    11    18   am
    45    57    58    2
    46    57    63   am
    47    18    19    1
    48     2     3    1
    49     2     5    1
    50    23    22    1
    51    23    24    1
    52    19    22    1
    53    25    24    1
    54    25    26    1
    55     8     6    1
    56    16    17    1
    57     3     4    2
    58    63    64    1
    59     6     5    1
    60     6     7    1
    61    71    69   ar
    62    68    69    1
    63    68    67    1
    64    69    70   ar
    65    64    67    1
    66    64    65    1
    67    72    65   am
    68    72    73    1
    69    65    66    2
    70    75    74    2
    71    76    73    1
    72    73    74    1
    73    74    77   am
    74    77    78    1
    75    79    78    1
    76    79    80    2
    77    78    81    1
    78    81    82    1
    79    82    83    1
    80    83    84    1
    81    84    85    1
