@<TRIPOS>MOLECULE
tmp/5isdA01.pdb
 140 140 0 0 0
SMALL
GASTEIGER

@<TRIPOS>ATOM
      1  N         40.6400   34.0530  129.0390 N.3    18  PHE18      -0.1227
      2  CA        41.2650   32.9290  129.7210 C.3    18  PHE18       0.1736
      3  C         42.2490   33.4330  130.7600 C.2    18  PHE18       0.2595
      4  O         42.2130   32.9970  131.9100 O.2    18  PHE18      -0.2718
      5  CB        41.9640   32.0340  128.7000 C.3    18  PHE18       0.0547
      6  CG        42.7080   30.8770  129.2860 C.ar   18  PHE18      -0.0202
      7  CD1       42.0590   29.6830  129.5400 C.ar   18  PHE18      -0.0042
      8  CD2       44.0640   30.9630  129.5380 C.ar   18  PHE18      -0.0042
      9  CE1       42.7420   28.6090  130.0600 C.ar   18  PHE18      -0.0003
     10  CE2       44.7510   29.8890  130.0470 C.ar   18  PHE18      -0.0003
     11  CZ        44.0870   28.7070  130.3030 C.ar   18  PHE18      -0.0000
     12  N         43.1260   34.3520  130.3660 N.am   19  TYR19      -0.1976
     13  CA        44.1210   34.8460  131.3280 C.3    19  TYR19       0.1639
     14  C         43.6150   35.8640  132.3650 C.2    19  TYR19       0.2290
     15  O         44.3690   36.2630  133.2500 O.2    19  TYR19      -0.2864
     16  CB        45.3050   35.4310  130.5680 C.3    19  TYR19       0.0560
     17  CG        46.2560   34.3560  130.1000 C.ar   19  TYR19      -0.0198
     18  CD1       46.9470   33.5720  131.0150 C.ar   19  TYR19      -0.0009
     19  CD2       46.4500   34.1110  128.7490 C.ar   19  TYR19      -0.0009
     20  CE1       47.8160   32.5870  130.6010 C.ar   19  TYR19       0.0417
     21  CE2       47.3160   33.1240  128.3240 C.ar   19  TYR19       0.0417
     22  CZ        47.9960   32.3660  129.2540 C.ar   19  TYR19       0.1957
     23  OH        48.8620   31.3820  128.8360 O.3    19  TYR19      -0.2866
     24  N         43.6870   30.6770  136.7960 N.3    24  GLN24      -0.1245
     25  CA        44.6970   30.4060  135.7870 C.3    24  GLN24       0.1566
     26  C         46.0750   30.8950  136.2480 C.2    24  GLN24       0.2260
     27  O         47.1100   30.1750  136.1760 O.2    24  GLN24      -0.2867
     28  CB        44.3240   31.1060  134.4830 C.3    24  GLN24       0.0367
     29  CG        45.2600   30.7880  133.3610 C.3    24  GLN24       0.0905
     30  CD        45.2460   29.2920  133.1190 C.2    24  GLN24       0.2608
     31  OE1       44.1690   28.6680  133.1280 O.2    24  GLN24      -0.2717
     32  NE2       46.4200   28.6900  133.0210 N.am   24  GLN24      -0.0878
     33  N         49.4530   28.6910  137.1670 N.3    28  MET28      -0.1245
     34  CA        50.8340   28.9790  136.7650 C.3    28  MET28       0.1570
     35  C         51.7280   29.2370  137.9830 C.2    28  MET28       0.2261
     36  O         52.8580   28.7670  138.0370 O.2    28  MET28      -0.2867
     37  CB        50.8970   30.1590  135.7990 C.3    28  MET28       0.0387
     38  CG        50.3190   29.8530  134.4240 C.3    28  MET28       0.0595
     39  SD        50.3950   31.2690  133.3090 S.3    28  MET28      -0.1393
     40  CE        49.3030   32.4090  134.1440 C.3    28  MET28       0.0692
     41  N         57.2280   35.6790  130.9830 N.3   123  GLU123     -0.1231
     42  CA        57.0250   34.2440  130.8900 C.3   123  GLU123      0.1684
     43  C         56.0950   33.9770  129.6990 C.2   123  GLU123      0.2434
     44  O         54.8900   33.7910  129.8770 O.2   123  GLU123     -0.2733
     45  CB        56.4500   33.7150  132.2070 C.3   123  GLU123      0.0402
     46  CG        56.5790   32.2210  132.4140 C.3   123  GLU123      0.1161
     47  CD        55.4110   31.4630  131.8470 C.2   123  GLU123      0.3649
     48  OE1       54.4300   31.2330  132.5950 O.co2 123  GLU123     -0.2457
     49  OE2       55.4840   31.1090  130.6500 O.co2 123  GLU123     -0.2457
     50  N         56.6560   33.9760  128.4730 N.am  124  PRO124     -0.2718
     51  CA        55.8770   33.8560  127.2340 C.3   124  PRO124      0.1535
     52  C         55.8730   32.4750  126.5780 C.2   124  PRO124      0.2598
     53  O         55.3840   32.3380  125.4590 O.2   124  PRO124     -0.2715
     54  CB        56.5870   34.8430  126.3150 C.3   124  PRO124      0.0310
     55  CG        58.0260   34.6230  126.6720 C.3   124  PRO124      0.0237
     56  CD        58.0430   34.3770  128.1730 C.3   124  PRO124      0.0939
     57  N         56.4060   31.4670  127.2540 N.am  125  MET125     -0.1964
     58  CA        56.5360   30.1530  126.6400 C.3   125  MET125      0.1736
     59  C         55.2050   29.4040  126.6490 C.2   125  MET125      0.2617
     60  O         54.5300   29.3310  127.6720 O.2   125  MET125     -0.2715
     61  CB        57.6030   29.3310  127.3710 C.3   125  MET125      0.0427
     62  CG        58.9900   29.9640  127.3680 C.3   125  MET125      0.0599
     63  SD        59.3040   31.0240  128.7940 S.3   125  MET125     -0.1393
     64  CE        59.4630   29.8220  130.1050 C.3   125  MET125      0.0692
     65  N         54.8440   28.8370  125.5020 N.am  126  GLY126     -0.1940
     66  CA        53.6680   27.9880  125.3990 C.3   126  GLY126      0.2014
     67  C         54.0840   26.5460  125.1670 C.2   126  GLY126      0.2638
     68  O         55.2720   26.2270  125.2550 O.2   126  GLY126     -0.2714
     69  N         53.1240   25.6660  124.9050 N.am  127  TYR127     -0.1973
     70  CA        53.4590   24.3080  124.4760 C.3   127  TYR127      0.1639
     71  C         54.4970   24.3500  123.3460 C.2   127  TYR127      0.2290
     72  O         54.4170   25.1880  122.4450 O.2   127  TYR127     -0.2864
     73  CB        52.2040   23.5480  124.0400 C.3   127  TYR127      0.0560
     74  CG        51.2010   23.2980  125.1480 C.ar  127  TYR127     -0.0198
     75  CD1       51.6100   22.8580  126.4010 C.ar  127  TYR127     -0.0009
     76  CD2       49.8420   23.4830  124.9350 C.ar  127  TYR127     -0.0009
     77  CE1       50.6950   22.6210  127.4100 C.ar  127  TYR127      0.0417
     78  CE2       48.9210   23.2480  125.9370 C.ar  127  TYR127      0.0417
     79  CZ        49.3520   22.8130  127.1700 C.ar  127  TYR127      0.1957
     80  OH        48.4380   22.5800  128.1730 O.3   127  TYR127     -0.2866
     81  N         53.8190   27.9740  121.1730 N.3   131  ASN131     -0.1225
     82  CA        52.3740   28.0880  121.1720 C.3   131  ASN131      0.1785
     83  C         51.9100   29.3660  121.8530 C.2   131  ASN131      0.2597
     84  O         52.5270   29.8150  122.8160 O.2   131  ASN131     -0.2718
     85  CB        51.7400   26.8940  121.8640 C.3   131  ASN131      0.1169
     86  CG        50.2520   26.8370  121.6430 C.2   131  ASN131      0.2627
     87  OD1       49.7690   27.0810  120.5390 O.2   131  ASN131     -0.2716
     88  ND2       49.5100   26.5930  122.7120 N.am  131  ASN131     -0.0877
     89  N         50.8270   29.9360  121.3240 N.am  132  GLU132     -0.1979
     90  CA        50.2140   31.1710  121.8290 C.3   132  GLU132      0.1602
     91  C         50.8900   32.4110  121.2550 C.2   132  GLU132      0.2287
     92  O         50.3640   33.5190  121.3670 O.2   132  GLU132     -0.2864
     93  CB        50.2200   31.1990  123.3570 C.3   132  GLU132      0.0415
     94  CG        49.4320   30.0350  123.9330 C.3   132  GLU132      0.1163
     95  CD        49.6680   29.8250  125.4110 C.2   132  GLU132      0.3649
     96  OE1       49.7620   30.8270  126.1500 O.co2 132  GLU132     -0.2457
     97  OE2       49.7790   28.6510  125.8260 O.co2 132  GLU132     -0.2457
     98  N         53.1840   34.3120  122.1080 N.3   134  MET134     -0.1245
     99  CA        53.5000   35.4310  122.9900 C.3   134  MET134      0.1570
    100  C         54.9720   35.8260  122.8960 C.2   134  MET134      0.2261
    101  O         55.3430   36.9330  123.2810 O.2   134  MET134     -0.2867
    102  CB        53.1540   35.1070  124.4460 C.3   134  MET134      0.0387
    103  CG        53.2610   36.3240  125.3560 C.3   134  MET134      0.0595
    104  SD        52.9280   35.9810  127.0870 S.3   134  MET134     -0.1393
    105  CE        53.5310   37.4830  127.8550 C.3   134  MET134      0.0692
    106  N         53.7100   22.3830  134.0890 N.3   280  HIS280     -0.1226
    107  CA        52.3920   22.4760  133.4790 C.3   280  HIS280      0.1752
    108  C         52.4950   22.4730  131.9430 C.2   280  HIS280      0.2596
    109  O         51.4780   22.4850  131.2490 O.2   280  HIS280     -0.2718
    110  CB        51.6270   23.7130  133.9880 C.3   280  HIS280      0.0759
    111  CG        52.1250   25.0170  133.4440 C.ar  280  HIS280      0.0818
    112  ND1       53.2760   25.6350  133.8920 N.ar  280  HIS280     -0.2268
    113  CD2       51.5930   25.8430  132.5080 C.ar  280  HIS280      0.1154
    114  CE1       53.4410   26.7730  133.2370 C.ar  280  HIS280      0.1986
    115  NE2       52.4340   26.9230  132.3960 N.ar  280  HIS280     -0.2212
    116  N         53.7190   22.4740  131.4120 N.am  281  TRP281     -0.1976
    117  CA        53.9350   22.3610  129.9660 C.3   281  TRP281      0.1640
    118  C         54.0210   20.9020  129.4970 C.2   281  TRP281      0.2290
    119  O         53.9350   20.6350  128.3030 O.2   281  TRP281     -0.2864
    120  CB        55.2130   23.0960  129.5330 C.3   281  TRP281      0.0576
    121  CG        55.1130   24.5970  129.5650 C.ar  281  TRP281      0.0006
    122  CD1       54.4100   25.3860  128.7060 C.ar  281  TRP281      0.0946
    123  CD2       55.7660   25.4860  130.4820 C.ar  281  TRP281      0.0152
    124  NE1       54.5690   26.7110  129.0380 N.ar  281  TRP281     -0.2442
    125  CE2       55.3990   26.7990  130.1250 C.ar  281  TRP281      0.0810
    126  CE3       56.6190   25.2980  131.5760 C.ar  281  TRP281      0.0012
    127  CZ2       55.8540   27.9180  130.8210 C.ar  281  TRP281      0.0191
    128  CZ3       57.0710   26.4110  132.2660 C.ar  281  TRP281      0.0001
    129  CH2       56.6880   27.7040  131.8860 C.ar  281  TRP281      0.0015
    130  N         44.8680   16.7670  125.1180 N.3   340  PHE340     -0.1241
    131  CA        45.4250   16.6710  126.4570 C.3   340  PHE340      0.1605
    132  C         45.1890   15.2590  126.9850 C.2   340  PHE340      0.2264
    133  O         44.0810   14.9060  127.3860 O.2   340  PHE340     -0.2867
    134  CB        44.8010   17.7280  127.3700 C.3   340  PHE340      0.0534
    135  CG        44.9590   19.1340  126.8550 C.ar  340  PHE340     -0.0203
    136  CD1       46.1650   19.7960  126.9960 C.ar  340  PHE340     -0.0042
    137  CD2       43.9110   19.7900  126.2260 C.ar  340  PHE340     -0.0042
    138  CE1       46.3260   21.0810  126.5260 C.ar  340  PHE340     -0.0003
    139  CE2       44.0700   21.0830  125.7540 C.ar  340  PHE340     -0.0003
    140  CZ        45.2810   21.7250  125.9040 C.ar  340  PHE340     -0.0000
@<TRIPOS>BOND
     1    87    86    2
     2    82    81    1
     3    82    83    1
     4    82    85    1
     5    91    92    2
     6    91    90    1
     7    89    90    1
     8    89    83   am
     9    86    85    1
    10    86    88   am
    11    90    93    1
    12    83    84    2
    13    98    99    1
    14    72    71    2
    15   100    99    1
    16   100   101    2
    17    99   102    1
    18    71    70    1
    19    93    94    1
    20    94    95    1
    21    73    70    1
    22    73    74    1
    23   102   103    1
    24    70    69    1
    25    69    67   am
    26    76    74   ar
    27    76    78   ar
    28   130   131    1
    29    74    75   ar
    30    67    68    2
    31    67    66    1
    32   103   104    1
    33    66    65    1
    34    95    97   ar
    35    95    96   ar
    36    53    52    2
    37    65    59   am
    38   139   140   ar
    39   139   137   ar
    40   140   138   ar
    41    78    79   ar
    42   137   135   ar
    43    54    55    1
    44    54    51    1
    45    75    77   ar
    46   131   132    1
    47   131   134    1
    48   138   136   ar
    49    52    51    1
    50    52    57   am
    51    58    59    1
    52    58    57    1
    53    58    61    1
    54    59    60    2
    55    55    56    1
    56   135   136   ar
    57   135   134    1
    58   132   133    2
    59   104   105    1
    60    79    77   ar
    61    79    80    1
    62    51    50    1
    63    62    61    1
    64    62    63    1
    65    56    50    1
    66   119   118    2
    67    21    19   ar
    68    21    22   ar
    69    50    43   am
    70     5     6    1
    71     5     2    1
    72   122   124   ar
    73   122   121   ar
    74    19    17   ar
    75    63    64    1
    76    23    22    1
    77   124   125   ar
    78     1     2    1
    79    22    20   ar
    80     6     8   ar
    81     6     7   ar
    82   118   117    1
    83   120   121    1
    84   120   117    1
    85     8    10   ar
    86     7     9   ar
    87   121   123   ar
    88    43    44    2
    89    43    42    1
    90     2     3    1
    91   117   116    1
    92    10    11   ar
    93     9    11   ar
    94    17    16    1
    95    17    18   ar
    96   125   123   ar
    97   125   127   ar
    98    12     3   am
    99    12    13    1
   100   123   126   ar
   101    16    13    1
   102    20    18   ar
   103    49    47   ar
   104     3     4    2
   105   127   129   ar
   106    42    41    1
   107    42    45    1
   108   109   108    2
   109    13    14    1
   110   116   108   am
   111   126   128   ar
   112    47    46    1
   113    47    48   ar
   114   129   128   ar
   115   108   107    1
   116    45    46    1
   117    14    15    2
   118   115   113   ar
   119   115   114   ar
   120   113   111   ar
   121    32    30   am
   122    30    31    2
   123    30    29    1
   124   114   112   ar
   125    39    40    1
   126    39    38    1
   127    29    28    1
   128   111   112   ar
   129   111   110    1
   130   107   110    1
   131   107   106    1
   132    38    37    1
   133    28    25    1
   134    25    26    1
   135    25    24    1
   136    37    34    1
   137    27    26    2
   138    34    33    1
   139    34    35    1
   140    35    36    2
