@<TRIPOS>MOLECULE
tmp/5iseB01.pdb
 95 92 0 0 0
SMALL
GASTEIGER

@<TRIPOS>ATOM
      1  N         21.3770   39.6960  111.7680 N.3     1  SER1       -0.1217
      2  CA        20.6270   38.4950  112.1600 C.3     1  SER1        0.1889
      3  C         20.3290   38.5260  113.6490 C.2     1  SER1        0.2288
      4  O         21.0380   39.1660  114.4330 O.2     1  SER1       -0.2866
      5  CB        21.3920   37.2110  111.8450 C.3     1  SER1        0.2089
      6  OG        22.0880   36.6860  112.9750 O.3     1  SER1       -0.2183
      7  N         23.7810   24.4860  105.2460 N.3   105  PRO105     -0.2102
      8  CA        24.8230   25.0540  106.1190 C.3   105  PRO105      0.1504
      9  C         24.4950   26.4650  106.5140 C.2   105  PRO105      0.2576
     10  O         24.0240   27.2020  105.6710 O.2   105  PRO105     -0.2718
     11  CB        26.0760   25.0590  105.2510 C.3   105  PRO105      0.0282
     12  CG        25.7740   24.1310  104.0950 C.3   105  PRO105      0.0208
     13  CD        24.2890   24.1930  103.8960 C.3   105  PRO105      0.0893
     14  N         24.7060   26.8170  107.7660 N.am  106  GLY106     -0.1943
     15  CA        24.4530   28.1750  108.2070 C.3   106  GLY106      0.2014
     16  C         23.7040   28.1760  109.5330 C.2   106  GLY106      0.2638
     17  O         23.2890   27.1390  110.0620 O.2   106  GLY106     -0.2714
     18  N         23.5000   29.3740  110.0470 N.am  107  LYS107     -0.1977
     19  CA        22.7500   29.5950  111.2740 C.3   107  LYS107      0.1596
     20  C         21.2540   29.5480  110.9510 C.2   107  LYS107      0.2287
     21  O         20.8150   30.0860  109.9250 O.2   107  LYS107     -0.2864
     22  CB        23.1220   30.9580  111.8510 C.3   107  LYS107      0.0298
     23  CG        24.6090   31.1730  111.9460 C.3   107  LYS107      0.0038
     24  CD        25.0960   31.3920  113.3250 C.3   107  LYS107      0.0206
     25  CE        26.1240   32.5150  113.3480 C.3   107  LYS107      0.1093
     26  NZ        27.1330   32.4400  112.2640 N.3   107  LYS107     -0.1314
     27  N         19.0130   31.1910  112.1410 N.3   109  GLU109     -0.1231
     28  CA        18.5200   32.5750  112.1400 C.3   109  GLU109      0.1699
     29  C         18.8080   33.2860  110.8260 C.2   109  GLU109      0.2592
     30  O         18.2890   34.3720  110.5830 O.2   109  GLU109     -0.2718
     31  CB        19.1670   33.3800  113.2660 C.3   109  GLU109      0.0402
     32  CG        18.8090   32.9260  114.6990 C.3   109  GLU109      0.1161
     33  CD        19.6920   31.7940  115.2210 C.2   109  GLU109      0.3649
     34  OE1       20.4710   31.1780  114.4450 O.co2 109  GLU109     -0.2457
     35  OE2       19.5920   31.5210  116.4310 O.co2 109  GLU109     -0.2457
     36  N         19.6410   32.6710  109.9900 N.am  110  GLU110     -0.1966
     37  CA        20.1710   33.3350  108.8080 C.3   110  GLU110      0.1733
     38  C         19.8890   32.6100  107.5020 C.2   110  GLU110      0.2616
     39  O         19.8640   33.2270  106.4340 O.2   110  GLU110     -0.2715
     40  CB        21.6860   33.5270  108.9770 C.3   110  GLU110      0.0429
     41  CG        21.9950   34.5090  110.1330 C.3   110  GLU110      0.1163
     42  CD        23.4560   34.6900  110.4590 C.2   110  GLU110      0.3649
     43  OE1       24.3170   34.0900  109.7750 O.co2 110  GLU110     -0.2457
     44  OE2       23.7420   35.4310  111.4360 O.co2 110  GLU110     -0.2457
     45  N         19.6670   31.3080  107.5590 N.am  111  VAL111     -0.1963
     46  CA        19.4660   30.5750  106.3170 C.3   111  VAL111      0.1727
     47  C         18.0700   30.8080  105.7470 C.2   111  VAL111      0.2617
     48  O         17.1760   31.3300  106.4180 O.2   111  VAL111     -0.2715
     49  CB        19.6420   29.0580  106.5050 C.3   111  VAL111      0.0290
     50  CG1       21.0540   28.7130  106.9330 C.3   111  VAL111      0.0023
     51  CG2       18.6150   28.5390  107.5020 C.3   111  VAL111      0.0023
     52  N         17.8910   30.4070  104.5010 N.am  112  SER112     -0.1936
     53  CA        16.5760   30.4140  103.8900 C.3   112  SER112      0.2055
     54  C         16.1010   28.9730  103.7230 C.2   112  SER112      0.2642
     55  O         16.7830   28.1670  103.0830 O.2   112  SER112     -0.2714
     56  CB        16.6290   31.1290  102.5400 C.3   112  SER112      0.2130
     57  OG        15.4830   31.9320  102.3780 O.3   112  SER112     -0.2179
     58  N         14.9160   28.6560  104.2450 N.am  113  LEU113     -0.1977
     59  CA        14.3430   27.3190  104.0620 C.3   113  LEU113      0.1596
     60  C         13.3370   27.3800  102.9490 C.2   113  LEU113      0.2287
     61  O         12.6850   28.4110  102.7800 O.2   113  LEU113     -0.2864
     62  CB        13.6400   26.7830  105.3130 C.3   113  LEU113      0.0297
     63  CG        14.3580   26.0280  106.4130 C.3   113  LEU113      0.0022
     64  CD1       13.3030   25.2390  107.2280 C.3   113  LEU113      0.0001
     65  CD2       15.4500   25.1420  105.9030 C.3   113  LEU113      0.0001
     66  N          7.6420   25.6490  104.6610 N.3   116  GLN116     -0.1245
     67  CA         7.3300   25.5020  106.0640 C.3   116  GLN116      0.1566
     68  C          7.3360   24.0180  106.4320 C.2   116  GLN116      0.2260
     69  O          7.1280   23.1660  105.5550 O.2   116  GLN116     -0.2867
     70  CB         5.9750   26.1150  106.3800 C.3   116  GLN116      0.0367
     71  CG         5.8580   27.5870  106.0040 C.3   116  GLN116      0.0905
     72  CD         6.8160   28.4450  106.7680 C.2   116  GLN116      0.2608
     73  OE1        7.9860   28.5840  106.4020 O.2   116  GLN116     -0.2717
     74  NE2        6.3360   29.0090  107.8660 N.am  116  GLN116     -0.0878
     75  N          9.4370   30.2320  113.1940 N.3   143  LYS143     -0.1231
     76  CA         8.9990   31.0140  112.0390 C.3   143  LYS143      0.1693
     77  C          8.7640   30.0960  110.8340 C.2   143  LYS143      0.2592
     78  O          8.0380   30.4830  109.9250 O.2   143  LYS143     -0.2718
     79  CB        10.0120   32.1040  111.6600 C.3   143  LYS143      0.0285
     80  CG        11.3590   31.5750  111.1500 C.3   143  LYS143      0.0035
     81  CD        12.3250   32.7420  110.9020 C.3   143  LYS143      0.0206
     82  CE        13.6660   32.2680  110.3730 C.3   143  LYS143      0.1093
     83  NZ        14.6460   33.4280  110.3140 N.3   143  LYS143     -0.1314
     84  N          9.3590   28.8940  110.8240 N.am  144  TYR144     -0.1976
     85  CA         9.1680   27.9420  109.7280 C.3   144  TYR144      0.1639
     86  C          8.1380   26.8550  110.0280 C.2   144  TYR144      0.2290
     87  O          7.8900   25.9790  109.1890 O.2   144  TYR144     -0.2864
     88  CB        10.4950   27.2290  109.3640 C.3   144  TYR144      0.0560
     89  CG        11.5580   28.1350  108.7950 C.ar  144  TYR144     -0.0198
     90  CD1       11.3490   28.8360  107.6170 C.ar  144  TYR144     -0.0009
     91  CD2       12.7690   28.3120  109.4500 C.ar  144  TYR144     -0.0009
     92  CE1       12.3440   29.6860  107.0980 C.ar  144  TYR144      0.0417
     93  CE2       13.7550   29.1470  108.9380 C.ar  144  TYR144      0.0417
     94  CZ        13.5520   29.8110  107.7740 C.ar  144  TYR144      0.1957
     95  OH        14.5710   30.6190  107.3320 O.3   144  TYR144     -0.2866
@<TRIPOS>BOND
     1    57    56    1
     2    56    53    1
     3    61    60    2
     4    60    59    1
     5    55    54    2
     6    54    53    1
     7    54    58   am
     8    53    52    1
     9    13    12    1
    10    13     7    1
    11    59    58    1
    12    59    62    1
    13    12    11    1
    14    52    47   am
    15    66    67    1
    16     7     8    1
    17    11     8    1
    18    62    63    1
    19    69    68    2
    20    10     9    2
    21    47    46    1
    22    47    48    2
    23    65    63    1
    24    71    70    1
    25    71    72    1
    26    67    70    1
    27    67    68    1
    28     8     9    1
    29    46    49    1
    30    46    45    1
    31    73    72    2
    32    63    64    1
    33    39    38    2
    34    49    50    1
    35    49    51    1
    36     9    14   am
    37    72    74   am
    38    92    90   ar
    39    92    94   ar
    40    95    94    1
    41    38    45   am
    42    38    37    1
    43    90    89   ar
    44    14    15    1
    45    94    93   ar
    46    15    16    1
    47    89    88    1
    48    89    91   ar
    49    37    40    1
    50    37    36    1
    51    93    91   ar
    52    40    41    1
    53    87    86    2
    54    88    85    1
    55    16    18   am
    56    16    17    2
    57    85    86    1
    58    85    84    1
    59    43    42   ar
    60    78    77    2
    61    21    20    2
    62    36    29   am
    63    18    19    1
    64    41    42    1
    65    83    82    1
    66    82    81    1
    67    42    44   ar
    68    30    29    2
    69    84    77   am
    70    29    28    1
    71    77    76    1
    72    81    80    1
    73    20    19    1
    74    80    79    1
    75    19    22    1
    76    79    76    1
    77     1     2    1
    78     5     2    1
    79     5     6    1
    80    22    23    1
    81    23    24    1
    82    76    75    1
    83    28    27    1
    84    28    31    1
    85     2     3    1
    86    26    25    1
    87    31    32    1
    88    24    25    1
    89     3     4    2
    90    34    33   ar
    91    32    33    1
    92    33    35   ar
