@<TRIPOS>MOLECULE
tmp/5iseA01.pdb
 114 114 0 0 0
SMALL
GASTEIGER

@<TRIPOS>ATOM
      1  N         39.4430   35.3230  123.7600 N.3    14  GLN14      -0.1231
      2  CA        39.5220   34.0790  124.5290 C.3    14  GLN14       0.1698
      3  C         40.8280   33.9640  125.3170 C.2    14  GLN14       0.2592
      4  O         40.8590   33.4860  126.4770 O.2    14  GLN14      -0.2718
      5  CB        39.3680   32.8890  123.5830 C.3    14  GLN14       0.0381
      6  CG        39.6280   31.5400  124.2060 C.3    14  GLN14       0.0905
      7  CD        39.5350   30.4210  123.1960 C.2    14  GLN14       0.2608
      8  OE1       39.6010   30.6440  121.9880 O.2    14  GLN14      -0.2717
      9  NE2       39.4340   29.2010  123.6900 N.am   14  GLN14      -0.0878
     10  N         41.9160   34.3310  124.6530 N.am   15  TYR15      -0.1976
     11  CA        43.2160   34.2760  125.2620 C.3    15  TYR15       0.1639
     12  C         43.2750   35.1780  126.5040 C.2    15  TYR15       0.2290
     13  O         43.7390   34.7610  127.5530 O.2    15  TYR15      -0.2864
     14  CB        44.2570   34.6930  124.2350 C.3    15  TYR15       0.0560
     15  CG        45.6710   34.6970  124.7010 C.ar   15  TYR15      -0.0198
     16  CD1       46.4170   33.5470  124.7060 C.ar   15  TYR15      -0.0009
     17  CD2       46.2740   35.8610  125.0930 C.ar   15  TYR15      -0.0009
     18  CE1       47.7310   33.5590  125.0870 C.ar   15  TYR15       0.0417
     19  CE2       47.6030   35.8790  125.4770 C.ar   15  TYR15       0.0417
     20  CZ        48.3170   34.7130  125.4730 C.ar   15  TYR15       0.1957
     21  OH        49.6300   34.6880  125.8590 O.3    15  TYR15      -0.2866
     22  N         41.0450   33.9770  129.3500 N.3    18  PHE18      -0.1227
     23  CA        41.7130   32.8900  130.0730 C.3    18  PHE18       0.1736
     24  C         42.6620   33.3940  131.1680 C.2    18  PHE18       0.2595
     25  O         42.6330   32.9120  132.2950 O.2    18  PHE18      -0.2718
     26  CB        42.4890   32.0520  129.0820 C.3    18  PHE18       0.0547
     27  CG        43.2000   30.8570  129.6720 C.ar   18  PHE18      -0.0202
     28  CD1       42.5280   29.6560  129.8740 C.ar   18  PHE18      -0.0042
     29  CD2       44.5420   30.9140  129.9650 C.ar   18  PHE18      -0.0042
     30  CE1       43.1980   28.5440  130.3760 C.ar   18  PHE18      -0.0003
     31  CE2       45.2100   29.8060  130.4680 C.ar   18  PHE18      -0.0003
     32  CZ        44.5350   28.6190  130.6670 C.ar   18  PHE18      -0.0000
     33  N         43.4990   34.3720  130.8370 N.am   19  TYR19      -0.1976
     34  CA        44.4920   34.8430  131.7870 C.3    19  TYR19       0.1639
     35  C         43.8990   35.8290  132.7780 C.2    19  TYR19       0.2290
     36  O         44.5630   36.2390  133.7370 O.2    19  TYR19      -0.2864
     37  CB        45.6850   35.4560  131.0600 C.3    19  TYR19       0.0560
     38  CG        46.5520   34.3820  130.4670 C.ar   19  TYR19      -0.0198
     39  CD1       47.2000   33.4830  131.3000 C.ar   19  TYR19      -0.0009
     40  CD2       46.6930   34.2380  129.0730 C.ar   19  TYR19      -0.0009
     41  CE1       47.9820   32.4850  130.7990 C.ar   19  TYR19       0.0417
     42  CE2       47.4720   33.2200  128.5460 C.ar   19  TYR19       0.0417
     43  CZ        48.1160   32.3500  129.4340 C.ar   19  TYR19       0.1957
     44  OH        48.8860   31.3170  129.0100 O.3    19  TYR19      -0.2866
     45  N         56.6380   31.5280  127.4780 N.3   125  MET125     -0.1245
     46  CA        56.7620   30.2100  126.8880 C.3   125  MET125      0.1570
     47  C         55.4310   29.4920  126.8810 C.2   125  MET125      0.2261
     48  O         54.7630   29.4280  127.8830 O.2   125  MET125     -0.2867
     49  CB        57.7760   29.3670  127.6510 C.3   125  MET125      0.0387
     50  CG        59.2140   29.9190  127.6770 C.3   125  MET125      0.0595
     51  SD        59.5820   31.0230  129.0630 S.3   125  MET125     -0.1393
     52  CE        59.6910   29.8870  130.4100 C.3   125  MET125      0.0692
     53  N         53.4190   25.6700  125.2670 N.3   127  TYR127     -0.1241
     54  CA        53.7360   24.3270  124.8050 C.3   127  TYR127      0.1605
     55  C         54.6860   24.3580  123.6240 C.2   127  TYR127      0.2264
     56  O         54.5440   25.2010  122.7450 O.2   127  TYR127     -0.2867
     57  CB        52.4970   23.5740  124.3750 C.3   127  TYR127      0.0534
     58  CG        51.4960   23.2990  125.4700 C.ar  127  TYR127     -0.0201
     59  CD1       51.8950   22.8760  126.7250 C.ar  127  TYR127     -0.0009
     60  CD2       50.1570   23.4520  125.2410 C.ar  127  TYR127     -0.0009
     61  CE1       50.9840   22.5860  127.7110 C.ar  127  TYR127      0.0417
     62  CE2       49.2260   23.1720  126.2180 C.ar  127  TYR127      0.0417
     63  CZ        49.6480   22.7510  127.4590 C.ar  127  TYR127      0.1957
     64  OH        48.7290   22.4700  128.4270 O.3   127  TYR127     -0.2866
     65  N         53.9860   27.9810  121.3270 N.3   131  ASN131     -0.1225
     66  CA        52.5440   28.1400  121.3820 C.3   131  ASN131      0.1785
     67  C         52.1590   29.4040  122.1360 C.2   131  ASN131      0.2597
     68  O         52.8600   29.7570  123.0590 O.2   131  ASN131     -0.2718
     69  CB        51.8850   26.9450  122.0390 C.3   131  ASN131      0.1169
     70  CG        50.4020   26.9730  121.8520 C.2   131  ASN131      0.2627
     71  OD1       49.9090   27.2330  120.7550 O.2   131  ASN131     -0.2716
     72  ND2       49.6780   26.7210  122.9110 N.am  131  ASN131     -0.0877
     73  N         51.0710   30.0570  121.6940 N.am  132  GLU132     -0.1979
     74  CA        50.5400   31.3380  122.1820 C.3   132  GLU132      0.1602
     75  C         51.1670   32.5790  121.5230 C.2   132  GLU132      0.2287
     76  O         50.6110   33.6760  121.6170 O.2   132  GLU132     -0.2864
     77  CB        50.6640   31.4520  123.7280 C.3   132  GLU132      0.0415
     78  CG        49.9490   30.3500  124.4500 C.3   132  GLU132      0.1163
     79  CD        50.0990   30.4010  125.9750 C.2   132  GLU132      0.3649
     80  OE1       49.9450   31.4890  126.6000 O.co2 132  GLU132     -0.2457
     81  OE2       50.4000   29.3210  126.5230 O.co2 132  GLU132     -0.2457
     82  N         53.9350   22.4340  134.3100 N.3   280  HIS280     -0.1226
     83  CA        52.6250   22.5420  133.6830 C.3   280  HIS280      0.1752
     84  C         52.7410   22.5720  132.1540 C.2   280  HIS280      0.2596
     85  O         51.7430   22.5560  131.4420 O.2   280  HIS280     -0.2718
     86  CB        51.9050   23.7810  134.2050 C.3   280  HIS280      0.0759
     87  CG        52.4920   25.0620  133.7090 C.ar  280  HIS280      0.0818
     88  ND1       53.6790   25.5730  134.1910 N.ar  280  HIS280     -0.2268
     89  CD2       52.0680   25.9270  132.7610 C.ar  280  HIS280      0.1154
     90  CE1       53.9490   26.7020  133.5760 C.ar  280  HIS280      0.1986
     91  NE2       52.9930   26.9330  132.6990 N.ar  280  HIS280     -0.2212
     92  N         53.9630   22.5990  131.6390 N.am  281  TRP281     -0.1976
     93  CA        54.1590   22.4570  130.2020 C.3   281  TRP281      0.1640
     94  C         54.2180   20.9880  129.7590 C.2   281  TRP281      0.2290
     95  O         54.1480   20.7210  128.5770 O.2   281  TRP281     -0.2864
     96  CB        55.4370   23.1600  129.7560 C.3   281  TRP281      0.0576
     97  CG        55.3350   24.6700  129.7890 C.ar  281  TRP281      0.0006
     98  CD1       54.6510   25.4540  128.9300 C.ar  281  TRP281      0.0946
     99  CD2       55.9780   25.5510  130.7110 C.ar  281  TRP281      0.0152
    100  NE1       54.8230   26.7680  129.2410 N.ar  281  TRP281     -0.2442
    101  CE2       55.6410   26.8560  130.3390 C.ar  281  TRP281      0.0810
    102  CE3       56.8050   25.3580  131.8130 C.ar  281  TRP281      0.0012
    103  CZ2       56.0990   27.9730  131.0400 C.ar  281  TRP281      0.0191
    104  CZ3       57.2750   26.4580  132.4930 C.ar  281  TRP281      0.0001
    105  CH2       56.9130   27.7520  132.1180 C.ar  281  TRP281      0.0015
    106  N         47.2630   24.6680  118.0340 N.3   336  LYS336     -0.1245
    107  CA        46.2610   25.4100  118.7950 C.3   336  LYS336      0.1561
    108  C         45.3020   24.4670  119.4920 C.2   336  LYS336      0.2260
    109  O         44.7140   24.8260  120.5040 O.2   336  LYS336     -0.2867
    110  CB        45.4630   26.3710  117.8980 C.3   336  LYS336      0.0271
    111  CG        44.5390   27.3480  118.6880 C.3   336  LYS336      0.0035
    112  CD        45.2970   28.1930  119.7110 C.3   336  LYS336      0.0206
    113  CE        44.3830   29.1140  120.5080 C.3   336  LYS336      0.1093
    114  NZ        43.7110   30.1460  119.6890 N.3   336  LYS336     -0.1314
@<TRIPOS>BOND
     1   110   111    1
     2   110   107    1
     3   106   107    1
     4   111   112    1
     5   107   108    1
     6   108   109    2
     7   114   113    1
     8   112   113    1
     9    71    70    2
    10    65    66    1
    11    66    69    1
    12    66    67    1
    13    75    76    2
    14    75    74    1
    15    73    67   am
    16    73    74    1
    17    70    69    1
    18    70    72   am
    19     8     7    2
    20    67    68    2
    21    74    77    1
    22    56    55    2
    23     7     9   am
    24     7     6    1
    25     5     6    1
    26     5     2    1
    27    55    54    1
    28    77    78    1
    29     1     2    1
    30    14    15    1
    31    14    11    1
    32    57    54    1
    33    57    58    1
    34    78    79    1
    35     2     3    1
    36    10    11    1
    37    10     3   am
    38    15    16   ar
    39    15    17   ar
    40    16    18   ar
    41    54    53    1
    42    18    20   ar
    43    17    19   ar
    44    60    58   ar
    45    60    62   ar
    46    11    12    1
    47     3     4    2
    48    58    59   ar
    49    20    19   ar
    50    20    21    1
    51    79    81   ar
    52    79    80   ar
    53    62    63   ar
    54    12    13    2
    55    59    61   ar
    56    47    46    1
    57    47    48    2
    58    46    45    1
    59    46    49    1
    60    63    61   ar
    61    63    64    1
    62    49    50    1
    63    50    51    1
    64    42    40   ar
    65    42    43   ar
    66    95    94    2
    67    98   100   ar
    68    98    97   ar
    69    44    43    1
    70    51    52    1
    71    40    38   ar
    72    26    27    1
    73    26    23    1
    74   100   101   ar
    75    22    23    1
    76    43    41   ar
    77    27    28   ar
    78    27    29   ar
    79    96    97    1
    80    96    93    1
    81    94    93    1
    82    97    99   ar
    83    28    30   ar
    84    29    31   ar
    85    23    24    1
    86    93    92    1
    87   101    99   ar
    88   101   103   ar
    89    30    32   ar
    90    38    37    1
    91    38    39   ar
    92    31    32   ar
    93    99   102   ar
    94    41    39   ar
    95    33    24   am
    96    33    34    1
    97   103   105   ar
    98    37    34    1
    99    24    25    2
   100    85    84    2
   101    92    84   am
   102    34    35    1
   103   102   104   ar
   104   105   104   ar
   105    84    83    1
   106    91    89   ar
   107    91    90   ar
   108    89    87   ar
   109    35    36    2
   110    90    88   ar
   111    83    86    1
   112    83    82    1
   113    87    88   ar
   114    87    86    1
