@<TRIPOS>MOLECULE
tmp/5isfA01.pdb
 135 134 0 0 0
SMALL
GASTEIGER

@<TRIPOS>ATOM
      1  N         39.3970   35.2820  124.0540 N.3    14  GLN14      -0.1231
      2  CA        39.4860   34.0300  124.7970 C.3    14  GLN14       0.1698
      3  C         40.7990   33.9460  125.5600 C.2    14  GLN14       0.2592
      4  O         40.8320   33.5250  126.7160 O.2    14  GLN14      -0.2718
      5  CB        39.3650   32.8310  123.8540 C.3    14  GLN14       0.0381
      6  CG        39.6270   31.4790  124.5290 C.3    14  GLN14       0.0905
      7  CD        39.6590   30.3160  123.5540 C.2    14  GLN14       0.2608
      8  OE1       39.1170   29.2450  123.8340 O.2    14  GLN14      -0.2717
      9  NE2       40.3160   30.5090  122.4140 N.am   14  GLN14      -0.0878
     10  N         41.8830   34.3280  124.8950 N.am   15  TYR15      -0.1976
     11  CA        43.2130   34.2480  125.4830 C.3    15  TYR15       0.1639
     12  C         43.3170   35.0730  126.7630 C.2    15  TYR15       0.2290
     13  O         43.7880   34.5830  127.7880 O.2    15  TYR15      -0.2864
     14  CB        44.2600   34.7050  124.4650 C.3    15  TYR15       0.0560
     15  CG        45.6900   34.6300  124.9500 C.ar   15  TYR15      -0.0198
     16  CD1       46.3910   33.4320  124.9320 C.ar   15  TYR15      -0.0009
     17  CD2       46.3430   35.7620  125.4130 C.ar   15  TYR15      -0.0009
     18  CE1       47.7020   33.3650  125.3690 C.ar   15  TYR15       0.0417
     19  CE2       47.6520   35.7060  125.8500 C.ar   15  TYR15       0.0417
     20  CZ        48.3280   34.5060  125.8270 C.ar   15  TYR15       0.1957
     21  OH        49.6330   34.4510  126.2650 O.3    15  TYR15      -0.2866
     22  N         41.0350   33.9590  129.6250 N.3    18  PHE18      -0.1227
     23  CA        41.6520   32.8220  130.2990 C.3    18  PHE18       0.1736
     24  C         42.5670   33.2920  131.4300 C.2    18  PHE18       0.2595
     25  O         42.4560   32.8290  132.5650 O.2    18  PHE18      -0.2718
     26  CB        42.4360   31.9750  129.2910 C.3    18  PHE18       0.0547
     27  CG        43.0990   30.7650  129.8880 C.ar   18  PHE18      -0.0202
     28  CD1       42.3930   29.5880  130.0680 C.ar   18  PHE18      -0.0042
     29  CD2       44.4360   30.7990  130.2470 C.ar   18  PHE18      -0.0042
     30  CE1       43.0070   28.4710  130.6090 C.ar   18  PHE18      -0.0003
     31  CE2       45.0520   29.6870  130.7890 C.ar   18  PHE18      -0.0003
     32  CZ        44.3380   28.5220  130.9650 C.ar   18  PHE18      -0.0000
     33  N         43.4610   34.2260  131.1230 N.am   19  TYR19      -0.1976
     34  CA        44.4310   34.6890  132.1080 C.3    19  TYR19       0.1639
     35  C         43.8350   35.7060  133.0850 C.2    19  TYR19       0.2290
     36  O         44.5230   36.1860  133.9870 O.2    19  TYR19      -0.2864
     37  CB        45.6530   35.2840  131.4040 C.3    19  TYR19       0.0560
     38  CG        46.5740   34.2290  130.8310 C.ar   19  TYR19      -0.0198
     39  CD1       47.2970   33.3900  131.6690 C.ar   19  TYR19      -0.0009
     40  CD2       46.7170   34.0670  129.4570 C.ar   19  TYR19      -0.0009
     41  CE1       48.1380   32.4170  131.1600 C.ar   19  TYR19       0.0417
     42  CE2       47.5590   33.0970  128.9360 C.ar   19  TYR19       0.0417
     43  CZ        48.2670   32.2760  129.7940 C.ar   19  TYR19       0.1957
     44  OH        49.1060   31.3090  129.2900 O.3    19  TYR19      -0.2866
     45  N         49.6470   28.4800  137.7340 N.3    28  MET28      -0.1245
     46  CA        51.0010   28.8140  137.3170 C.3    28  MET28       0.1570
     47  C         51.8890   29.1160  138.5210 C.2    28  MET28       0.2261
     48  O         53.0500   28.7170  138.5650 O.2    28  MET28      -0.2867
     49  CB        50.9820   30.0100  136.3640 C.3    28  MET28       0.0387
     50  CG        50.3500   29.7050  135.0180 C.3    28  MET28       0.0595
     51  SD        50.4770   31.0780  133.8640 S.3    28  MET28      -0.1393
     52  CE        49.3860   32.2860  134.6150 C.3    28  MET28       0.0692
     53  N         57.5780   35.5500  131.4980 N.3   123  GLU123     -0.1245
     54  CA        57.4000   34.1150  131.3680 C.3   123  GLU123      0.1567
     55  C         56.4750   33.8780  130.1840 C.2   123  GLU123      0.2260
     56  O         55.2830   33.6680  130.3620 O.2   123  GLU123     -0.2867
     57  CB        56.8280   33.5140  132.6520 C.3   123  GLU123      0.0388
     58  CG        56.8980   32.0000  132.7140 C.3   123  GLU123      0.1160
     59  CD        55.6860   31.3330  132.1090 C.2   123  GLU123      0.3649
     60  OE1       54.7380   31.0340  132.8690 O.co2 123  GLU123     -0.2457
     61  OE2       55.6820   31.1050  130.8790 O.co2 123  GLU123     -0.2457
     62  N         56.6830   31.4570  127.8050 N.3   125  MET125     -0.1230
     63  CA        56.7480   30.1190  127.2370 C.3   125  MET125      0.1702
     64  C         55.3890   29.4310  127.2680 C.2   125  MET125      0.2593
     65  O         54.6820   29.4720  128.2720 O.2   125  MET125     -0.2718
     66  CB        57.7720   29.2640  127.9870 C.3   125  MET125      0.0401
     67  CG        59.1830   29.8390  127.9750 C.3   125  MET125      0.0596
     68  SD        59.5150   30.9160  129.3820 S.3   125  MET125     -0.1393
     69  CE        59.5870   29.7250  130.7200 C.3   125  MET125      0.0692
     70  N         55.0330   28.8030  126.1520 N.am  126  GLY126     -0.1942
     71  CA        53.8610   27.9480  126.0860 C.3   126  GLY126      0.2014
     72  C         54.2740   26.5140  125.8210 C.2   126  GLY126      0.2638
     73  O         55.4660   26.1970  125.8480 O.2   126  GLY126     -0.2714
     74  N         53.2990   25.6430  125.5810 N.am  127  TYR127     -0.1973
     75  CA        53.5920   24.2770  125.1660 C.3   127  TYR127      0.1639
     76  C         54.5490   24.3060  123.9850 C.2   127  TYR127      0.2290
     77  O         54.4160   25.1500  123.1000 O.2   127  TYR127     -0.2864
     78  CB        52.3130   23.5340  124.7760 C.3   127  TYR127      0.0560
     79  CG        51.3600   23.2450  125.9140 C.ar  127  TYR127     -0.0198
     80  CD1       51.8260   22.8450  127.1610 C.ar  127  TYR127     -0.0009
     81  CD2       49.9900   23.3580  125.7350 C.ar  127  TYR127     -0.0009
     82  CE1       50.9530   22.5740  128.1950 C.ar  127  TYR127      0.0417
     83  CE2       49.1090   23.0850  126.7620 C.ar  127  TYR127      0.0417
     84  CZ        49.5940   22.6980  127.9900 C.ar  127  TYR127      0.1957
     85  OH        48.7170   22.4300  129.0160 O.3   127  TYR127     -0.2866
     86  N         53.9770   27.9260  121.6740 N.3   131  ASN131     -0.1225
     87  CA        52.5260   28.0800  121.7280 C.3   131  ASN131      0.1785
     88  C         52.1640   29.3740  122.4440 C.2   131  ASN131      0.2597
     89  O         52.8690   29.7880  123.3610 O.2   131  ASN131     -0.2718
     90  CB        51.8690   26.8940  122.4310 C.3   131  ASN131      0.1169
     91  CG        50.3610   26.9140  122.3000 C.2   131  ASN131      0.2627
     92  OD1       49.8250   27.1180  121.2100 O.2   131  ASN131     -0.2716
     93  ND2       49.6680   26.7240  123.4130 N.am  131  ASN131     -0.0877
     94  N         51.0670   29.9940  122.0010 N.am  132  GLU132     -0.1979
     95  CA        50.5610   31.2780  122.5200 C.3   132  GLU132      0.1602
     96  C         51.2090   32.4810  121.8310 C.2   132  GLU132      0.2287
     97  O         50.6800   33.5890  121.8950 O.2   132  GLU132     -0.2864
     98  CB        50.7520   31.3960  124.0380 C.3   132  GLU132      0.0415
     99  CG        50.0220   30.3260  124.8350 C.3   132  GLU132      0.1163
    100  CD        50.2110   30.4850  126.3270 C.2   132  GLU132      0.3649
    101  OE1       50.2280   31.6410  126.8100 O.co2 132  GLU132     -0.2457
    102  OE2       50.3540   29.4550  127.0190 O.co2 132  GLU132     -0.2457
    103  N         53.9470   22.3700  134.6070 N.3   280  HIS280     -0.1226
    104  CA        52.6190   22.4440  134.0100 C.3   280  HIS280      0.1752
    105  C         52.7140   22.4880  132.4830 C.2   280  HIS280      0.2596
    106  O         51.6970   22.5260  131.7940 O.2   280  HIS280     -0.2718
    107  CB        51.8550   23.6620  134.5370 C.3   280  HIS280      0.0759
    108  CG        52.4180   24.9720  134.0840 C.ar  280  HIS280      0.0818
    109  ND1       53.6160   25.4690  134.5500 N.ar  280  HIS280     -0.2268
    110  CD2       51.9430   25.8910  133.2110 C.ar  280  HIS280      0.1154
    111  CE1       53.8570   26.6360  133.9790 C.ar  280  HIS280      0.1986
    112  NE2       52.8560   26.9150  133.1640 N.ar  280  HIS280     -0.2212
    113  N         53.9380   22.4790  131.9590 N.am  281  TRP281     -0.1976
    114  CA        54.1570   22.3870  130.5200 C.3   281  TRP281      0.1640
    115  C         54.2180   20.9310  130.0570 C.2   281  TRP281      0.2290
    116  O         54.0400   20.6450  128.8720 O.2   281  TRP281     -0.2864
    117  CB        55.4510   23.1000  130.1220 C.3   281  TRP281      0.0576
    118  CG        55.3430   24.5970  130.1080 C.ar  281  TRP281      0.0006
    119  CD1       54.6400   25.3580  129.2220 C.ar  281  TRP281      0.0946
    120  CD2       55.9700   25.5110  131.0130 C.ar  281  TRP281      0.0152
    121  NE1       54.7850   26.6910  129.5220 N.ar  281  TRP281     -0.2442
    122  CE2       55.5980   26.8120  130.6180 C.ar  281  TRP281      0.0810
    123  CE3       56.8090   25.3580  132.1210 C.ar  281  TRP281      0.0012
    124  CZ2       56.0310   27.9490  131.2910 C.ar  281  TRP281      0.0191
    125  CZ3       57.2410   26.4930  132.7890 C.ar  281  TRP281      0.0001
    126  CH2       56.8510   27.7700  132.3710 C.ar  281  TRP281      0.0015
    127  N         47.2790   24.6310  118.3950 N.3   336  LYS336     -0.1245
    128  CA        46.2750   25.3720  119.1550 C.3   336  LYS336      0.1561
    129  C         45.3550   24.4310  119.9260 C.2   336  LYS336      0.2260
    130  O         44.9260   24.7450  121.0360 O.2   336  LYS336     -0.2867
    131  CB        45.4340   26.2570  118.2330 C.3   336  LYS336      0.0271
    132  CG        44.3770   27.0840  118.9710 C.3   336  LYS336      0.0035
    133  CD        44.9830   28.3270  119.5810 C.3   336  LYS336      0.0206
    134  CE        44.1550   28.8530  120.7440 C.3   336  LYS336      0.1093
    135  NZ        43.8130   30.2940  120.5840 N.3   336  LYS336     -0.1314
@<TRIPOS>BOND
     1   131   132    1
     2   131   128    1
     3   127   128    1
     4   132   133    1
     5   128   129    1
     6   133   134    1
     7   129   130    2
     8   135   134    1
     9    92    91    2
    10    86    87    1
    11    87    90    1
    12    87    88    1
    13    96    97    2
    14    96    95    1
    15    94    88   am
    16    94    95    1
    17    91    90    1
    18    91    93   am
    19     9     7   am
    20    88    89    2
    21    95    98    1
    22    77    76    2
    23     7     8    2
    24     7     6    1
    25     5     6    1
    26     5     2    1
    27    76    75    1
    28    98    99    1
    29     1     2    1
    30    14    15    1
    31    14    11    1
    32    78    75    1
    33    78    79    1
    34     2     3    1
    35    99   100    1
    36    10    11    1
    37    10     3   am
    38    16    15   ar
    39    16    18   ar
    40    15    17   ar
    41    75    74    1
    42    18    20   ar
    43    17    19   ar
    44    11    12    1
    45     3     4    2
    46    74    72   am
    47    81    79   ar
    48    81    83   ar
    49    72    73    2
    50    72    71    1
    51    20    19   ar
    52    20    21    1
    53    79    80   ar
    54    71    70    1
    55    70    64   am
    56   100   101   ar
    57   100   102   ar
    58    83    84   ar
    59    12    13    2
    60    80    82   ar
    61    63    64    1
    62    63    62    1
    63    63    66    1
    64    64    65    2
    65    67    66    1
    66    67    68    1
    67    84    82   ar
    68    84    85    1
    69   116   115    2
    70    42    40   ar
    71    42    43   ar
    72   119   121   ar
    73   119   118   ar
    74    44    43    1
    75    26    27    1
    76    26    23    1
    77    68    69    1
    78    40    38   ar
    79   121   122   ar
    80    22    23    1
    81    43    41   ar
    82    27    28   ar
    83    27    29   ar
    84   115   114    1
    85    28    30   ar
    86   118   117    1
    87   118   120   ar
    88   117   114    1
    89    55    56    2
    90    55    54    1
    91    29    31   ar
    92    23    24    1
    93   114   113    1
    94    30    32   ar
    95   122   120   ar
    96   122   124   ar
    97    31    32   ar
    98    38    37    1
    99    38    39   ar
   100    61    59   ar
   101   120   123   ar
   102    33    24   am
   103    33    34    1
   104    41    39   ar
   105   124   126   ar
   106    54    53    1
   107    54    57    1
   108    37    34    1
   109    24    25    2
   110   106   105    2
   111   113   105   am
   112    34    35    1
   113    59    58    1
   114    59    60   ar
   115   123   125   ar
   116   126   125   ar
   117   105   104    1
   118    57    58    1
   119    35    36    2
   120   112   110   ar
   121   112   111   ar
   122   110   108   ar
   123    51    52    1
   124    51    50    1
   125   111   109   ar
   126   104   107    1
   127   104   103    1
   128   108   107    1
   129   108   109   ar
   130    50    49    1
   131    49    46    1
   132    46    45    1
   133    46    47    1
   134    47    48    2
