@<TRIPOS>MOLECULE
tmp/5ishB00.pdb
 221 211 0 0 0
SMALL
GASTEIGER

@<TRIPOS>ATOM
      1  N         20.7980   36.0520  115.9320 N.3     3  PHE3       -0.1241
      2  CA        21.8970   35.3710  116.6130 C.3     3  PHE3        0.1605
      3  C         23.0580   36.3220  116.8800 C.2     3  PHE3        0.2264
      4  O         23.5420   36.4200  118.0080 O.2     3  PHE3       -0.2867
      5  CB        22.3890   34.1720  115.7950 C.3     3  PHE3        0.0534
      6  CG        23.5020   33.4100  116.4600 C.ar    3  PHE3       -0.0203
      7  CD1       23.2270   32.3680  117.3340 C.ar    3  PHE3       -0.0042
      8  CD2       24.8250   33.7510  116.2280 C.ar    3  PHE3       -0.0042
      9  CE1       24.2500   31.6740  117.9510 C.ar    3  PHE3       -0.0003
     10  CE2       25.8530   33.0560  116.8440 C.ar    3  PHE3       -0.0003
     11  CZ        25.5620   32.0180  117.7060 C.ar    3  PHE3       -0.0000
     12  N         32.3680   28.6890  120.1080 N.3    15  TYR15      -0.1227
     13  CA        31.2360   27.7850  120.2340 C.3    15  TYR15       0.1736
     14  C         31.1420   26.8390  119.0530 C.2    15  TYR15       0.2595
     15  O         31.0530   25.6240  119.2210 O.2    15  TYR15      -0.2718
     16  CB        29.9460   28.5920  120.3560 C.3    15  TYR15       0.0548
     17  CG        28.6990   27.7550  120.5010 C.ar   15  TYR15      -0.0200
     18  CD1       28.3530   27.1870  121.7210 C.ar   15  TYR15      -0.0009
     19  CD2       27.8620   27.5430  119.4160 C.ar   15  TYR15      -0.0009
     20  CE1       27.2060   26.4310  121.8520 C.ar   15  TYR15       0.0417
     21  CE2       26.7170   26.7900  119.5370 C.ar   15  TYR15       0.0417
     22  CZ        26.3930   26.2350  120.7560 C.ar   15  TYR15       0.1957
     23  OH        25.2520   25.4810  120.8690 O.3    15  TYR15      -0.2866
     24  N         31.1550   27.3990  117.8500 N.am   16  PHE16      -0.1976
     25  CA        30.9860   26.5810  116.6580 C.3    16  PHE16       0.1639
     26  C         32.2620   25.8340  116.2910 C.2    16  PHE16       0.2290
     27  O         32.1970   24.7510  115.7100 O.2    16  PHE16      -0.2864
     28  CB        30.4950   27.4490  115.5040 C.3    16  PHE16       0.0560
     29  CG        29.0860   27.9320  115.6970 C.ar   16  PHE16      -0.0200
     30  CD1       28.0400   27.0230  115.7740 C.ar   16  PHE16      -0.0042
     31  CD2       28.8070   29.2780  115.8430 C.ar   16  PHE16      -0.0042
     32  CE1       26.7390   27.4520  115.9750 C.ar   16  PHE16      -0.0003
     33  CE2       27.5040   29.7110  116.0450 C.ar   16  PHE16      -0.0003
     34  CZ        26.4730   28.7980  116.1080 C.ar   16  PHE16      -0.0000
     35  N         31.9640   22.5110  118.3090 N.3    19  TYR19      -0.1241
     36  CA        31.0980   21.4670  117.7640 C.3    19  TYR19       0.1605
     37  C         31.5160   20.9810  116.3730 C.2    19  TYR19       0.2264
     38  O         30.9220   20.0430  115.8410 O.2    19  TYR19      -0.2867
     39  CB        29.6520   21.9600  117.7190 C.3    19  TYR19       0.0534
     40  CG        28.9760   21.9520  119.0680 C.ar   19  TYR19      -0.0201
     41  CD1       28.7360   20.7610  119.7310 C.ar   19  TYR19      -0.0009
     42  CD2       28.5770   23.1340  119.6800 C.ar   19  TYR19      -0.0009
     43  CE1       28.1200   20.7370  120.9670 C.ar   19  TYR19       0.0417
     44  CE2       27.9560   23.1240  120.9160 C.ar   19  TYR19       0.0417
     45  CZ        27.7300   21.9190  121.5550 C.ar   19  TYR19       0.1957
     46  OH        27.1150   21.8870  122.7880 O.3    19  TYR19      -0.2866
     47  N         31.2040   15.3000  118.6610 N.3    25  GLN25      -0.1245
     48  CA        30.0190   14.6290  118.1380 C.3    25  GLN25       0.1566
     49  C         29.9990   13.1920  118.6580 C.2    25  GLN25       0.2260
     50  O         28.9620   12.7020  119.0910 O.2    25  GLN25      -0.2867
     51  CB        29.9880   14.6690  116.6100 C.3    25  GLN25       0.0367
     52  CG        29.9210   16.0790  116.0340 C.3    25  GLN25       0.0905
     53  CD        28.6340   16.8220  116.3850 C.2    25  GLN25       0.2608
     54  OE1       27.5930   16.2090  116.6170 O.2    25  GLN25      -0.2717
     55  NE2       28.7090   18.1540  116.4320 N.am   25  GLN25      -0.0878
     56  N         28.9490   13.1140  122.2990 N.3    28  MET28      -0.1230
     57  CA        27.4960   13.2250  122.4160 C.3    28  MET28       0.1702
     58  C         26.7670   11.9640  121.9400 C.2    28  MET28       0.2592
     59  O         25.8000   11.5090  122.5640 O.2    28  MET28      -0.2718
     60  CB        26.9870   14.4310  121.6300 C.3    28  MET28       0.0401
     61  CG        27.3050   15.7590  122.2800 C.3    28  MET28       0.0596
     62  SD        26.7620   17.1530  121.2730 S.3    28  MET28      -0.1393
     63  CE        27.9010   17.0290  119.8990 C.3    28  MET28       0.0692
     64  N         27.2170   11.4100  120.8240 N.am   29  MET29      -0.1979
     65  CA        26.5690   10.2420  120.2520 C.3    29  MET29       0.1605
     66  C         26.6840    9.0480  121.1890 C.2    29  MET29       0.2287
     67  O         25.7650    8.2400  121.2730 O.2    29  MET29      -0.2864
     68  CB        27.1670    9.9280  118.8830 C.3    29  MET29       0.0413
     69  CG        26.8280   10.9810  117.8410 C.3    29  MET29       0.0598
     70  SD        27.9130   10.9460  116.4050 S.3    29  MET29      -0.1393
     71  CE        27.2990    9.4640  115.6170 C.3    29  MET29       0.0692
     72  N         20.8590    9.5100  126.0610 N.3    34  ARG34      -0.1245
     73  CA        20.4690   10.6070  125.1860 C.3    34  ARG34       0.1563
     74  C         20.0380   10.1010  123.8050 C.2    34  ARG34       0.2260
     75  O         18.9040   10.3200  123.3650 O.2    34  ARG34      -0.2867
     76  CB        21.6340   11.5850  125.0450 C.3    34  ARG34       0.0307
     77  CG        21.3230   12.8510  124.2700 C.3    34  ARG34       0.0489
     78  CD        22.6060   13.4810  123.7550 C.3    34  ARG34       0.2205
     79  NE        23.0300   12.8440  122.5100 N.pl3  34  ARG34      -0.0865
     80  CZ        22.9330   13.3910  121.2980 C.cat  34  ARG34       0.5346
     81  NH1       22.4450   14.6200  121.1360 N.pl3  34  ARG34       0.1354
     82  NH2       23.3370   12.7060  120.2370 N.pl3  34  ARG34       0.1354
     83  N         15.4790   19.9280  111.4320 N.3    56  ASP56      -0.1225
     84  CA        16.4290   19.5310  112.4700 C.3    56  ASP56       0.1805
     85  C         17.3400   20.7110  112.7870 C.2    56  ASP56       0.2598
     86  O         18.1840   21.0900  111.9710 O.2    56  ASP56      -0.2718
     87  CB        17.2440   18.3190  112.0220 C.3    56  ASP56       0.1424
     88  CG        18.2500   17.8590  113.0690 C.2    56  ASP56       0.3668
     89  OD1       18.4190   18.5470  114.0950 O.co2  56  ASP56      -0.2456
     90  OD2       18.8810   16.8020  112.8590 O.co2  56  ASP56      -0.2456
     91  N         17.1610   21.3010  113.9650 N.am   57  VAL57      -0.1966
     92  CA        17.9120   22.5040  114.3190 C.3    57  VAL57       0.1727
     93  C         19.2400   22.1400  114.9840 C.2    57  VAL57       0.2617
     94  O         19.2690   21.6560  116.1150 O.2    57  VAL57      -0.2715
     95  CB        17.0860   23.4300  115.2260 C.3    57  VAL57       0.0290
     96  CG1       17.9060   24.6450  115.6410 C.3    57  VAL57       0.0023
     97  CG2       15.8060   23.8790  114.5130 C.3    57  VAL57       0.0023
     98  N         20.3370   22.3980  114.2790 N.am   58  GLY58      -0.1940
     99  CA        21.6600   22.0870  114.7880 C.3    58  GLY58       0.2014
    100  C         21.9270   20.6010  114.7050 C.2    58  GLY58       0.2639
    101  O         22.1360   19.9390  115.7200 O.2    58  GLY58      -0.2714
    102  N         21.9360   20.0830  113.4800 N.am   59  CYS59      -0.1953
    103  CA        21.9080   18.6400  113.2470 C.3    59  CYS59       0.1843
    104  C         23.2100   17.9310  113.6240 C.2    59  CYS59       0.2626
    105  O         23.2290   16.7100  113.7740 O.2    59  CYS59      -0.2714
    106  CB        21.5740   18.3580  111.7800 C.3    59  CYS59       0.0997
    107  SG        22.8910   18.7740  110.6040 S.3    59  CYS59      -0.0797
    108  N         24.2950   18.6860  113.7580 N.am   60  GLY60      -0.1940
    109  CA        25.5900   18.0970  114.0550 C.3    60  GLY60       0.2014
    110  C         25.9570   17.0370  113.0290 C.2    60  GLY60       0.2639
    111  O         26.0440   17.3190  111.8300 O.2    60  GLY60      -0.2714
    112  N         26.1550   15.8100  113.5030 N.am   61  SER61      -0.1949
    113  CA        26.4670   14.6850  112.6290 C.3    61  SER61       0.1924
    114  C         25.2670   14.3290  111.7600 C.2    61  SER61       0.2314
    115  O         25.4160   13.6980  110.7130 O.2    61  SER61      -0.2863
    116  CB        26.8920   13.4670  113.4560 C.3    61  SER61       0.2116
    117  OG        25.8170   13.0060  114.2560 O.3    61  SER61      -0.2180
    118  N         22.4590   12.7800  113.1920 N.3    63  ILE63      -0.1231
    119  CA        21.8540   11.5720  113.7610 C.3    63  ILE63       0.1692
    120  C         20.3280   11.6890  113.9040 C.2    63  ILE63       0.2591
    121  O         19.5800   10.7710  113.5340 O.2    63  ILE63      -0.2718
    122  CB        22.5300   11.2350  115.1260 C.3    63  ILE63       0.0266
    123  CG1       22.0450    9.8930  115.6720 C.3    63  ILE63       0.0019
    124  CG2       22.2910   12.3350  116.1520 C.3    63  ILE63       0.0020
    125  CD1       22.5700    8.7070  114.9230 C.3    63  ILE63       0.0001
    126  N         19.8530   12.8140  114.4310 N.am   64  LEU64      -0.1980
    127  CA        18.4180   12.9800  114.6540 C.3    64  LEU64       0.1596
    128  C         17.6680   12.9910  113.3230 C.2    64  LEU64       0.2287
    129  O         16.5500   12.4770  113.2180 O.2    64  LEU64      -0.2864
    130  CB        18.1280   14.2650  115.4380 C.3    64  LEU64       0.0297
    131  CG        18.7660   14.3870  116.8240 C.3    64  LEU64       0.0022
    132  CD1       18.2500   15.6250  117.5280 C.3    64  LEU64       0.0001
    133  CD2       18.5170   13.1440  117.6780 C.3    64  LEU64       0.0001
    134  N         19.7280   21.8320  109.5380 N.3    79  VAL79      -0.1231
    135  CA        20.4850   23.0740  109.6060 C.3    79  VAL79       0.1692
    136  C         21.6360   22.9260  110.6010 C.2    79  VAL79       0.2592
    137  O         21.4420   22.4580  111.7230 O.2    79  VAL79      -0.2718
    138  CB        19.5640   24.2540  109.9690 C.3    79  VAL79       0.0266
    139  CG1       20.3510   25.5560  110.0490 C.3    79  VAL79       0.0020
    140  CG2       18.4420   24.3730  108.9440 C.3    79  VAL79       0.0020
    141  N         22.8360   23.3120  110.1760 N.am   80  GLU80      -0.1966
    142  CA        24.0190   23.2380  111.0360 C.3    80  GLU80       0.1733
    143  C         25.0030   24.3440  110.6850 C.2    80  GLU80       0.2616
    144  O         25.3490   24.5270  109.5220 O.2    80  GLU80      -0.2715
    145  CB        24.6960   21.8670  110.9150 C.3    80  GLU80       0.0429
    146  CG        26.0420   21.7600  111.6320 C.3    80  GLU80       0.1163
    147  CD        25.9360   21.9750  113.1350 C.2    80  GLU80       0.3649
    148  OE1       25.0490   21.3610  113.7650 O.co2  80  GLU80      -0.2457
    149  OE2       26.7470   22.7520  113.6880 O.co2  80  GLU80      -0.2457
    150  N         25.4460   25.0770  111.7020 N.am   81  ALA81      -0.1963
    151  CA        26.2660   26.2670  111.4990 C.3    81  ALA81       0.1728
    152  C         27.7650   25.9620  111.5140 C.2    81  ALA81       0.2616
    153  O         28.5490   26.6740  110.8870 O.2    81  ALA81      -0.2715
    154  CB        25.9360   27.3050  112.5520 C.3    81  ALA81       0.0334
    155  N         28.1670   24.9200  112.2370 N.am   82  SER82      -0.1950
    156  CA        29.5810   24.5470  112.2910 C.3    82  SER82       0.1924
    157  C         29.9860   23.8110  111.0190 C.2    82  SER82       0.2314
    158  O         29.1440   23.4990  110.1720 O.2    82  SER82      -0.2863
    159  CB        29.8760   23.6700  113.5150 C.3    82  SER82       0.2116
    160  OG        29.4930   22.3220  113.2900 O.3    82  SER82      -0.2180
    161  N         24.6130   26.8680  107.8850 N.3   106  GLY106     -0.1210
    162  CA        24.3280   28.1980  108.3830 C.3   106  GLY106      0.1956
    163  C         23.5850   28.2090  109.7040 C.2   106  GLY106      0.2612
    164  O         23.2730   27.1560  110.2820 O.2   106  GLY106     -0.2717
    165  N         23.3090   29.4210  110.1740 N.am  107  LYS107     -0.1965
    166  CA        22.6030   29.6390  111.4240 C.3   107  LYS107      0.1728
    167  C         21.1190   29.5420  111.1190 C.2   107  LYS107      0.2616
    168  O         20.6670   30.0620  110.0970 O.2   107  LYS107     -0.2715
    169  CB        22.9020   31.0290  111.9930 C.3   107  LYS107      0.0311
    170  CG        24.3670   31.4330  112.0450 C.3   107  LYS107      0.0038
    171  CD        25.1020   30.9540  113.2670 C.3   107  LYS107      0.0206
    172  CE        26.2690   31.8950  113.5730 C.3   107  LYS107      0.1093
    173  NZ        26.9930   32.3680  112.3560 N.3   107  LYS107     -0.1314
    174  N         20.3480   28.9030  111.9890 N.am  108  VAL108     -0.1963
    175  CA        18.9240   28.7610  111.7270 C.3   108  VAL108      0.1727
    176  C         18.2800   30.1490  111.6820 C.2   108  VAL108      0.2616
    177  O         17.2390   30.3390  111.0510 O.2   108  VAL108     -0.2715
    178  CB        18.2450   27.8540  112.7700 C.3   108  VAL108      0.0290
    179  CG1       18.1850   28.5290  114.1370 C.3   108  VAL108      0.0023
    180  CG2       16.8530   27.4670  112.2970 C.3   108  VAL108      0.0023
    181  N         18.9190   31.1180  112.3380 N.am  109  GLU109     -0.1977
    182  CA        18.4450   32.5030  112.3490 C.3   109  GLU109      0.1602
    183  C         18.7220   33.2190  111.0320 C.2   109  GLU109      0.2287
    184  O         18.1930   34.3060  110.7870 O.2   109  GLU109     -0.2864
    185  CB        19.1080   33.2940  113.4820 C.3   109  GLU109      0.0415
    186  CG        18.7390   32.8490  114.8900 C.3   109  GLU109      0.1163
    187  CD        19.6310   31.7350  115.4190 C.2   109  GLU109      0.3649
    188  OE1       20.4250   31.1630  114.6350 O.co2 109  GLU109     -0.2457
    189  OE2       19.5450   31.4450  116.6330 O.co2 109  GLU109     -0.2457
    190  N         18.3250   19.0160  119.6780 N.3   123  GLU123     -0.1245
    191  CA        18.8820   18.7440  120.9940 C.3   123  GLU123      0.1567
    192  C         19.5940   20.0070  121.4640 C.2   123  GLU123      0.2260
    193  O         20.8130   20.1140  121.3490 O.2   123  GLU123     -0.2867
    194  CB        19.8410   17.5520  120.9410 C.3   123  GLU123      0.0388
    195  CG        20.1050   16.9060  122.2910 C.3   123  GLU123      0.1160
    196  CD        21.3450   17.4470  122.9640 C.2   123  GLU123      0.3649
    197  OE1       21.2990   18.5900  123.4750 O.co2 123  GLU123     -0.2457
    198  OE2       22.3670   16.7270  122.9730 O.co2 123  GLU123     -0.2457
    199  N         24.3670   27.6940  126.9200 N.3   132  GLU132     -0.1245
    200  CA        24.6030   27.7630  125.4670 C.3   132  GLU132      0.1567
    201  C         23.5240   28.5780  124.7410 C.2   132  GLU132      0.2260
    202  O         23.7270   28.9930  123.5990 O.2   132  GLU132     -0.2867
    203  CB        24.7000   26.3660  124.8370 C.3   132  GLU132      0.0388
    204  CG        25.7790   25.4840  125.4360 C.3   132  GLU132      0.1160
    205  CD        25.8220   24.1040  124.8050 C.2   132  GLU132      0.3649
    206  OE1       25.6730   24.0080  123.5640 O.co2 132  GLU132     -0.2457
    207  OE2       26.0160   23.1180  125.5480 O.co2 132  GLU132     -0.2457
    208  N         20.9610   27.8070  123.2950 N.3   134  MET134     -0.1245
    209  CA        20.5240   27.2210  122.0390 C.3   134  MET134      0.1570
    210  C         19.0040   27.0540  121.9850 C.2   134  MET134      0.2261
    211  O         18.4350   26.8900  120.9070 O.2   134  MET134     -0.2867
    212  CB        21.2030   25.8740  121.8050 C.3   134  MET134      0.0387
    213  CG        21.0120   25.3690  120.3820 C.3   134  MET134      0.0595
    214  SD        21.8420   23.8140  120.0260 S.3   134  MET134     -0.1393
    215  CE        20.9490   23.3210  118.5560 C.3   134  MET134      0.0692
    216  N         17.4460   29.5720  119.6410 N.3   137  SER137     -0.1217
    217  CA        17.4830   29.2200  118.2220 C.3   137  SER137      0.1889
    218  C         16.3390   28.2590  117.9040 C.2   137  SER137      0.2288
    219  O         15.6650   28.3660  116.8700 O.2   137  SER137     -0.2866
    220  CB        18.8240   28.5830  117.8530 C.3   137  SER137      0.2089
    221  OG        19.9020   29.4520  118.1460 O.3   137  SER137     -0.2183
@<TRIPOS>BOND
     1   161   162    1
     2   162   163    1
     3   140   138    1
     4   144   143    2
     5   134   135    1
     6   135   138    1
     7   135   136    1
     8   163   165   am
     9   163   164    2
    10   138   139    1
    11   168   167    2
    12   158   157    2
    13   165   166    1
    14   141   136   am
    15   141   142    1
    16   136   137    2
    17   107   106    1
    18   143   142    1
    19   143   150   am
    20   115   114    2
    21   184   183    2
    22   153   152    2
    23   145   142    1
    24   145   146    1
    25   157   156    1
    26   183   182    1
    27   177   176    2
    28   167   166    1
    29   167   174   am
    30   166   169    1
    31    83    84    1
    32   151   152    1
    33   151   150    1
    34   151   154    1
    35   152   155   am
    36   146   147    1
    37   176   175    1
    38   176   181   am
    39   175   174    1
    40   175   178    1
    41   114   113    1
    42   106   103    1
    43   111   110    2
    44    86    85    2
    45   169   170    1
    46    87    84    1
    47    87    88    1
    48   170   171    1
    49   155   156    1
    50   156   159    1
    51   180   178    1
    52   181   182    1
    53   182   185    1
    54   173   172    1
    55    84    85    1
    56   113   116    1
    57   113   112    1
    58   178   179    1
    59    85    91   am
    60    90    88   ar
    61   110   112   am
    62   110   109    1
    63    88    89   ar
    64   147   149   ar
    65   147   148   ar
    66   118   119    1
    67   129   128    2
    68   103   102    1
    69   103   104    1
    70   171   172    1
    71   160   159    1
    72   128   127    1
    73   116   117    1
    74   102   100   am
    75   185   186    1
    76   121   120    2
    77   104   108   am
    78   104   105    2
    79   108   109    1
    80   119   120    1
    81   119   122    1
    82   120   126   am
    83    91    92    1
    84    98    99    1
    85    98    93   am
    86    92    93    1
    87    92    95    1
    88   126   127    1
    89    97    95    1
    90   188   187   ar
    91   127   130    1
    92   100    99    1
    93   100   101    2
    94   186   187    1
    95   125   123    1
    96    93    94    2
    97   122   123    1
    98   122   124    1
    99    95    96    1
   100   187   189   ar
   101   130   131    1
   102    28    29    1
   103    28    25    1
   104    71    70    1
   105    29    30   ar
   106    29    31   ar
   107    27    26    2
   108    30    32   ar
   109     5     6    1
   110     5     2    1
   111    38    37    2
   112    31    33   ar
   113     1     2    1
   114    32    34   ar
   115    52    53    1
   116    52    51    1
   117    33    34   ar
   118     8     6   ar
   119     8    10   ar
   120    26    25    1
   121    37    36    1
   122    53    55   am
   123    53    54    2
   124    70    69    1
   125     6     7   ar
   126    51    48    1
   127     2     3    1
   128    25    24    1
   129   131   132    1
   130   131   133    1
   131    10    11   ar
   132   219   218    2
   133     3     4    2
   134     7     9   ar
   135    11     9   ar
   136    39    36    1
   137    39    40    1
   138    36    35    1
   139    69    68    1
   140    24    14   am
   141   220   221    1
   142   220   217    1
   143   218   217    1
   144    48    49    1
   145    48    47    1
   146   217   216    1
   147   215   214    1
   148    49    50    2
   149    68    65    1
   150    14    15    2
   151    14    13    1
   152    40    42   ar
   153    40    41   ar
   154    19    21   ar
   155    19    17   ar
   156    21    22   ar
   157   190   191    1
   158    42    44   ar
   159    41    43   ar
   160    63    62    1
   161   214   213    1
   162    12    13    1
   163    13    16    1
   164    82    80    1
   165    65    64    1
   166    65    66    1
   167    16    17    1
   168   213   212    1
   169    17    18   ar
   170    22    23    1
   171    22    20   ar
   172    64    58   am
   173   211   210    2
   174    44    45   ar
   175   194   191    1
   176   194   195    1
   177    43    45   ar
   178   191   192    1
   179    81    80    1
   180    66    67    2
   181    62    61    1
   182    80    79    2
   183   193   192    2
   184    45    46    1
   185    60    61    1
   186    60    57    1
   187    18    20   ar
   188   212   209    1
   189    58    57    1
   190    58    59    2
   191   210   209    1
   192   209   208    1
   193   195   196    1
   194    56    57    1
   195    79    78    1
   196   196   198   ar
   197   196   197   ar
   198    75    74    2
   199   206   205   ar
   200   202   201    2
   201    78    77    1
   202    74    73    1
   203    77    76    1
   204   201   200    1
   205   205   204    1
   206   205   207   ar
   207   203   204    1
   208   203   200    1
   209    76    73    1
   210    73    72    1
   211   200   199    1
