@<TRIPOS>MOLECULE
tmp/5ishA03.pdb
 90 87 0 0 0
SMALL
GASTEIGER

@<TRIPOS>ATOM
      1  N         50.0580    5.3290  119.8080 N.3   169  TYR169     -0.1241
      2  CA        49.7320    5.2690  118.3900 C.3   169  TYR169      0.1605
      3  C         48.4040    4.5400  118.1510 C.2   169  TYR169      0.2264
      4  O         47.5270    5.0460  117.4480 O.2   169  TYR169     -0.2867
      5  CB        50.8500    4.5770  117.6100 C.3   169  TYR169      0.0534
      6  CG        50.5860    4.5370  116.1280 C.ar  169  TYR169     -0.0201
      7  CD1       50.9270    5.6090  115.3190 C.ar  169  TYR169     -0.0009
      8  CD2       49.9650    3.4420  115.5410 C.ar  169  TYR169     -0.0009
      9  CE1       50.6770    5.5870  113.9720 C.ar  169  TYR169      0.0417
     10  CE2       49.7110    3.4130  114.1910 C.ar  169  TYR169      0.0417
     11  CZ        50.0690    4.4870  113.4100 C.ar  169  TYR169      0.1957
     12  OH        49.8190    4.4710  112.0580 O.3   169  TYR169     -0.2866
     13  N         43.5190    5.0290  116.6320 N.3   173  PHE173     -0.1241
     14  CA        42.6310    4.1940  115.8430 C.3   173  PHE173      0.1605
     15  C         41.5310    3.6240  116.7140 C.2   173  PHE173      0.2264
     16  O         40.3810    3.5450  116.2870 O.2   173  PHE173     -0.2867
     17  CB        43.4330    3.1150  115.1330 C.3   173  PHE173      0.0534
     18  CG        44.3870    3.6890  114.1430 C.ar  173  PHE173     -0.0203
     19  CD1       43.9360    4.0940  112.8990 C.ar  173  PHE173     -0.0042
     20  CD2       45.7130    3.8980  114.4710 C.ar  173  PHE173     -0.0042
     21  CE1       44.7970    4.6650  111.9870 C.ar  173  PHE173     -0.0003
     22  CE2       46.5820    4.4680  113.5580 C.ar  173  PHE173     -0.0003
     23  CZ        46.1200    4.8530  112.3160 C.ar  173  PHE173     -0.0000
     24  N         35.2700    7.6650  109.0630 N.3   193  ARG193     -0.1245
     25  CA        36.3740    7.1050  109.8350 C.3   193  ARG193      0.1563
     26  C         37.7050    7.7940  109.5010 C.2   193  ARG193      0.2260
     27  O         38.4770    8.1380  110.3990 O.2   193  ARG193     -0.2867
     28  CB        36.4750    5.6050  109.6060 C.3   193  ARG193      0.0307
     29  CG        37.3700    4.9010  110.5980 C.3   193  ARG193      0.0489
     30  CD        38.8020    4.8000  110.0990 C.3   193  ARG193      0.2205
     31  NE        39.5570    3.7890  110.8330 N.pl3 193  ARG193     -0.0865
     32  CZ        40.7410    3.3140  110.4550 C.cat 193  ARG193      0.5346
     33  NH1       41.3120    3.7510  109.3460 N.pl3 193  ARG193      0.1354
     34  NH2       41.3490    2.3870  111.1810 N.pl3 193  ARG193      0.1354
     35  N         40.2490    9.8140  112.0560 N.3   197  VAL197     -0.1231
     36  CA        41.6660    9.4930  112.2080 C.3   197  VAL197      0.1692
     37  C         42.5050   10.7530  112.0080 C.2   197  VAL197      0.2592
     38  O         43.3770   11.0650  112.8220 O.2   197  VAL197     -0.2718
     39  CB        42.1130    8.3960  111.2190 C.3   197  VAL197      0.0266
     40  CG1       43.6350    8.2310  111.2380 C.3   197  VAL197      0.0020
     41  CG2       41.4440    7.0830  111.5360 C.3   197  VAL197      0.0020
     42  N         42.2390   11.4710  110.9210 N.am  198  ASP198     -0.1974
     43  CA        42.9760   12.6920  110.6000 C.3   198  ASP198      0.1709
     44  C         42.9220   13.6910  111.7390 C.2   198  ASP198      0.2293
     45  O         43.9340   14.2780  112.1200 O.2   198  ASP198     -0.2864
     46  CB        42.4210   13.3330  109.3280 C.3   198  ASP198      0.1436
     47  CG        42.7310   12.5240  108.0830 C.2   198  ASP198      0.3671
     48  OD1       43.5470   11.5790  108.1700 O.co2 198  ASP198     -0.2456
     49  OD2       42.1610   12.8340  107.0140 O.co2 198  ASP198     -0.2456
     50  N         45.0750   12.6730  114.7580 N.3   201  PHE201     -0.1241
     51  CA        46.5200   12.7710  114.5430 C.3   201  PHE201      0.1605
     52  C         46.9890   14.2170  114.3920 C.2   201  PHE201      0.2264
     53  O         48.1680   14.5080  114.5770 O.2   201  PHE201     -0.2867
     54  CB        46.9390   11.9760  113.3030 C.3   201  PHE201      0.0534
     55  CG        47.2000   10.5240  113.5750 C.ar  201  PHE201     -0.0203
     56  CD1       46.1710    9.6010  113.5380 C.ar  201  PHE201     -0.0042
     57  CD2       48.4780   10.0860  113.8920 C.ar  201  PHE201     -0.0042
     58  CE1       46.4140    8.2640  113.7980 C.ar  201  PHE201     -0.0003
     59  CE2       48.7220    8.7550  114.1570 C.ar  201  PHE201     -0.0003
     60  CZ        47.6860    7.8420  114.1090 C.ar  201  PHE201     -0.0000
     61  N         51.9610    9.8860  110.9790 N.3   289  GLN289     -0.1231
     62  CA        50.7940    9.2260  110.4170 C.3   289  GLN289      0.1698
     63  C         51.0960    7.7450  110.2150 C.2   289  GLN289      0.2593
     64  O         50.2500    6.8750  110.4300 O.2   289  GLN289     -0.2718
     65  CB        50.4240    9.8910  109.0910 C.3   289  GLN289      0.0381
     66  CG        49.8900   11.3070  109.2620 C.3   289  GLN289      0.0905
     67  CD        49.4150   11.9210  107.9580 C.2   289  GLN289      0.2608
     68  OE1       49.4050   11.2650  106.9150 O.2   289  GLN289     -0.2717
     69  NE2       49.0100   13.1860  108.0130 N.am  289  GLN289     -0.0878
     70  N         52.3400    7.4770  109.8400 N.am  290  SER290     -0.1939
     71  CA        52.8190    6.1270  109.6660 C.3   290  SER290      0.2040
     72  C         54.1420    5.9960  110.3860 C.2   290  SER290      0.2485
     73  O         55.0580    6.7780  110.1400 O.2   290  SER290     -0.2729
     74  CB        52.9840    5.8060  108.1820 C.3   290  SER290      0.2129
     75  OG        51.7310    5.8190  107.5290 O.3   290  SER290     -0.2179
     76  N         54.2570    5.0090  111.2820 N.am  291  PRO291     -0.2726
     77  CA        55.5300    4.9230  111.9940 C.3   291  PRO291      0.1402
     78  C         56.6620    4.5390  111.0610 C.2   291  PRO291      0.2269
     79  O         56.4240    3.9710  109.9920 O.2   291  PRO291     -0.2865
     80  CB        55.2760    3.8440  113.0460 C.3   291  PRO291      0.0296
     81  CG        54.1880    3.0210  112.4910 C.3   291  PRO291      0.0237
     82  CD        53.3200    3.9540  111.7000 C.3   291  PRO291      0.0939
     83  N         53.4280   14.6070  108.8290 N.3   331  ASN331     -0.1240
     84  CA        52.2210   14.9550  109.5770 C.3   331  ASN331      0.1653
     85  C         52.0780   16.4720  109.6790 C.2   331  ASN331      0.2266
     86  O         53.0630   17.2230  109.7090 O.2   331  ASN331     -0.2867
     87  CB        52.1950   14.3280  110.9820 C.3   331  ASN331      0.1155
     88  CG        50.7580   14.2490  111.5750 C.2   331  ASN331      0.2627
     89  OD1       49.7740   14.5600  110.8960 O.2   331  ASN331     -0.2716
     90  ND2       50.6460   13.8230  112.8390 N.am  331  ASN331     -0.0877
@<TRIPOS>BOND
     1    68    67    2
     2    49    47   ar
     3    75    74    1
     4    67    69   am
     5    67    66    1
     6    47    48   ar
     7    47    46    1
     8    74    71    1
     9    83    84    1
    10    24    25    1
    11    65    66    1
    12    65    62    1
    13    46    43    1
    14    33    32    1
    15    26    25    1
    16    26    27    2
    17    84    85    1
    18    84    87    1
    19    28    25    1
    20    28    29    1
    21    71    70    1
    22    71    72    1
    23    85    86    2
    24    70    63   am
    25    79    78    2
    26    30    29    1
    27    30    31    1
    28    73    72    2
    29    63    62    1
    30    63    64    2
    31    72    76   am
    32    62    61    1
    33    32    31    2
    34    32    34    1
    35    43    42    1
    36    43    44    1
    37    89    88    2
    38    42    37   am
    39    87    88    1
    40    78    77    1
    41    39    40    1
    42    39    41    1
    43    39    36    1
    44    76    82    1
    45    76    77    1
    46    88    90   am
    47    82    81    1
    48    44    45    2
    49    21    23   ar
    50    21    19   ar
    51    77    80    1
    52    37    36    1
    53    37    38    2
    54    35    36    1
    55    12    11    1
    56    23    22   ar
    57    81    80    1
    58    19    18   ar
    59    54    55    1
    60    54    51    1
    61    11     9   ar
    62    11    10   ar
    63    56    55   ar
    64    56    58   ar
    65    22    20   ar
    66    55    57   ar
    67    58    60   ar
    68    57    59   ar
    69     9     7   ar
    70    60    59   ar
    71    18    20   ar
    72    18    17    1
    73    10     8   ar
    74    52    51    1
    75    52    53    2
    76    51    50    1
    77    17    14    1
    78     7     6   ar
    79     8     6   ar
    80    14    13    1
    81    14    15    1
    82     6     5    1
    83    16    15    2
    84     4     3    2
    85     5     2    1
    86     3     2    1
    87     2     1    1
