@<TRIPOS>MOLECULE
tmp/5isiB00.pdb
 186 175 0 0 0
SMALL
GASTEIGER

@<TRIPOS>ATOM
      1  N         20.8030   36.5780  116.1170 N.3     3  PHE3       -0.1241
      2  CA        21.8760   35.8540  116.7910 C.3     3  PHE3        0.1605
      3  C         23.0620   36.7660  117.0960 C.2     3  PHE3        0.2264
      4  O         23.6310   36.7120  118.1870 O.2     3  PHE3       -0.2867
      5  CB        22.3450   34.6790  115.9350 C.3     3  PHE3        0.0534
      6  CG        23.4760   33.9090  116.5460 C.ar    3  PHE3       -0.0203
      7  CD1       23.2250   32.8760  117.4340 C.ar    3  PHE3       -0.0042
      8  CD2       24.7900   34.2240  116.2420 C.ar    3  PHE3       -0.0042
      9  CE1       24.2620   32.1680  118.0020 C.ar    3  PHE3       -0.0003
     10  CE2       25.8340   33.5200  116.8090 C.ar    3  PHE3       -0.0003
     11  CZ        25.5710   32.4910  117.6910 C.ar    3  PHE3       -0.0000
     12  N         32.3810   28.9090  120.2190 N.3    15  TYR15      -0.1227
     13  CA        31.2860   27.9670  120.3730 C.3    15  TYR15       0.1736
     14  C         31.2230   26.9730  119.2220 C.2    15  TYR15       0.2595
     15  O         31.1470   25.7630  119.4370 O.2    15  TYR15      -0.2718
     16  CB        29.9640   28.7330  120.4770 C.3    15  TYR15       0.0548
     17  CG        28.7500   27.8640  120.7040 C.ar   15  TYR15      -0.0200
     18  CD1       28.4320   27.4040  121.9760 C.ar   15  TYR15      -0.0009
     19  CD2       27.9160   27.5120  119.6520 C.ar   15  TYR15      -0.0009
     20  CE1       27.3220   26.6170  122.1920 C.ar   15  TYR15       0.0417
     21  CE2       26.8020   26.7230  119.8590 C.ar   15  TYR15       0.0417
     22  CZ        26.5100   26.2770  121.1310 C.ar   15  TYR15       0.1957
     23  OH        25.4020   25.4900  121.3450 O.3    15  TYR15      -0.2866
     24  N         31.2520   27.4920  117.9990 N.am   16  PHE16      -0.1976
     25  CA        31.0650   26.6620  116.8160 C.3    16  PHE16       0.1639
     26  C         32.3390   25.9220  116.4040 C.2    16  PHE16       0.2290
     27  O         32.2690   24.9010  115.7210 O.2    16  PHE16      -0.2864
     28  CB        30.5350   27.5260  115.6710 C.3    16  PHE16       0.0560
     29  CG        29.1310   28.0160  115.8980 C.ar   16  PHE16      -0.0200
     30  CD1       28.0860   27.1170  116.0390 C.ar   16  PHE16      -0.0042
     31  CD2       28.8590   29.3680  115.9990 C.ar   16  PHE16      -0.0042
     32  CE1       26.7930   27.5590  116.2630 C.ar   16  PHE16      -0.0003
     33  CE2       27.5670   29.8150  116.2220 C.ar   16  PHE16      -0.0003
     34  CZ        26.5350   28.9080  116.3560 C.ar   16  PHE16      -0.0000
     35  N         32.1740   22.7210  118.5050 N.3    19  TYR19      -0.1241
     36  CA        31.2610   21.7200  117.9720 C.3    19  TYR19       0.1605
     37  C         31.6810   21.2280  116.5920 C.2    19  TYR19       0.2264
     38  O         31.0320   20.3540  116.0190 O.2    19  TYR19      -0.2867
     39  CB        29.8400   22.2790  117.9210 C.3    19  TYR19       0.0534
     40  CG        29.1210   22.1790  119.2440 C.ar   19  TYR19      -0.0201
     41  CD1       28.7580   20.9420  119.7610 C.ar   19  TYR19      -0.0009
     42  CD2       28.8010   23.3150  119.9750 C.ar   19  TYR19      -0.0009
     43  CE1       28.1000   20.8370  120.9710 C.ar   19  TYR19       0.0417
     44  CE2       28.1410   23.2200  121.1890 C.ar   19  TYR19       0.0417
     45  CZ        27.7930   21.9780  121.6810 C.ar   19  TYR19       0.1957
     46  OH        27.1370   21.8750  122.8850 O.3    19  TYR19      -0.2866
     47  N         31.3760   15.1700  118.8740 N.3    25  GLN25      -0.1245
     48  CA        30.2140   14.4700  118.3430 C.3    25  GLN25       0.1566
     49  C         30.1700   13.0530  118.9030 C.2    25  GLN25       0.2260
     50  O         29.1110   12.5560  119.2920 O.2    25  GLN25      -0.2867
     51  CB        30.2530   14.4450  116.8150 C.3    25  GLN25       0.0367
     52  CG        30.0390   15.8070  116.1890 C.3    25  GLN25       0.0905
     53  CD        28.6690   16.3780  116.4970 C.2    25  GLN25       0.2608
     54  OE1       27.6600   15.6730  116.4320 O.2    25  GLN25      -0.2717
     55  NE2       28.6300   17.6570  116.8590 N.am   25  GLN25      -0.0878
     56  N         29.0950   12.9550  122.5900 N.3    28  MET28      -0.1245
     57  CA        27.6610   13.1540  122.6860 C.3    28  MET28       0.1570
     58  C         26.9140   11.8710  122.3340 C.2    28  MET28       0.2261
     59  O         25.9690   11.4770  123.0200 O.2    28  MET28      -0.2867
     60  CB        27.2360   14.2800  121.7430 C.3    28  MET28       0.0387
     61  CG        27.5580   15.6780  122.2480 C.3    28  MET28       0.0595
     62  SD        27.1790   17.0210  121.0880 S.3    28  MET28      -0.1393
     63  CE        26.6030   16.1510  119.6270 C.3    28  MET28       0.0692
     64  N         20.9300    9.4910  126.3200 N.3    34  ARG34      -0.1245
     65  CA        20.5550   10.5900  125.4450 C.3    34  ARG34       0.1563
     66  C         20.1340   10.0670  124.0730 C.2    34  ARG34       0.2260
     67  O         19.0070   10.2930  123.6350 O.2    34  ARG34      -0.2867
     68  CB        21.7130   11.5840  125.3220 C.3    34  ARG34       0.0307
     69  CG        21.5310   12.6590  124.2590 C.3    34  ARG34       0.0489
     70  CD        22.2630   12.3260  122.9680 C.3    34  ARG34       0.2205
     71  NE        22.5270   13.5270  122.1800 N.pl3  34  ARG34      -0.0865
     72  CZ        23.1470   13.5350  121.0040 C.cat  34  ARG34       0.5346
     73  NH1       23.3410   14.6830  120.3680 N.pl3  34  ARG34       0.1354
     74  NH2       23.5720   12.4000  120.4630 N.pl3  34  ARG34       0.1354
     75  N         17.2590   21.3550  114.1290 N.3    57  VAL57      -0.1231
     76  CA        18.0940   22.4890  114.5030 C.3    57  VAL57       0.1692
     77  C         19.3360   22.0180  115.2500 C.2    57  VAL57       0.2592
     78  O         19.2390   21.3900  116.3070 O.2    57  VAL57      -0.2718
     79  CB        17.3160   23.5060  115.3500 C.3    57  VAL57       0.0266
     80  CG1       18.1160   24.7960  115.4790 C.3    57  VAL57       0.0020
     81  CG2       15.9500   23.7800  114.7420 C.3    57  VAL57       0.0020
     82  N         20.5020   22.3230  114.6910 N.am   58  GLY58      -0.1957
     83  CA        21.7620   21.9050  115.2730 C.3    58  GLY58       0.1869
     84  C         21.9300   20.4070  115.1760 C.2    58  GLY58       0.2309
     85  O         22.1340   19.7210  116.1770 O.2    58  GLY58      -0.2863
     86  N         24.2860   18.6970  114.0350 N.3    60  GLY60      -0.1225
     87  CA        25.6340   18.2150  114.2620 C.3    60  GLY60       0.1811
     88  C         26.0160   17.1410  113.2650 C.2    60  GLY60       0.2280
     89  O         26.0930   17.3930  112.0640 O.2    60  GLY60      -0.2866
     90  N         19.7880   21.8920  109.7930 N.3    79  VAL79      -0.1231
     91  CA        20.5340   23.1400  109.8500 C.3    79  VAL79       0.1692
     92  C         21.6720   23.0210  110.8610 C.2    79  VAL79       0.2592
     93  O         21.4620   22.6060  112.0010 O.2    79  VAL79      -0.2718
     94  CB        19.5960   24.3160  110.1840 C.3    79  VAL79       0.0266
     95  CG1       20.3590   25.6330  110.2170 C.3    79  VAL79       0.0020
     96  CG2       18.4560   24.3830  109.1700 C.3    79  VAL79       0.0020
     97  N         22.8770   23.3780  110.4240 N.am   80  GLU80      -0.1966
     98  CA        24.0700   23.3020  111.2670 C.3    80  GLU80       0.1733
     99  C         25.0620   24.4130  110.9210 C.2    80  GLU80       0.2616
    100  O         25.4000   24.6130  109.7530 O.2    80  GLU80      -0.2715
    101  CB        24.7310   21.9300  111.1230 C.3    80  GLU80       0.0429
    102  CG        26.0330   21.7660  111.8950 C.3    80  GLU80       0.1163
    103  CD        25.8850   22.0560  113.3750 C.2    80  GLU80       0.3649
    104  OE1       25.0110   21.4430  114.0260 O.co2  80  GLU80      -0.2457
    105  OE2       26.6520   22.8970  113.8890 O.co2  80  GLU80      -0.2457
    106  N         25.5250   25.1290  111.9430 N.am   81  ALA81      -0.1963
    107  CA        26.3630   26.3120  111.7470 C.3    81  ALA81       0.1728
    108  C         27.8660   26.0080  111.7850 C.2    81  ALA81       0.2616
    109  O         28.6700   26.7900  111.2750 O.2    81  ALA81      -0.2715
    110  CB        26.0220   27.3610  112.7920 C.3    81  ALA81       0.0334
    111  N         28.2500   24.8880  112.3880 N.am   82  SER82      -0.1950
    112  CA        29.6620   24.5200  112.4560 C.3    82  SER82       0.1924
    113  C         30.1060   23.8390  111.1650 C.2    82  SER82       0.2314
    114  O         29.2980   23.6150  110.2650 O.2    82  SER82      -0.2863
    115  CB        29.9230   23.5980  113.6500 C.3    82  SER82       0.2116
    116  OG        29.2710   22.3500  113.4860 O.3    82  SER82      -0.2180
    117  N         24.5730   26.8490  108.0730 N.3   106  GLY106     -0.1210
    118  CA        24.2730   28.1820  108.5460 C.3   106  GLY106      0.1956
    119  C         23.4890   28.1860  109.8380 C.2   106  GLY106      0.2612
    120  O         23.0760   27.1410  110.3360 O.2   106  GLY106     -0.2717
    121  N         23.2880   29.3780  110.3830 N.am  107  LYS107     -0.1965
    122  CA        22.5240   29.5430  111.6070 C.3   107  LYS107      0.1728
    123  C         21.0380   29.6520  111.2800 C.2   107  LYS107      0.2616
    124  O         20.6570   30.3000  110.3050 O.2   107  LYS107     -0.2715
    125  CB        23.0170   30.7770  112.3620 C.3   107  LYS107      0.0311
    126  CG        24.5340   30.8300  112.4600 C.3   107  LYS107      0.0038
    127  CD        25.0390   31.9680  113.3310 C.3   107  LYS107      0.0206
    128  CE        26.5620   31.9700  113.3710 C.3   107  LYS107      0.1093
    129  NZ        27.1460   33.3330  113.4790 N.3   107  LYS107     -0.1314
    130  N         20.2000   29.0160  112.0920 N.am  108  VAL108     -0.1963
    131  CA        18.7710   28.9710  111.8170 C.3   108  VAL108      0.1727
    132  C         18.1990   30.3860  111.7940 C.2   108  VAL108      0.2616
    133  O         17.1530   30.6310  111.1910 O.2   108  VAL108     -0.2715
    134  CB        18.0300   28.0910  112.8430 C.3   108  VAL108      0.0290
    135  CG1       18.0340   28.7400  114.2240 C.3   108  VAL108      0.0023
    136  CG2       16.6060   27.8190  112.3740 C.3   108  VAL108      0.0023
    137  N         18.8910   31.3160  112.4460 N.am  109  GLU109     -0.1977
    138  CA        18.4600   32.7070  112.4630 C.3   109  GLU109      0.1602
    139  C         18.8490   33.4270  111.1750 C.2   109  GLU109      0.2287
    140  O         18.4430   34.5680  110.9560 O.2   109  GLU109     -0.2864
    141  CB        19.0690   33.4530  113.6530 C.3   109  GLU109      0.0415
    142  CG        18.6880   32.9110  115.0190 C.3   109  GLU109      0.1163
    143  CD        19.6780   31.8950  115.5390 C.2   109  GLU109      0.3649
    144  OE1       20.4750   31.3630  114.7350 O.co2 109  GLU109     -0.2457
    145  OE2       19.6760   31.6490  116.7640 O.co2 109  GLU109     -0.2457
    146  N         18.3330   19.1550  119.9800 N.3   123  GLU123     -0.1245
    147  CA        18.8660   18.8940  121.3090 C.3   123  GLU123      0.1567
    148  C         19.4890   20.1820  121.8550 C.2   123  GLU123      0.2260
    149  O         20.7090   20.3350  121.8560 O.2   123  GLU123     -0.2867
    150  CB        19.8960   17.7640  121.2530 C.3   123  GLU123      0.0388
    151  CG        20.1730   17.0980  122.5910 C.3   123  GLU123      0.1160
    152  CD        21.6540   17.0260  122.9100 C.2   123  GLU123      0.3649
    153  OE1       22.2600   18.0910  123.1620 O.co2 123  GLU123     -0.2457
    154  OE2       22.2120   15.9070  122.9080 O.co2 123  GLU123     -0.2457
    155  N         24.4420   27.7520  127.1010 N.3   132  GLU132     -0.1245
    156  CA        24.6830   27.8300  125.6540 C.3   132  GLU132      0.1567
    157  C         23.5910   28.6170  124.9260 C.2   132  GLU132      0.2260
    158  O         23.7590   28.9720  123.7590 O.2   132  GLU132     -0.2867
    159  CB        24.8270   26.4330  125.0360 C.3   132  GLU132      0.0388
    160  CG        25.9900   25.6330  125.6080 C.3   132  GLU132      0.1160
    161  CD        26.0410   24.2040  125.0880 C.2   132  GLU132      0.3649
    162  OE1       25.4290   23.9260  124.0340 O.co2 132  GLU132     -0.2457
    163  OE2       26.7010   23.3600  125.7330 O.co2 132  GLU132     -0.2457
    164  N         20.9680   27.8900  123.5060 N.3   134  MET134     -0.1245
    165  CA        20.4950   27.3340  122.2480 C.3   134  MET134      0.1570
    166  C         18.9750   27.2430  122.2410 C.2   134  MET134      0.2261
    167  O         18.3560   27.1060  121.1860 O.2   134  MET134     -0.2867
    168  CB        21.0980   25.9560  121.9860 C.3   134  MET134      0.0387
    169  CG        20.5900   25.3620  120.6860 C.3   134  MET134      0.0595
    170  SD        21.4750   23.9180  120.0960 S.3   134  MET134     -0.1393
    171  CE        20.5590   23.6170  118.5840 C.3   134  MET134      0.0692
    172  N         17.4290   29.7000  119.9190 N.3   137  SER137     -0.1217
    173  CA        17.5050   29.3860  118.4970 C.3   137  SER137      0.1889
    174  C         16.3850   28.4090  118.1740 C.2   137  SER137      0.2288
    175  O         15.7590   28.4800  117.1180 O.2   137  SER137     -0.2866
    176  CB        18.8660   28.7870  118.1310 C.3   137  SER137      0.2089
    177  OG        19.9050   29.7400  118.2640 O.3   137  SER137     -0.2183
    178  N         26.6780   33.9750  125.4020 N.3   312  GLN312     -0.1245
    179  CA        25.8800   32.7710  125.1670 C.3   312  GLN312      0.1566
    180  C         25.5870   31.9830  126.4410 C.2   312  GLN312      0.2260
    181  O         25.4580   30.7590  126.4010 O.2   312  GLN312     -0.2867
    182  CB        26.5880   31.8540  124.1600 C.3   312  GLN312      0.0367
    183  CG        26.2640   32.1460  122.7160 C.3   312  GLN312      0.0905
    184  CD        27.1590   31.3830  121.7680 C.2   312  GLN312      0.2608
    185  OE1       28.3840   31.5060  121.8160 O.2   312  GLN312     -0.2717
    186  NE2       26.5530   30.5760  120.9040 N.am  312  GLN312     -0.0878
@<TRIPOS>BOND
     1   117   118    1
     2   118   119    1
     3    96    94    1
     4   100    99    2
     5    90    91    1
     6   119   120    2
     7   119   121   am
     8    91    94    1
     9    91    92    1
    10    94    95    1
    11   114   113    2
    12   124   123    2
    13   121   122    1
    14    97    92   am
    15    97    98    1
    16    92    93    2
    17    99    98    1
    18    99   106   am
    19   140   139    2
    20   101    98    1
    21   101   102    1
    22   113   112    1
    23   139   138    1
    24   133   132    2
    25   109   108    2
    26   123   122    1
    27   123   130   am
    28   122   125    1
    29   107   108    1
    30   107   106    1
    31   107   110    1
    32   108   111   am
    33   132   131    1
    34   132   137   am
    35   131   130    1
    36   131   134    1
    37   102   103    1
    38    89    88    2
    39   125   126    1
    40   136   134    1
    41   111   112    1
    42   137   138    1
    43   112   115    1
    44   126   127    1
    45   138   141    1
    46   134   135    1
    47    88    87    1
    48   127   128    1
    49   128   129    1
    50   103   105   ar
    51   103   104   ar
    52   116   115    1
    53   141   142    1
    54    86    87    1
    55    75    76    1
    56    76    77    1
    57    76    79    1
    58    82    77   am
    59    82    83    1
    60   144   143   ar
    61    81    79    1
    62   142   143    1
    63    84    83    1
    64    84    85    2
    65    77    78    2
    66    79    80    1
    67   143   145   ar
    68    28    29    1
    69    28    25    1
    70    27    26    2
    71    29    31   ar
    72    29    30   ar
    73     5     6    1
    74     5     2    1
    75    31    33   ar
    76    38    37    2
    77    30    32   ar
    78     1     2    1
    79    52    53    1
    80    52    51    1
    81    33    34   ar
    82     8     6   ar
    83     8    10   ar
    84    32    34   ar
    85    26    25    1
    86    54    53    2
    87    53    55   am
    88     6     7   ar
    89    37    36    1
    90     2     3    1
    91    10    11   ar
    92    51    48    1
    93    25    24    1
    94     3     4    2
    95   175   174    2
    96     7     9   ar
    97    11     9   ar
    98    39    36    1
    99    39    40    1
   100    36    35    1
   101    24    14   am
   102   176   177    1
   103   176   173    1
   104   174   173    1
   105    48    47    1
   106    48    49    1
   107   173   172    1
   108   171   170    1
   109    49    50    2
   110    14    15    2
   111    14    13    1
   112    40    41   ar
   113    40    42   ar
   114    63    62    1
   115    19    21   ar
   116    19    17   ar
   117    41    43   ar
   118    21    22   ar
   119    42    44   ar
   120   146   147    1
   121   170   169    1
   122    12    13    1
   123    73    72    1
   124    13    16    1
   125    74    72    1
   126    16    17    1
   127   169   168    1
   128    17    18   ar
   129   186   184   am
   130    43    45   ar
   131    72    71    2
   132    62    61    1
   133    22    23    1
   134    22    20   ar
   135   167   166    2
   136    44    45   ar
   137   150   147    1
   138   150   151    1
   139   147   148    1
   140    45    46    1
   141    60    61    1
   142    60    57    1
   143   184   185    2
   144   184   183    1
   145   148   149    2
   146    18    20   ar
   147   168   165    1
   148    71    70    1
   149   166   165    1
   150   165   164    1
   151    58    57    1
   152    58    59    2
   153    56    57    1
   154   151   152    1
   155   183   182    1
   156   154   152   ar
   157   152   153   ar
   158    70    69    1
   159    67    66    2
   160   158   157    2
   161   162   161   ar
   162    66    65    1
   163   182   179    1
   164    69    68    1
   165   157   156    1
   166   159   160    1
   167   159   156    1
   168   161   160    1
   169   161   163   ar
   170   179   178    1
   171   179   180    1
   172    68    65    1
   173    65    64    1
   174   156   155    1
   175   181   180    2
