@<TRIPOS>MOLECULE
tmp/5isjA00.pdb
 102 94 0 0 0
SMALL
GASTEIGER

@<TRIPOS>ATOM
      1  N          5.2820   -1.9820    9.9020 N.3    35  ASP35      -0.1239
      2  CA         4.9080   -0.6070    9.6310 C.3    35  ASP35       0.1674
      3  C          6.1520    0.2590    9.6550 C.2    35  ASP35       0.2266
      4  O          6.6150    0.6130   10.7410 O.2    35  ASP35      -0.2867
      5  CB         3.8840   -0.1360   10.6790 C.3    35  ASP35       0.1410
      6  CG         3.4540    1.3130   10.4890 C.2    35  ASP35       0.3668
      7  OD1        3.7630    1.9020    9.4400 O.co2  35  ASP35      -0.2456
      8  OD2        2.7920    1.8580   11.4030 O.co2  35  ASP35      -0.2456
      9  N          6.2880    3.2580    9.0730 N.3    37  GLY37      -0.1210
     10  CA         5.8590    4.5710    9.5100 C.3    37  GLY37       0.1956
     11  C          5.5740    4.7180   11.0030 C.2    37  GLY37       0.2612
     12  O          5.0680    5.7510   11.4300 O.2    37  GLY37      -0.2717
     13  N          5.9180    3.7090   11.8080 N.am   38  SER38      -0.1952
     14  CA         5.8010    3.8400   13.2680 C.3    38  SER38       0.1924
     15  C          6.8550    2.9630   13.9230 C.2    38  SER38       0.2314
     16  O          7.5710    2.2300   13.2440 O.2    38  SER38      -0.2863
     17  CB         4.3960    3.4650   13.7560 C.3    38  SER38       0.2116
     18  OG         4.1340    2.0820   13.5750 O.3    38  SER38      -0.2180
     19  N         -1.4480    6.9370   18.5390 N.3    78  SER78      -0.1202
     20  CA        -2.4940    7.2910   17.5930 C.3    78  SER78       0.2020
     21  C         -1.8800    7.3370   16.2070 C.2    78  SER78       0.2619
     22  O         -0.8400    7.9610   16.0020 O.2    78  SER78      -0.2717
     23  CB        -3.1240    8.6490   17.9300 C.3    78  SER78       0.2103
     24  OG        -3.4500    8.7290   19.3030 O.3    78  SER78      -0.2182
     25  N         -2.5370    6.6950   15.2550 N.am   79  TYR79      -0.1961
     26  CA        -2.0130    6.6030   13.9040 C.3    79  TYR79       0.1771
     27  C         -2.6350    7.6200   12.9530 C.2    79  TYR79       0.2620
     28  O         -3.6000    8.3010   13.3000 O.2    79  TYR79      -0.2715
     29  CB        -2.2310    5.1890   13.3890 C.3    79  TYR79       0.0574
     30  CG        -1.4550    4.1600   14.1600 C.ar   79  TYR79      -0.0198
     31  CD1       -2.0670    3.3490   15.1150 C.ar   79  TYR79      -0.0009
     32  CD2       -0.0920    4.0020   13.9430 C.ar   79  TYR79      -0.0009
     33  CE1       -1.3370    2.4020   15.8270 C.ar   79  TYR79       0.0417
     34  CE2        0.6320    3.0660   14.6280 C.ar   79  TYR79       0.0417
     35  CZ         0.0110    2.2610   15.5770 C.ar   79  TYR79       0.1957
     36  OH         0.7360    1.3210   16.2660 O.3    79  TYR79      -0.2866
     37  N         -2.0720    7.7270   11.7520 N.am   80  GLY80      -0.1954
     38  CA        -2.5420    8.6910   10.7640 C.3    80  GLY80       0.1869
     39  C         -3.9940    8.5170   10.3600 C.2    80  GLY80       0.2309
     40  O         -4.6500    9.4870    9.9590 O.2    80  GLY80      -0.2863
     41  N         11.0420    9.3660   10.5460 N.3   194  PHE194     -0.1241
     42  CA        10.5490    8.5400    9.4300 C.3   194  PHE194      0.1605
     43  C         11.6440    8.2770    8.4140 C.2   194  PHE194      0.2264
     44  O         12.6840    8.9330    8.4230 O.2   194  PHE194     -0.2867
     45  CB         9.3690    9.2210    8.6920 C.3   194  PHE194      0.0534
     46  CG         8.1780    9.5080    9.5700 C.ar  194  PHE194     -0.0203
     47  CD1        7.8990   10.7950    9.9840 C.ar  194  PHE194     -0.0042
     48  CD2        7.3350    8.4900    9.9790 C.ar  194  PHE194     -0.0042
     49  CE1        6.8130   11.0620   10.8020 C.ar  194  PHE194     -0.0003
     50  CE2        6.2490    8.7480   10.7930 C.ar  194  PHE194     -0.0003
     51  CZ         5.9960   10.0310   11.2200 C.ar  194  PHE194     -0.0000
     52  N          7.5250   10.0740    2.7960 N.3   217  ILE217     -0.1245
     53  CA         8.0270    8.9700    3.6260 C.3   217  ILE217      0.1561
     54  C          7.6820    7.6400    2.9820 C.2   217  ILE217      0.2260
     55  O          6.6450    7.4910    2.3400 O.2   217  ILE217     -0.2867
     56  CB         7.4620    9.0190    5.0670 C.3   217  ILE217      0.0252
     57  CG1        5.9450    8.7890    5.0840 C.3   217  ILE217      0.0019
     58  CG2        7.8570   10.3480    5.7580 C.3   217  ILE217      0.0019
     59  CD1        5.3780    8.5840    6.4680 C.3   217  ILE217      0.0001
     60  N          6.3340    4.2950    3.7010 N.3   219  ASP219     -0.1239
     61  CA         5.4830    3.7950    4.7890 C.3   219  ASP219      0.1674
     62  C          4.6980    2.5450    4.4250 C.2   219  ASP219      0.2266
     63  O          3.6330    2.6140    3.8010 O.2   219  ASP219     -0.2867
     64  CB         4.5240    4.8880    5.2290 C.3   219  ASP219      0.1410
     65  CG         3.6840    4.5000    6.4140 C.2   219  ASP219      0.3668
     66  OD1        2.8530    5.3260    6.8280 O.co2 219  ASP219     -0.2456
     67  OD2        3.8480    3.3910    6.9530 O.co2 219  ASP219     -0.2456
     68  N          2.9730    0.8370    6.2770 N.3   221  GLY221     -0.1210
     69  CA         1.7690    0.7600    7.0760 C.3   221  GLY221      0.1956
     70  C          0.6090    1.5820    6.5340 C.2   221  GLY221      0.2612
     71  O         -0.4560    1.6010    7.1350 O.2   221  GLY221     -0.2717
     72  N          0.8350    2.2720    5.4260 N.am  222  THR222     -0.1952
     73  CA        -0.1800    3.0810    4.7530 C.3   222  THR222      0.1897
     74  C         -0.5000    2.4010    3.4260 C.2   222  THR222      0.2313
     75  O          0.3900    2.0120    2.6780 O.2   222  THR222     -0.2863
     76  CB         0.3070    4.5300    4.5420 C.3   222  THR222      0.1794
     77  OG1        0.3370    5.2190    5.8150 O.3   222  THR222     -0.2208
     78  CG2       -0.6000    5.3150    3.5870 C.3   222  THR222      0.0378
     79  N         -2.2050   16.5550    5.2510 N.3   300  ILE300     -0.1245
     80  CA        -1.4170   15.5850    6.0150 C.3   300  ILE300      0.1561
     81  C         -0.1370   16.2370    6.4910 C.2   300  ILE300      0.2260
     82  O          0.3670   15.9260    7.5690 O.2   300  ILE300     -0.2867
     83  CB        -1.0740   14.3090    5.1780 C.3   300  ILE300      0.0252
     84  CG1       -2.3500   13.5740    4.7670 C.3   300  ILE300      0.0019
     85  CG2       -0.1580   13.3640    5.9830 C.3   300  ILE300      0.0019
     86  CD1       -2.1210   12.3200    3.9060 C.3   300  ILE300      0.0001
     87  N          2.6390   15.9860    4.7890 N.3   302  ILE302     -0.1245
     88  CA         3.7160   15.2680    4.1270 C.3   302  ILE302      0.1561
     89  C          3.1430   14.2590    3.1300 C.2   302  ILE302      0.2260
     90  O          2.0050   13.8030    3.2510 O.2   302  ILE302     -0.2867
     91  CB         4.6480   14.5680    5.1670 C.3   302  ILE302      0.0252
     92  CG1        5.9710   14.1460    4.5160 C.3   302  ILE302      0.0019
     93  CG2        3.9390   13.4060    5.8220 C.3   302  ILE302      0.0019
     94  CD1        7.1540   14.2260    5.4480 C.3   302  ILE302      0.0001
     95  N          3.0990   10.5770    1.2550 N.3   304  ILE304     -0.1245
     96  CA         3.2840    9.2010    1.7440 C.3   304  ILE304      0.1561
     97  C          3.3620    8.2080    0.6070 C.2   304  ILE304      0.2260
     98  O          2.3970    8.0240   -0.1420 O.2   304  ILE304     -0.2867
     99  CB         2.1590    8.7720    2.6850 C.3   304  ILE304      0.0252
    100  CG1        1.9310    9.8070    3.7830 C.3   304  ILE304      0.0019
    101  CG2        2.4830    7.3930    3.2890 C.3   304  ILE304      0.0019
    102  CD1        0.6220    9.5680    4.5340 C.3   304  ILE304      0.0001
@<TRIPOS>BOND
     1    98    97    2
     2    97    96    1
     3    95    96    1
     4    96    99    1
     5    55    54    2
     6    75    74    2
     7    99   101    1
     8    99   100    1
     9    52    53    1
    10    54    53    1
    11    89    90    2
    12    89    88    1
    13    74    73    1
    14    78    76    1
    15    53    56    1
    16    60    61    1
    17   100   102    1
    18    63    62    2
    19    86    84    1
    20    88    87    1
    21    88    91    1
    22    62    61    1
    23    92    91    1
    24    92    94    1
    25    76    73    1
    26    76    77    1
    27    73    72    1
    28    84    83    1
    29    61    64    1
    30    56    57    1
    31    56    58    1
    32    57    59    1
    33    91    93    1
    34    83    85    1
    35    83    80    1
    36    64    65    1
    37    79    80    1
    38    72    70   am
    39    80    81    1
    40    68    69    1
    41    65    66   ar
    42    65    67   ar
    43    81    82    2
    44    70    69    1
    45    70    71    2
    46    43    44    2
    47    43    42    1
    48    45    42    1
    49    45    46    1
    50     9    10    1
    51    42    41    1
    52     7     6   ar
    53    10    11    1
    54    46    48   ar
    55    46    47   ar
    56     2     3    1
    57     2     1    1
    58     2     5    1
    59     3     4    2
    60    40    39    2
    61    48    50   ar
    62    47    49   ar
    63    39    38    1
    64     6     5    1
    65     6     8   ar
    66    38    37    1
    67    50    51   ar
    68    49    51   ar
    69    11    12    2
    70    11    13   am
    71    37    27   am
    72    13    14    1
    73    27    28    2
    74    27    26    1
    75    16    15    2
    76    14    17    1
    77    14    15    1
    78    29    26    1
    79    29    30    1
    80    18    17    1
    81    26    25    1
    82    32    30   ar
    83    32    34   ar
    84    30    31   ar
    85    34    35   ar
    86    31    33   ar
    87    25    21   am
    88    35    33   ar
    89    35    36    1
    90    22    21    2
    91    21    20    1
    92    20    23    1
    93    20    19    1
    94    23    24    1
