@<TRIPOS>MOLECULE
tmp/5iskA02.pdb
 104 97 0 0 0
SMALL
GASTEIGER

@<TRIPOS>ATOM
      1  N          1.4030   -6.3710   11.3690 N.3    33  ASP33      -0.1239
      2  CA         1.5260   -5.4250   10.2720 C.3    33  ASP33       0.1674
      3  C          2.8500   -4.6870   10.4350 C.2    33  ASP33       0.2266
      4  O          3.0050   -3.8600   11.3320 O.2    33  ASP33      -0.2867
      5  CB         0.3220   -4.4830   10.3550 C.3    33  ASP33       0.1410
      6  CG         0.2380   -3.4920    9.2280 C.2    33  ASP33       0.3668
      7  OD1        1.1740   -3.3630    8.4230 O.co2  33  ASP33      -0.2456
      8  OD2       -0.8210   -2.8020    9.1860 O.co2  33  ASP33      -0.2456
      9  N          5.3290   -1.9770    9.8480 N.3    35  ASP35      -0.1239
     10  CA         4.9770   -0.5920    9.5700 C.3    35  ASP35       0.1674
     11  C          6.2130    0.2980    9.6270 C.2    35  ASP35       0.2266
     12  O          6.6520    0.6860   10.7050 O.2    35  ASP35      -0.2867
     13  CB         3.9520   -0.1300   10.6030 C.3    35  ASP35       0.1410
     14  CG         3.5090    1.2980   10.3970 C.2    35  ASP35       0.3668
     15  OD1        3.8090    1.8650    9.3250 O.co2  35  ASP35      -0.2456
     16  OD2        2.8200    1.8340   11.2990 O.co2  35  ASP35      -0.2456
     17  N         -2.7100    6.8320   15.0630 N.3    79  TYR79      -0.1227
     18  CA        -2.2320    6.7350   13.6970 C.3    79  TYR79       0.1736
     19  C         -2.9890    7.6930   12.7900 C.2    79  TYR79       0.2596
     20  O         -3.9630    8.3280   13.2030 O.2    79  TYR79      -0.2718
     21  CB        -2.3810    5.3030   13.2020 C.3    79  TYR79       0.0548
     22  CG        -1.5720    4.2850   13.9840 C.ar   79  TYR79      -0.0200
     23  CD1       -2.1600    3.5040   14.9650 C.ar   79  TYR79      -0.0009
     24  CD2       -0.2200    4.1000   13.7260 C.ar   79  TYR79      -0.0009
     25  CE1       -1.4250    2.5680   15.6700 C.ar   79  TYR79       0.0417
     26  CE2        0.5250    3.1700   14.4240 C.ar   79  TYR79       0.0417
     27  CZ        -0.0890    2.4020   15.3940 C.ar   79  TYR79       0.1957
     28  OH         0.6130    1.4550   16.1040 O.3    79  TYR79      -0.2866
     29  N         -2.5260    7.7900   11.5480 N.am   80  GLY80      -0.1942
     30  CA        -3.0360    8.7650   10.5960 C.3    80  GLY80       0.2014
     31  C         -4.5010    8.6230   10.2240 C.2    80  GLY80       0.2638
     32  O         -5.1380    9.6020    9.8260 O.2    80  GLY80      -0.2714
     33  N         -5.0360    7.4110   10.3420 N.am   81  ASP81      -0.1971
     34  CA        -6.4360    7.1450   10.0240 C.3    81  ASP81       0.1709
     35  C         -7.3500    7.4140   11.2190 C.2    81  ASP81       0.2293
     36  O         -8.5630    7.1990   11.1470 O.2    81  ASP81      -0.2864
     37  CB        -6.6070    5.7000    9.5450 C.3    81  ASP81       0.1436
     38  CG        -6.3770    4.6840   10.6480 C.2    81  ASP81       0.3671
     39  OD1       -5.7330    5.0330   11.6570 O.co2  81  ASP81      -0.2456
     40  OD2       -6.8340    3.5260   10.5020 O.co2  81  ASP81      -0.2456
     41  N         -7.0780    5.8770   14.1090 N.3    83  SER83      -0.1217
     42  CA        -7.0920    4.7250   15.0050 C.3    83  SER83       0.1889
     43  C         -6.0500    4.8980   16.1010 C.2    83  SER83       0.2288
     44  O         -5.1560    5.7430   16.0080 O.2    83  SER83      -0.2866
     45  CB        -6.8490    3.4330   14.2360 C.3    83  SER83       0.2089
     46  OG        -5.5300    3.3600   13.7390 O.3    83  SER83      -0.2183
     47  N         -9.2210   -1.4120   14.7380 N.3   116  PHE116     -0.1241
     48  CA        -8.4030   -2.5790   15.0600 C.3   116  PHE116      0.1605
     49  C         -9.2860   -3.7780   15.4130 C.2   116  PHE116      0.2264
     50  O         -9.0790   -4.8760   14.9020 O.2   116  PHE116     -0.2867
     51  CB        -7.3980   -2.2620   16.1660 C.3   116  PHE116      0.0534
     52  CG        -6.2850   -1.3650   15.7140 C.ar  116  PHE116     -0.0203
     53  CD1       -5.3860   -1.7960   14.7550 C.ar  116  PHE116     -0.0042
     54  CD2       -6.1410   -0.0910   16.2240 C.ar  116  PHE116     -0.0042
     55  CE1       -4.3660   -0.9760   14.3280 C.ar  116  PHE116     -0.0003
     56  CE2       -5.1200    0.7300   15.7960 C.ar  116  PHE116     -0.0003
     57  CZ        -4.2350    0.2910   14.8460 C.ar  116  PHE116     -0.0000
     58  N          1.0010   -4.5280   15.4470 N.3   125  LEU125     -0.1245
     59  CA         1.9260   -3.8410   14.5450 C.3   125  LEU125      0.1561
     60  C          3.3620   -4.0460   14.9930 C.2   125  LEU125      0.2260
     61  O          3.6440   -4.1400   16.1900 O.2   125  LEU125     -0.2867
     62  CB         1.6310   -2.3360   14.4840 C.3   125  LEU125      0.0270
     63  CG         0.7480   -1.8740   13.3220 C.3   125  LEU125      0.0019
     64  CD1       -0.6680   -2.3890   13.4650 C.3   125  LEU125      0.0001
     65  CD2        0.7810   -0.3680   13.2210 C.3   125  LEU125      0.0001
     66  N          6.4290    4.2520    3.6070 N.3   219  ASP219     -0.1239
     67  CA         5.5670    3.7970    4.7020 C.3   219  ASP219      0.1674
     68  C          4.7820    2.5460    4.3330 C.2   219  ASP219      0.2266
     69  O          3.7220    2.6090    3.7120 O.2   219  ASP219     -0.2867
     70  CB         4.6040    4.9130    5.0940 C.3   219  ASP219      0.1410
     71  CG         3.7830    4.5630    6.3050 C.2   219  ASP219      0.3668
     72  OD1        2.9310    5.3850    6.7060 O.co2 219  ASP219     -0.2456
     73  OD2        3.9780    3.4590    6.8610 O.co2 219  ASP219     -0.2456
     74  N          3.0810    0.7870    6.2300 N.3   221  GLY221     -0.1210
     75  CA         1.8490    0.7480    6.9880 C.3   221  GLY221      0.1956
     76  C          0.7240    1.6230    6.4620 C.2   221  GLY221      0.2612
     77  O         -0.3390    1.6770    7.0760 O.2   221  GLY221     -0.2717
     78  N          0.9530    2.3220    5.3570 N.am  222  THR222     -0.1952
     79  CA        -0.0890    3.0990    4.6970 C.3   222  THR222      0.1897
     80  C         -0.4370    2.3870    3.3990 C.2   222  THR222      0.2313
     81  O          0.4520    1.9760    2.6560 O.2   222  THR222     -0.2863
     82  CB         0.3870    4.5410    4.4020 C.3   222  THR222      0.1794
     83  OG1        0.5050    5.2430    5.6360 O.3   222  THR222     -0.2208
     84  CG2       -0.6130    5.3000    3.5450 C.3   222  THR222      0.0378
     85  N         -0.0450    8.9080   -1.3430 N.3   226  TYR226     -0.1241
     86  CA        -0.5530   10.2440   -1.0640 C.3   226  TYR226      0.1605
     87  C          0.4760   11.2710   -1.5240 C.2   226  TYR226      0.2264
     88  O          1.5960   11.3010   -1.0290 O.2   226  TYR226     -0.2867
     89  CB        -0.8570   10.4390    0.4240 C.3   226  TYR226      0.0534
     90  CG        -1.9910    9.5780    0.9240 C.ar  226  TYR226     -0.0201
     91  CD1       -3.2970   10.0260    0.8860 C.ar  226  TYR226     -0.0009
     92  CD2       -1.7510    8.2930    1.4060 C.ar  226  TYR226     -0.0009
     93  CE1       -4.3430    9.2260    1.3240 C.ar  226  TYR226      0.0417
     94  CE2       -2.7740    7.4920    1.8340 C.ar  226  TYR226      0.0417
     95  CZ        -4.0680    7.9580    1.8060 C.ar  226  TYR226      0.1957
     96  OH        -5.0790    7.1420    2.2370 O.3   226  TYR226     -0.2866
     97  N          3.1130   10.5450    1.2970 N.3   304  ILE304     -0.1245
     98  CA         3.3060    9.1840    1.7830 C.3   304  ILE304      0.1561
     99  C          3.4000    8.2150    0.6210 C.2   304  ILE304      0.2260
    100  O          2.4270    7.9920   -0.0920 O.2   304  ILE304     -0.2867
    101  CB         2.2000    8.7300    2.7410 C.3   304  ILE304      0.0252
    102  CG1        1.9920    9.7290    3.8850 C.3   304  ILE304      0.0019
    103  CG2        2.5550    7.3530    3.2890 C.3   304  ILE304      0.0019
    104  CD1        0.8000    9.3850    4.7970 C.3   304  ILE304      0.0001
@<TRIPOS>BOND
     1    87    86    1
     2    87    88    2
     3    85    86    1
     4    86    89    1
     5   100    99    2
     6    89    90    1
     7    99    98    1
     8    91    90   ar
     9    91    93   ar
    10    90    92   ar
    11    97    98    1
    12    93    95   ar
    13    92    94   ar
    14    98   101    1
    15    95    94   ar
    16    95    96    1
    17    81    80    2
    18   101   103    1
    19   101   102    1
    20    80    79    1
    21    84    82    1
    22    66    67    1
    23    69    68    2
    24   102   104    1
    25    68    67    1
    26    82    79    1
    27    82    83    1
    28    79    78    1
    29    67    70    1
    30    70    71    1
    31    78    76   am
    32    74    75    1
    33    71    72   ar
    34    71    73   ar
    35    76    75    1
    36    76    77    2
    37     7     6   ar
    38     8     6   ar
    39     6     5    1
    40    15    14   ar
    41    37    34    1
    42    37    38    1
    43    10    11    1
    44    10     9    1
    45    10    13    1
    46    11    12    2
    47    32    31    2
    48    34    33    1
    49    34    35    1
    50    31    33   am
    51    31    30    1
    52     2     5    1
    53     2     3    1
    54     2     1    1
    55    14    13    1
    56    14    16   ar
    57     3     4    2
    58    40    38   ar
    59    30    29    1
    60    38    39   ar
    61    36    35    2
    62    29    19   am
    63    19    20    2
    64    19    18    1
    65    21    18    1
    66    21    22    1
    67    65    63    1
    68    63    64    1
    69    63    62    1
    70    18    17    1
    71    24    22   ar
    72    24    26   ar
    73    46    45    1
    74    22    23   ar
    75    41    42    1
    76    45    42    1
    77    55    53   ar
    78    55    57   ar
    79    26    27   ar
    80    62    59    1
    81    59    60    1
    82    59    58    1
    83    47    48    1
    84    53    52   ar
    85    57    56   ar
    86    50    49    2
    87    23    25   ar
    88    60    61    2
    89    42    43    1
    90    48    49    1
    91    48    51    1
    92    27    25   ar
    93    27    28    1
    94    52    51    1
    95    52    54   ar
    96    56    54   ar
    97    44    43    2
