@<TRIPOS>MOLECULE
tmp/5ismA06.pdb
 180 175 0 0 0
SMALL
GASTEIGER

@<TRIPOS>ATOM
      1  N         37.6150   61.5230   36.4940 N.3    87  ARG87      -0.1245
      2  CA        38.4520   61.0470   37.5960 C.3    87  ARG87       0.1563
      3  C         39.6450   61.9930   37.8400 C.2    87  ARG87       0.2260
      4  O         40.0030   62.2500   38.9830 O.2    87  ARG87      -0.2867
      5  CB        38.9440   59.6180   37.3590 C.3    87  ARG87       0.0307
      6  CG        39.6320   58.9820   38.5630 C.3    87  ARG87       0.0489
      7  CD        40.2940   57.6640   38.1640 C.3    87  ARG87       0.2205
      8  NE        39.3460   56.6160   37.7890 N.pl3  87  ARG87      -0.0865
      9  CZ        38.8380   55.7170   38.6230 C.cat  87  ARG87       0.5346
     10  NH1       39.1540   55.7430   39.9080 N.pl3  87  ARG87       0.1354
     11  NH2       37.9950   54.7830   38.1770 N.pl3  87  ARG87       0.1354
     12  N         40.5950   58.0040   31.4760 N.3   167  GLU167     -0.1231
     13  CA        40.2890   56.9130   32.4130 C.3   167  GLU167      0.1699
     14  C         41.2100   55.6960   32.2130 C.2   167  GLU167      0.2592
     15  O         41.7200   55.1450   33.1810 O.2   167  GLU167     -0.2718
     16  CB        38.8180   56.4800   32.2810 C.3   167  GLU167      0.0402
     17  CG        38.4110   55.2610   33.1320 C.3   167  GLU167      0.1161
     18  CD        38.3710   55.5050   34.6310 C.2   167  GLU167      0.3649
     19  OE1       38.5510   56.6740   35.0620 O.co2 167  GLU167     -0.2457
     20  OE2       38.1550   54.4980   35.3880 O.co2 167  GLU167     -0.2457
     21  N         41.4360   55.3140   30.9620 N.am  168  GLU168     -0.1979
     22  CA        41.9590   53.9930   30.6490 C.3   168  GLU168      0.1602
     23  C         43.3720   53.9030   30.0890 C.2   168  GLU168      0.2287
     24  O         43.9360   52.8280   30.1070 O.2   168  GLU168     -0.2864
     25  CB        41.0320   53.2970   29.6450 C.3   168  GLU168      0.0415
     26  CG        39.5740   53.2380   30.0290 C.3   168  GLU168      0.1163
     27  CD        39.2780   52.4200   31.2890 C.2   168  GLU168      0.3649
     28  OE1       40.2050   52.0150   32.0420 O.co2 168  GLU168     -0.2457
     29  OE2       38.0770   52.1790   31.5150 O.co2 168  GLU168     -0.2457
     30  N         45.6720   57.6940   32.6540 N.3   171  SER171     -0.1217
     31  CA        45.3310   57.9910   34.0460 C.3   171  SER171      0.1889
     32  C         45.6230   59.4430   34.3740 C.2   171  SER171      0.2288
     33  O         46.1290   59.7500   35.4510 O.2   171  SER171     -0.2866
     34  CB        46.1160   57.0910   34.9930 C.3   171  SER171      0.2089
     35  OG        45.8500   55.7360   34.7220 O.3   171  SER171     -0.2183
     36  N         50.5830   45.4430   32.7640 N.3   318  ARG318     -0.1231
     37  CA        49.5570   45.2150   33.7860 C.3   318  ARG318      0.1694
     38  C         48.2280   45.8330   33.3300 C.2   318  ARG318      0.2592
     39  O         47.2320   45.1410   33.2030 O.2   318  ARG318     -0.2718
     40  CB        50.0200   45.7370   35.1630 C.3   318  ARG318      0.0321
     41  CG        51.1580   44.8790   35.7290 C.3   318  ARG318      0.0489
     42  CD        51.4020   45.1440   37.1950 C.3   318  ARG318      0.2205
     43  NE        52.3490   44.2070   37.7870 N.pl3 318  ARG318     -0.0865
     44  CZ        53.6140   44.4880   38.1140 C.cat 318  ARG318      0.5346
     45  NH1       54.1470   45.6820   37.8720 N.pl3 318  ARG318      0.1354
     46  NH2       54.3700   43.5460   38.6720 N.pl3 318  ARG318      0.1354
     47  N         48.2400   47.1290   33.0710 N.am  319  PHE319     -0.1976
     48  CA        47.0950   47.8100   32.4910 C.3   319  PHE319      0.1639
     49  C         47.4490   48.4770   31.1520 C.2   319  PHE319      0.2290
     50  O         46.5600   48.8940   30.4330 O.2   319  PHE319     -0.2864
     51  CB        46.5460   48.8700   33.4660 C.3   319  PHE319      0.0560
     52  CG        45.9640   48.2820   34.7180 C.ar  319  PHE319     -0.0200
     53  CD1       44.6280   47.9610   34.7850 C.ar  319  PHE319     -0.0042
     54  CD2       46.7690   48.0420   35.8210 C.ar  319  PHE319     -0.0042
     55  CE1       44.0800   47.4140   35.9290 C.ar  319  PHE319     -0.0003
     56  CE2       46.2380   47.4660   36.9660 C.ar  319  PHE319     -0.0003
     57  CZ        44.8870   47.1690   37.0240 C.ar  319  PHE319     -0.0000
     58  N         36.5930   42.6510   44.8250 N.3   509  TYR509     -0.1241
     59  CA        36.8230   43.4800   43.6300 C.3   509  TYR509      0.1605
     60  C         37.0850   42.5390   42.4750 C.2   509  TYR509      0.2264
     61  O         36.2090   42.3680   41.6440 O.2   509  TYR509     -0.2867
     62  CB        37.9410   44.4920   43.8450 C.3   509  TYR509      0.0534
     63  CG        38.0420   45.4440   42.6790 C.ar  509  TYR509     -0.0201
     64  CD1       37.0590   46.4170   42.4560 C.ar  509  TYR509     -0.0009
     65  CD2       39.0460   45.3090   41.7490 C.ar  509  TYR509     -0.0009
     66  CE1       37.1360   47.2750   41.3650 C.ar  509  TYR509      0.0417
     67  CE2       39.1250   46.1480   40.6450 C.ar  509  TYR509      0.0417
     68  CZ        38.1690   47.1270   40.4610 C.ar  509  TYR509      0.1957
     69  OH        38.2500   47.9620   39.3570 O.3   509  TYR509     -0.2866
     70  N         50.2310   40.6230   40.3330 N.3   547  TYR547     -0.1241
     71  CA        51.4960   40.6350   41.0870 C.3   547  TYR547      0.1605
     72  C         52.0230   39.2480   41.4410 C.2   547  TYR547      0.2264
     73  O         52.9350   39.1270   42.2730 O.2   547  TYR547     -0.2867
     74  CB        51.4080   41.5530   42.3220 C.3   547  TYR547      0.0534
     75  CG        50.7680   42.8650   41.9840 C.ar  547  TYR547     -0.0201
     76  CD1       51.4420   43.8070   41.2060 C.ar  547  TYR547     -0.0009
     77  CD2       49.4620   43.1560   42.3880 C.ar  547  TYR547     -0.0009
     78  CE1       50.8480   45.0110   40.8660 C.ar  547  TYR547      0.0417
     79  CE2       48.8660   44.3610   42.0470 C.ar  547  TYR547      0.0417
     80  CZ        49.5630   45.2710   41.2830 C.ar  547  TYR547      0.1957
     81  OH        48.9760   46.4500   40.9420 O.3   547  TYR547     -0.2866
     82  N         31.7700   48.6040   41.5630 N.3   592  SER592     -0.1202
     83  CA        32.4240   48.7120   40.2770 C.3   592  SER592      0.2020
     84  C         32.6600   47.3110   39.6640 C.2   592  SER592      0.2618
     85  O         31.7020   46.5290   39.5560 O.2   592  SER592     -0.2717
     86  CB        33.7050   49.5600   40.4100 C.3   592  SER592      0.2103
     87  OG        34.2350   49.8200   39.1290 O.3   592  SER592     -0.2182
     88  N         33.8880   46.9680   39.2680 N.am  593  TYR593     -0.1975
     89  CA        34.1690   45.5810   38.9010 C.3   593  TYR593      0.1639
     90  C         33.6740   44.6120   39.9930 C.2   593  TYR593      0.2290
     91  O         33.1240   43.5500   39.7050 O.2   593  TYR593     -0.2864
     92  CB        35.6560   45.3400   38.6310 C.3   593  TYR593      0.0560
     93  CG        35.8770   44.0920   37.7850 C.ar  593  TYR593     -0.0198
     94  CD1       35.7900   42.8170   38.3450 C.ar  593  TYR593     -0.0009
     95  CD2       36.1210   44.1850   36.4180 C.ar  593  TYR593     -0.0009
     96  CE1       35.9510   41.6770   37.5730 C.ar  593  TYR593      0.0417
     97  CE2       36.2980   43.0480   35.6380 C.ar  593  TYR593      0.0417
     98  CZ        36.2080   41.7890   36.2320 C.ar  593  TYR593      0.1957
     99  OH        36.3950   40.6570   35.4610 O.3   593  TYR593     -0.2866
    100  N         29.1580   46.8050   36.6740 N.3   618  VAL618     -0.1245
    101  CA        29.0580   46.4030   35.2800 C.3   618  VAL618      0.1561
    102  C         28.0540   45.2440   35.2230 C.2   618  VAL618      0.2260
    103  O         28.0330   44.4020   36.1130 O.2   618  VAL618     -0.2867
    104  CB        30.4310   46.0240   34.7100 C.3   618  VAL618      0.0252
    105  CG1       30.3110   45.3660   33.3450 C.3   618  VAL618      0.0019
    106  CG2       31.3010   47.2610   34.5750 C.3   618  VAL618      0.0019
    107  N         29.3200   43.5330   29.2270 N.3   621  TRP621     -0.1241
    108  CA        30.5920   44.1580   28.8140 C.3   621  TRP621      0.1605
    109  C         30.4400   45.0630   27.6170 C.2   621  TRP621      0.2264
    110  O         31.1800   46.0470   27.4910 O.2   621  TRP621     -0.2867
    111  CB        31.7150   43.1320   28.6230 C.3   621  TRP621      0.0550
    112  CG        32.1670   42.6810   29.9630 C.ar  621  TRP621      0.0003
    113  CD1       31.9480   41.4770   30.5200 C.ar  621  TRP621      0.0946
    114  CD2       32.8240   43.4800   30.9630 C.ar  621  TRP621      0.0152
    115  NE1       32.4470   41.4470   31.7990 N.ar  621  TRP621     -0.2442
    116  CE2       32.9930   42.6660   32.0960 C.ar  621  TRP621      0.0810
    117  CE3       33.3270   44.7910   30.9880 C.ar  621  TRP621      0.0012
    118  CZ2       33.6210   43.1160   33.2630 C.ar  621  TRP621      0.0191
    119  CZ3       33.9280   45.2550   32.1480 C.ar  621  TRP621      0.0001
    120  CH2       34.0840   44.4090   33.2740 C.ar  621  TRP621      0.0015
    121  N         30.3420   48.7260   28.6380 N.3   624  TYR624     -0.1241
    122  CA        31.5310   49.4000   29.2000 C.3   624  TYR624      0.1605
    123  C         32.4500   49.8590   28.0680 C.2   624  TYR624      0.2264
    124  O         32.2070   49.5410   26.8870 O.2   624  TYR624     -0.2867
    125  CB        32.2490   48.5160   30.2390 C.3   624  TYR624      0.0534
    126  CG        33.1230   49.3240   31.1630 C.ar  624  TYR624     -0.0201
    127  CD1       32.5930   50.3760   31.9030 C.ar  624  TYR624     -0.0009
    128  CD2       34.4900   49.1200   31.2130 C.ar  624  TYR624     -0.0009
    129  CE1       33.3920   51.1710   32.7140 C.ar  624  TYR624      0.0417
    130  CE2       35.3030   49.9150   32.0050 C.ar  624  TYR624      0.0417
    131  CZ        34.7490   50.9300   32.7700 C.ar  624  TYR624      0.1957
    132  OH        35.5680   51.7110   33.5640 O.3   624  TYR624     -0.2866
    133  N         39.3290   49.5300   28.1280 N.3   628  TYR628     -0.1241
    134  CA        39.3650   48.5500   29.2190 C.3   628  TYR628      0.1605
    135  C         38.7860   47.1980   28.8010 C.2   628  TYR628      0.2264
    136  O         39.4130   46.1740   28.9870 O.2   628  TYR628     -0.2867
    137  CB        38.6170   49.0650   30.4260 C.3   628  TYR628      0.0534
    138  CG        38.6770   48.1860   31.6690 C.ar  628  TYR628     -0.0201
    139  CD1       37.7600   47.1630   31.8530 C.ar  628  TYR628     -0.0009
    140  CD2       39.6320   48.3910   32.6530 C.ar  628  TYR628     -0.0009
    141  CE1       37.7770   46.3750   32.9730 C.ar  628  TYR628      0.0417
    142  CE2       39.6800   47.5840   33.7920 C.ar  628  TYR628      0.0417
    143  CZ        38.7320   46.5830   33.9500 C.ar  628  TYR628      0.1957
    144  OH        38.7290   45.7740   35.0640 O.3   628  TYR628     -0.2866
    145  N         40.6480   45.1010   26.1450 N.3   631  ARG631     -0.1245
    146  CA        41.9540   44.6460   26.6120 C.3   631  ARG631      0.1563
    147  C         41.8650   43.1790   27.0820 C.2   631  ARG631      0.2260
    148  O         42.7540   42.3660   26.8280 O.2   631  ARG631     -0.2867
    149  CB        42.4280   45.5390   27.7690 C.3   631  ARG631      0.0307
    150  CG        43.7990   45.1910   28.3230 C.3   631  ARG631      0.0489
    151  CD        44.1700   46.0880   29.4780 C.3   631  ARG631      0.2205
    152  NE        44.1230   47.4980   29.1320 N.pl3 631  ARG631     -0.0865
    153  CZ        43.6430   48.4710   29.9040 C.cat 631  ARG631      0.5346
    154  NH1       43.1310   48.2320   31.1060 N.pl3 631  ARG631      0.1354
    155  NH2       43.6860   49.7130   29.4620 N.pl3 631  ARG631      0.1354
    156  N         30.9770   56.7110   34.1420 N.3   672  ASN672     -0.1225
    157  CA        31.9360   55.6190   33.9640 C.3   672  ASN672      0.1785
    158  C         31.2120   54.2930   33.6980 C.2   672  ASN672      0.2597
    159  O         31.2430   53.7830   32.5610 O.2   672  ASN672     -0.2718
    160  CB        32.8470   55.5870   35.1970 C.3   672  ASN672      0.1169
    161  CG        34.0950   54.7410   35.0010 C.2   672  ASN672      0.2627
    162  OD1       34.0900   53.7560   34.2680 O.2   672  ASN672     -0.2716
    163  ND2       35.1720   55.1100   35.6900 N.am  672  ASN672     -0.0877
    164  N         30.5290   53.7740   34.7280 N.am  673  VAL673     -0.1980
    165  CA        29.5850   52.6630   34.5900 C.3   673  VAL673      0.1595
    166  C         28.2040   53.3150   34.5120 C.2   673  VAL673      0.2287
    167  O         27.6590   53.8020   35.5100 O.2   673  VAL673     -0.2864
    168  CB        29.6710   51.6650   35.7620 C.3   673  VAL673      0.0276
    169  CG1       28.6910   50.5190   35.5560 C.3   673  VAL673      0.0022
    170  CG2       31.0860   51.1210   35.8950 C.3   673  VAL673      0.0022
    171  N         30.3840   57.6470   39.6880 N.3   702  HIS702     -0.1241
    172  CA        30.9020   56.3480   40.0680 C.3   702  HIS702      0.1621
    173  C         31.4730   56.2830   41.4960 C.2   702  HIS702      0.2264
    174  O         31.5010   55.2130   42.0970 O.2   702  HIS702     -0.2867
    175  CB        31.9780   55.9220   39.0880 C.3   702  HIS702      0.0745
    176  CG        32.2020   54.4520   39.0570 C.ar  702  HIS702      0.0817
    177  ND1       31.1870   53.5520   38.8080 N.ar  702  HIS702     -0.2268
    178  CD2       33.3240   53.7200   39.2380 C.ar  702  HIS702      0.1154
    179  CE1       31.6750   52.3260   38.8540 C.ar  702  HIS702      0.1986
    180  NE2       32.9740   52.4000   39.0830 N.ar  702  HIS702     -0.2212
@<TRIPOS>BOND
     1   145   146    1
     2   146   147    1
     3   146   149    1
     4   148   147    2
     5   124   123    2
     6   110   109    2
     7   109   108    1
     8   149   150    1
     9   123   122    1
    10   133   134    1
    11   150   151    1
    12   111   108    1
    13   111   112    1
    14   121   122    1
    15   135   136    2
    16   135   134    1
    17   108   107    1
    18   152   151    1
    19   152   153    2
    20   122   125    1
    21   134   137    1
    22   155   153    1
    23    25    26    1
    24    25    22    1
    25   153   154    1
    26   112   113   ar
    27   112   114   ar
    28    26    27    1
    29    23    24    2
    30    23    22    1
    31   125   126    1
    32   137   138    1
    33    50    49    2
    34   113   115   ar
    35    22    21    1
    36    21    14   am
    37   114   117   ar
    38   114   116   ar
    39   117   119   ar
    40    49    48    1
    41   126   128   ar
    42   126   127   ar
    43   128   130   ar
    44    27    29   ar
    45    27    28   ar
    46    12    13    1
    47   138   139   ar
    48   138   140   ar
    49   115   116   ar
    50   139   141   ar
    51   127   129   ar
    52   130   131   ar
    53   116   118   ar
    54   119   120   ar
    55    14    13    1
    56    14    15    2
    57    16    13    1
    58    16    17    1
    59    48    47    1
    60    48    51    1
    61   159   158    2
    62   140   142   ar
    63    30    31    1
    64   129   131   ar
    65    36    37    1
    66   131   132    1
    67   141   143   ar
    68    47    38   am
    69    17    18    1
    70    39    38    2
    71   118   120   ar
    72    38    37    1
    73   105   104    1
    74    51    52    1
    75   158   157    1
    76   158   164   am
    77    37    40    1
    78   142   143   ar
    79   143   144    1
    80   157   156    1
    81   157   160    1
    82    31    32    1
    83    31    34    1
    84   162   161    2
    85    32    33    2
    86   166   165    1
    87   166   167    2
    88   106   104    1
    89   165   164    1
    90   165   168    1
    91    18    19   ar
    92    18    20   ar
    93   104   101    1
    94    52    53   ar
    95    52    54   ar
    96    35    34    1
    97    53    55   ar
    98   161   160    1
    99   161   163   am
   100    40    41    1
   101   102   101    1
   102   102   103    2
   103   101   100    1
   104    99    98    1
   105   169   168    1
   106    97    98   ar
   107    97    95   ar
   108    41    42    1
   109   168   170    1
   110    54    56   ar
   111    55    57   ar
   112    98    96   ar
   113    95    93   ar
   114     1     2    1
   115    56    57   ar
   116    42    43    1
   117     5     2    1
   118     5     6    1
   119    96    94   ar
   120     2     3    1
   121    93    94   ar
   122    93    92    1
   123    43    44    2
   124     8     7    1
   125     8     9    2
   126     3     4    2
   127    45    44    1
   128    44    46    1
   129     7     6    1
   130    11     9    1
   131     9    10    1
   132    92    89    1
   133   177   179   ar
   134   177   176   ar
   135   179   180   ar
   136    89    88    1
   137    89    90    1
   138   176   175    1
   139   176   178   ar
   140   180   178   ar
   141   175   172    1
   142    87    86    1
   143    88    84   am
   144    69    68    1
   145    85    84    2
   146    84    83    1
   147   171   172    1
   148    91    90    2
   149   172   173    1
   150    83    86    1
   151    83    82    1
   152    70    71    1
   153    68    67   ar
   154    68    66   ar
   155    67    65   ar
   156    78    76   ar
   157    78    80   ar
   158    81    80    1
   159    71    72    1
   160    71    74    1
   161    76    75   ar
   162    80    79   ar
   163    66    64   ar
   164    72    73    2
   165   173   174    2
   166    61    60    2
   167    65    63   ar
   168    75    74    1
   169    75    77   ar
   170    79    77   ar
   171    64    63   ar
   172    60    59    1
   173    63    62    1
   174    59    62    1
   175    59    58    1
