@<TRIPOS>MOLECULE
tmp/5isoA01.pdb
 92 83 0 0 0
SMALL
GASTEIGER

@<TRIPOS>ATOM
      1  N        -50.2450  -10.6960   -6.9590 N.3     3  VAL3       -0.1245
      2  CA       -49.2760  -10.5820   -5.8810 C.3     3  VAL3        0.1561
      3  C        -48.2940  -11.7410   -6.0190 C.2     3  VAL3        0.2260
      4  O        -48.6570  -12.9030   -5.8140 O.2     3  VAL3       -0.2867
      5  CB       -49.9750  -10.5850   -4.5190 C.3     3  VAL3        0.0252
      6  CG1      -48.9760  -10.3730   -3.3920 C.3     3  VAL3        0.0019
      7  CG2      -51.0510   -9.5210   -4.5050 C.3     3  VAL3        0.0019
      8  N        -49.5730  -15.4820   -5.1510 N.3    10  LEU10      -0.1231
      9  CA       -50.2580  -15.8140   -3.9090 C.3    10  LEU10       0.1693
     10  C        -51.7610  -15.8430   -4.1330 C.2    10  LEU10       0.2592
     11  O        -52.3250  -14.9430   -4.7650 O.2    10  LEU10      -0.2718
     12  CB       -49.8920  -14.8130   -2.8120 C.3    10  LEU10       0.0284
     13  CG       -48.4250  -14.9170   -2.3810 C.3    10  LEU10       0.0019
     14  CD1      -48.1380  -14.1180   -1.1360 C.3    10  LEU10       0.0001
     15  CD2      -48.0460  -16.3730   -2.1870 C.3    10  LEU10       0.0001
     16  N        -52.3980  -16.8930   -3.6350 N.am   11  GLY11      -0.1957
     17  CA       -53.8210  -17.1190   -3.7690 C.3    11  GLY11       0.1869
     18  C        -54.5810  -16.8790   -2.4830 C.2    11  GLY11       0.2309
     19  O        -54.2280  -16.0120   -1.6710 O.2    11  GLY11      -0.2863
     20  N        -55.3950  -19.9680    9.0150 N.3    16  VAL16      -0.1245
     21  CA       -54.6010  -19.1780    9.9540 C.3    16  VAL16       0.1561
     22  C        -54.0810  -20.1360   11.0170 C.2    16  VAL16       0.2260
     23  O        -54.8610  -20.7140   11.7870 O.2    16  VAL16      -0.2867
     24  CB       -55.4100  -18.0380   10.5890 C.3    16  VAL16       0.0252
     25  CG1      -54.6950  -17.4990   11.8110 C.3    16  VAL16       0.0019
     26  CG2      -55.6230  -16.9200    9.5980 C.3    16  VAL16       0.0019
     27  N        -49.0680  -16.9190   12.3670 N.3    20  GLY20      -0.1210
     28  CA       -48.8970  -16.6350   10.9550 C.3    20  GLY20       0.1956
     29  C        -50.0420  -17.1490   10.0840 C.2    20  GLY20       0.2611
     30  O        -50.7590  -18.0940   10.4230 O.2    20  GLY20      -0.2717
     31  N        -50.1780  -16.5340    8.9100 N.am   21  LYS21      -0.1979
     32  CA       -51.2470  -16.8250    7.9620 C.3    21  LYS21       0.1596
     33  C        -50.6820  -17.6030    6.7760 C.2    21  LYS21       0.2287
     34  O        -49.6170  -17.2540    6.2460 O.2    21  LYS21      -0.2864
     35  CB       -51.9100  -15.5220    7.5010 C.3    21  LYS21       0.0298
     36  CG       -52.9750  -15.6760    6.4400 C.3    21  LYS21       0.0038
     37  CD       -53.5140  -14.3090    6.0300 C.3    21  LYS21       0.0206
     38  CE       -54.2530  -13.6340    7.1790 C.3    21  LYS21       0.1093
     39  NZ       -54.1300  -12.1510    7.1170 N.3    21  LYS21      -0.1314
     40  N        -51.1580  -18.8870    2.9650 N.3    23  LYS23      -0.1245
     41  CA       -51.8120  -18.6970    1.6820 C.3    23  LYS23       0.1561
     42  C        -51.2170  -19.6630    0.6730 C.2    23  LYS23       0.2260
     43  O        -50.0490  -20.0470    0.7730 O.2    23  LYS23      -0.2867
     44  CB       -51.6530  -17.2540    1.1910 C.3    23  LYS23       0.0271
     45  CG       -52.2570  -16.2170    2.1210 C.3    23  LYS23       0.0035
     46  CD       -52.1570  -14.8480    1.5270 C.3    23  LYS23       0.0206
     47  CE       -53.5140  -14.2260    1.3650 C.3    23  LYS23       0.1093
     48  NZ       -53.9060  -13.6510    2.6370 N.3    23  LYS23      -0.1314
     49  N        -46.9230  -16.7320    6.1970 N.3    38  ILE38      -0.1245
     50  CA       -46.4730  -15.3520    6.3310 C.3    38  ILE38       0.1561
     51  C        -46.3380  -15.0150    7.8080 C.2    38  ILE38       0.2260
     52  O        -47.2590  -15.2740    8.5930 O.2    38  ILE38      -0.2867
     53  CB       -47.4450  -14.3820    5.6470 C.3    38  ILE38       0.0252
     54  CG1      -47.6440  -14.7800    4.1820 C.3    38  ILE38       0.0019
     55  CG2      -46.9170  -12.9720    5.7800 C.3    38  ILE38       0.0019
     56  CD1      -48.7170  -13.9730    3.4470 C.3    38  ILE38       0.0001
     57  N        -45.4390  -11.6550   10.2790 N.3    40  ASN40      -0.1240
     58  CA       -45.2100  -10.2160   10.3210 C.3    40  ASN40       0.1653
     59  C        -44.0570   -9.8950   11.2620 C.2    40  ASN40       0.2266
     60  O        -44.0530  -10.3260   12.4190 O.2    40  ASN40      -0.2867
     61  CB       -46.4630   -9.4680   10.7720 C.3    40  ASN40       0.1155
     62  CG       -46.2880   -7.9580   10.6920 C.2    40  ASN40       0.2627
     63  OD1      -45.9960   -7.2880   11.6890 O.2    40  ASN40      -0.2716
     64  ND2      -46.4430   -7.4200    9.4940 N.am   40  ASN40      -0.0877
     65  N        -45.0470   -7.8850   14.4970 N.3    43  LYS43      -0.1245
     66  CA       -45.6390   -8.7940   15.4750 C.3    43  LYS43       0.1561
     67  C        -44.5590   -9.5280   16.2600 C.2    43  LYS43       0.2260
     68  O        -44.6380   -9.6290   17.4890 O.2    43  LYS43      -0.2867
     69  CB       -46.5620   -9.8020   14.7930 C.3    43  LYS43       0.0271
     70  CG       -47.8350   -9.2080   14.1990 C.3    43  LYS43       0.0035
     71  CD       -48.6640  -10.2950   13.5020 C.3    43  LYS43       0.0206
     72  CE       -50.0720   -9.8290   13.1770 C.3    43  LYS43       0.1093
     73  NZ       -51.0390  -10.9410   13.4150 N.3    43  LYS43      -0.1314
     74  N        -42.1000   -8.4140    6.5020 N.3    80  ASP80      -0.1239
     75  CA       -42.6440   -9.7630    6.6580 C.3    80  ASP80       0.1674
     76  C        -41.6500  -10.8310    6.2150 C.2    80  ASP80       0.2266
     77  O        -40.8160  -10.6020    5.3350 O.2    80  ASP80      -0.2867
     78  CB       -43.9400   -9.9700    5.8560 C.3    80  ASP80       0.1410
     79  CG       -45.0180   -8.9440    6.1770 C.2    80  ASP80       0.3668
     80  OD1      -45.8680   -9.2100    7.0620 O.co2  80  ASP80      -0.2456
     81  OD2      -45.0260   -7.8790    5.5230 O.co2  80  ASP80      -0.2456
     82  N        -41.6830  -14.7080    4.5360 N.3    82  PHE82      -0.1241
     83  CA       -42.4810  -15.6650    3.7760 C.3    82  PHE82       0.1605
     84  C        -41.7710  -17.0090    3.8020 C.2    82  PHE82       0.2264
     85  O        -40.5820  -17.0960    3.4690 O.2    82  PHE82      -0.2867
     86  CB       -42.7100  -15.2130    2.3240 C.3    82  PHE82       0.0534
     87  CG       -43.4670  -13.9210    2.2030 C.ar   82  PHE82      -0.0203
     88  CD1      -42.8270  -12.7050    2.4130 C.ar   82  PHE82      -0.0042
     89  CD2      -44.8170  -13.9180    1.8900 C.ar   82  PHE82      -0.0042
     90  CE1      -43.5230  -11.5180    2.3150 C.ar   82  PHE82      -0.0003
     91  CE2      -45.5270  -12.7280    1.7940 C.ar   82  PHE82      -0.0003
     92  CZ       -44.8740  -11.5300    2.0040 C.ar   82  PHE82      -0.0000
@<TRIPOS>BOND
     1     1     2    1
     2     3     2    1
     3     3     4    2
     4     2     5    1
     5     8     9    1
     6    11    10    2
     7     5     7    1
     8     5     6    1
     9    10     9    1
    10    10    16   am
    11     9    12    1
    12    17    16    1
    13    17    18    1
    14    12    13    1
    15    18    19    2
    16    13    15    1
    17    13    14    1
    18    42    43    2
    19    42    41    1
    20    44    41    1
    21    44    45    1
    22    47    46    1
    23    47    48    1
    24    46    45    1
    25    41    40    1
    26    91    89   ar
    27    91    92   ar
    28    89    87   ar
    29    92    90   ar
    30    87    86    1
    31    87    88   ar
    32    90    88   ar
    33    86    83    1
    34    56    54    1
    35    85    84    2
    36    83    84    1
    37    83    82    1
    38    54    53    1
    39    77    76    2
    40    81    79   ar
    41    53    55    1
    42    53    50    1
    43    78    79    1
    44    78    75    1
    45    37    36    1
    46    37    38    1
    47    79    80   ar
    48    49    50    1
    49    76    75    1
    50    34    33    2
    51    50    51    1
    52    36    35    1
    53    74    75    1
    54    33    32    1
    55    39    38    1
    56    35    32    1
    57    51    52    2
    58    32    31    1
    59    31    29   am
    60    20    21    1
    61    64    62   am
    62    26    24    1
    63    21    24    1
    64    21    22    1
    65    29    30    2
    66    29    28    1
    67    57    58    1
    68    58    61    1
    69    58    59    1
    70    24    25    1
    71    62    61    1
    72    62    63    2
    73    28    27    1
    74    22    23    2
    75    59    60    2
    76    72    73    1
    77    72    71    1
    78    71    70    1
    79    70    69    1
    80    65    66    1
    81    69    66    1
    82    66    67    1
    83    67    68    2
