@<TRIPOS>MOLECULE
tmp/5isxA00.pdb
 207 201 0 0 0
SMALL
GASTEIGER

@<TRIPOS>ATOM
      1  N         -0.8080  -75.9290  159.5280 N.3    30  ASP30      -0.1225
      2  CA        -1.8290  -75.9620  158.4850 C.3    30  ASP30       0.1805
      3  C         -1.3020  -75.2200  157.2600 C.2    30  ASP30       0.2598
      4  O         -0.1540  -74.7730  157.2520 O.2    30  ASP30      -0.2718
      5  CB        -3.1570  -75.3480  158.9680 C.3    30  ASP30       0.1424
      6  CG        -3.0130  -73.9000  159.4440 C.2    30  ASP30       0.3668
      7  OD1       -2.2800  -73.1100  158.8100 O.co2  30  ASP30      -0.2456
      8  OD2       -3.6460  -73.5480  160.4600 O.co2  30  ASP30      -0.2456
      9  N         -2.1410  -75.0550  156.2450 N.am   31  SER31      -0.1938
     10  CA        -1.6940  -74.4570  154.9900 C.3    31  SER31       0.2055
     11  C         -1.4370  -72.9550  155.1030 C.2    31  SER31       0.2642
     12  O         -0.7420  -72.3840  154.2690 O.2    31  SER31      -0.2714
     13  CB        -2.7050  -74.7240  153.8750 C.3    31  SER31       0.2130
     14  OG        -3.9070  -74.0550  154.0520 O.3    31  SER31      -0.2179
     15  N         -1.9880  -72.3190  156.1330 N.am   32  ILE32      -0.1977
     16  CA        -1.7030  -70.9030  156.3860 C.3    32  ILE32       0.1596
     17  C         -0.3450  -70.7530  157.0830 C.2    32  ILE32       0.2287
     18  O          0.4530  -69.8920  156.7180 O.2    32  ILE32      -0.2864
     19  CB        -2.8160  -70.2300  157.2270 C.3    32  ILE32       0.0276
     20  CG1       -4.0830  -70.0730  156.3840 C.3    32  ILE32       0.0022
     21  CG2       -2.3540  -68.8710  157.7500 C.3    32  ILE32       0.0022
     22  CD1       -5.2270  -69.3770  157.0990 C.3    32  ILE32       0.0001
     23  N        -12.8890  -55.0630  157.7690 N.3   104  GLN104     -0.1245
     24  CA       -12.3840  -55.9020  158.8360 C.3   104  GLN104      0.1566
     25  C        -11.7230  -54.9850  159.8540 C.2   104  GLN104      0.2260
     26  O        -11.3410  -53.8610  159.5270 O.2   104  GLN104     -0.2867
     27  CB       -11.4010  -56.9460  158.3070 C.3   104  GLN104      0.0367
     28  CG       -12.0690  -58.0930  157.5640 C.3   104  GLN104      0.0905
     29  CD       -11.0960  -59.1980  157.2080 C.2   104  GLN104      0.2608
     30  OE1       -9.9620  -58.9360  156.7950 O.2   104  GLN104     -0.2717
     31  NE2      -11.5290  -60.4430  157.3740 N.am  104  GLN104     -0.0878
     32  N        -12.4300  -54.0200  153.4430 N.3   211  HIS211     -0.1241
     33  CA       -12.1080  -55.3840  153.0520 C.3   211  HIS211      0.1621
     34  C        -11.4920  -55.4790  151.6640 C.2   211  HIS211      0.2264
     35  O        -10.8170  -56.4610  151.3560 O.2   211  HIS211     -0.2867
     36  CB       -13.3500  -56.2780  153.1240 C.3   211  HIS211      0.0745
     37  CG       -13.0440  -57.6840  153.5310 C.ar  211  HIS211      0.0817
     38  ND1      -11.8460  -58.2970  153.2260 N.ar  211  HIS211     -0.2268
     39  CD2      -13.7580  -58.5850  154.2470 C.ar  211  HIS211      0.1154
     40  CE1      -11.8410  -59.5220  153.7250 C.ar  211  HIS211      0.1986
     41  NE2      -12.9900  -59.7230  154.3490 N.ar  211  HIS211     -0.2212
     42  N         -7.1400  -59.0850  154.1690 N.3   215  ASP215     -0.1225
     43  CA        -7.7570  -60.3490  154.5740 C.3   215  ASP215      0.1805
     44  C         -7.0010  -60.9280  155.7670 C.2   215  ASP215      0.2598
     45  O         -6.0380  -60.3310  156.2400 O.2   215  ASP215     -0.2718
     46  CB        -7.8130  -61.3630  153.4130 C.3   215  ASP215      0.1424
     47  CG        -6.4360  -61.7250  152.8540 C.2   215  ASP215      0.3668
     48  OD1       -5.3990  -61.4100  153.4780 O.co2 215  ASP215     -0.2456
     49  OD2       -6.3940  -62.3480  151.7730 O.co2 215  ASP215     -0.2456
     50  N         -7.4410  -62.0880  156.2410 N.am  216  GLY216     -0.1942
     51  CA        -6.8840  -62.7200  157.4290 C.3   216  GLY216      0.2014
     52  C         -5.3720  -62.8770  157.4870 C.2   216  GLY216      0.2638
     53  O         -4.7600  -62.6120  158.5180 O.2   216  GLY216     -0.2714
     54  N         -4.7720  -63.3170  156.3870 N.am  217  ILE217     -0.1977
     55  CA        -3.3180  -63.4420  156.3000 C.3   217  ILE217      0.1596
     56  C         -2.6480  -62.0590  156.2600 C.2   217  ILE217      0.2287
     57  O         -1.6060  -61.8440  156.8830 O.2   217  ILE217     -0.2864
     58  CB        -2.9030  -64.2750  155.0600 C.3   217  ILE217      0.0276
     59  CG1       -3.4310  -65.7070  155.1920 C.3   217  ILE217      0.0022
     60  CG2       -1.3830  -64.2780  154.8840 C.3   217  ILE217      0.0022
     61  CD1       -2.9350  -66.6740  154.1270 C.3   217  ILE217      0.0001
     62  N         -6.5590  -82.9690  156.3790 N.3   323  GLU323     -0.1231
     63  CA        -6.3340  -81.5900  156.8000 C.3   323  GLU323      0.1699
     64  C         -7.5870  -81.1250  157.5280 C.2   323  GLU323      0.2592
     65  O         -8.6480  -81.7290  157.3670 O.2   323  GLU323     -0.2718
     66  CB        -6.0250  -80.6880  155.6090 C.3   323  GLU323      0.0402
     67  CG        -4.8130  -81.1240  154.8090 C.3   323  GLU323      0.1161
     68  CD        -4.7590  -80.4700  153.4410 C.2   323  GLU323      0.3649
     69  OE1       -5.8040  -79.9440  152.9920 O.co2 323  GLU323     -0.2457
     70  OE2       -3.6750  -80.4780  152.8160 O.co2 323  GLU323     -0.2457
     71  N         -7.4770  -80.0610  158.3190 N.am  324  ILE324     -0.1966
     72  CA        -8.5740  -79.6670  159.2080 C.3   324  ILE324      0.1727
     73  C         -9.9010  -79.4090  158.4730 C.2   324  ILE324      0.2616
     74  O        -10.9670  -79.6890  159.0170 O.2   324  ILE324     -0.2715
     75  CB        -8.1950  -78.4210  160.0510 C.3   324  ILE324      0.0290
     76  CG1       -9.2530  -78.1590  161.1270 C.3   324  ILE324      0.0022
     77  CG2       -7.9860  -77.2010  159.1780 C.3   324  ILE324      0.0023
     78  CD1       -8.8360  -77.1390  162.1560 C.3   324  ILE324      0.0001
     79  N         -9.8400  -78.9140  157.2370 N.am  325  ASN325     -0.1972
     80  CA       -11.0520  -78.7700  156.4240 C.3   325  ASN325      0.1688
     81  C        -11.8380  -80.0710  156.2920 C.2   325  ASN325      0.2292
     82  O        -13.0680  -80.0660  156.3640 O.2   325  ASN325     -0.2864
     83  CB       -10.7080  -78.2580  155.0260 C.3   325  ASN325      0.1181
     84  CG       -10.7100  -76.7510  154.9400 C.2   325  ASN325      0.2629
     85  OD1      -10.8000  -76.0570  155.9530 O.2   325  ASN325     -0.2716
     86  ND2      -10.6050  -76.2320  153.7210 N.am  325  ASN325     -0.0877
     87  N        -17.5490  -72.5030  150.2170 N.3   349  LEU349     -0.1231
     88  CA       -16.3580  -72.6430  151.0460 C.3   349  LEU349      0.1693
     89  C        -15.3640  -71.5260  150.7600 C.2   349  LEU349      0.2592
     90  O        -15.0110  -71.2920  149.6090 O.2   349  LEU349     -0.2718
     91  CB       -15.6900  -74.0030  150.8060 C.3   349  LEU349      0.0284
     92  CG       -14.4560  -74.3270  151.6520 C.3   349  LEU349      0.0019
     93  CD1      -14.8260  -74.3100  153.1280 C.3   349  LEU349      0.0001
     94  CD2      -13.8210  -75.6680  151.2660 C.3   349  LEU349      0.0001
     95  N        -14.9080  -70.8380  151.8010 N.am  350  GLU350     -0.1966
     96  CA       -13.8680  -69.8300  151.6180 C.3   350  GLU350      0.1733
     97  C        -12.4840  -70.4210  151.8770 C.2   350  GLU350      0.2617
     98  O        -12.3180  -71.2570  152.7620 O.2   350  GLU350     -0.2715
     99  CB       -14.1120  -68.6270  152.5300 C.3   350  GLU350      0.0429
    100  CG       -15.4900  -68.0050  152.3480 C.3   350  GLU350      0.1163
    101  CD       -15.6430  -66.6880  153.0800 C.2   350  GLU350      0.3649
    102  OE1      -16.7790  -66.3580  153.4740 O.co2 350  GLU350     -0.2457
    103  OE2      -14.6280  -65.9760  153.2480 O.co2 350  GLU350     -0.2457
    104  N        -11.5060  -69.9920  151.0830 N.am  351  GLY351     -0.1940
    105  CA       -10.1140  -70.3720  151.2740 C.3   351  GLY351      0.2014
    106  C         -9.2310  -69.1380  151.2350 C.2   351  GLY351      0.2638
    107  O         -9.6800  -68.0770  150.7940 O.2   351  GLY351     -0.2714
    108  N         -7.9860  -69.2490  151.6940 N.am  352  HIS352     -0.1973
    109  CA        -7.1100  -68.0780  151.7230 C.3   352  HIS352      0.1656
    110  C         -6.7880  -67.6100  150.3040 C.2   352  HIS352      0.2291
    111  O         -6.4410  -66.4490  150.0880 O.2   352  HIS352     -0.2864
    112  CB        -5.8220  -68.3650  152.5070 C.3   352  HIS352      0.0771
    113  CG        -5.0920  -69.5900  152.0560 C.ar  352  HIS352      0.0820
    114  ND1       -4.3540  -69.6320  150.8930 N.ar  352  HIS352     -0.2267
    115  CD2       -4.9810  -70.8210  152.6140 C.ar  352  HIS352      0.1154
    116  CE1       -3.8260  -70.8380  150.7510 C.ar  352  HIS352      0.1986
    117  NE2       -4.1920  -71.5730  151.7850 N.ar  352  HIS352     -0.2212
    118  N         -2.8900  -69.7750  146.2480 N.3   355  GLU355     -0.1245
    119  CA        -2.4360  -71.0440  145.6930 C.3   355  GLU355      0.1567
    120  C         -1.3200  -70.8280  144.6890 C.2   355  GLU355      0.2260
    121  O         -1.3450  -69.8710  143.9150 O.2   355  GLU355     -0.2867
    122  CB        -3.5950  -71.7890  145.0300 C.3   355  GLU355      0.0388
    123  CG        -4.7420  -72.0640  145.9650 C.3   355  GLU355      0.1160
    124  CD        -4.3080  -72.8560  147.1760 C.2   355  GLU355      0.3649
    125  OE1       -3.4870  -73.7820  147.0160 O.co2 355  GLU355     -0.2457
    126  OE2       -4.7840  -72.5500  148.2900 O.co2 355  GLU355     -0.2457
    127  N         -6.7480  -58.5090  149.3450 N.3   369  TRP369     -0.1241
    128  CA        -7.8990  -59.3900  149.5070 C.3   369  TRP369      0.1605
    129  C         -7.7820  -60.5810  148.5620 C.2   369  TRP369      0.2264
    130  O         -8.1960  -60.5050  147.4060 O.2   369  TRP369     -0.2867
    131  CB        -9.2010  -58.6320  149.2510 C.3   369  TRP369      0.0550
    132  CG       -10.4140  -59.3290  149.7880 C.ar  369  TRP369      0.0003
    133  CD1      -10.4380  -60.4730  150.5390 C.ar  369  TRP369      0.0946
    134  CD2      -11.7790  -58.9330  149.6190 C.ar  369  TRP369      0.0152
    135  NE1      -11.7300  -60.8080  150.8440 N.ar  369  TRP369     -0.2442
    136  CE2      -12.5760  -59.8830  150.2930 C.ar  369  TRP369      0.0810
    137  CE3      -12.4100  -57.8710  148.9590 C.ar  369  TRP369      0.0012
    138  CZ2      -13.9680  -59.8010  150.3300 C.ar  369  TRP369      0.0191
    139  CZ3      -13.7910  -57.7920  148.9980 C.ar  369  TRP369      0.0001
    140  CH2      -14.5560  -58.7520  149.6750 C.ar  369  TRP369      0.0015
    141  N         -8.8450  -63.8050  149.2910 N.3   371  THR371     -0.1218
    142  CA        -9.8490  -64.8190  149.6000 C.3   371  THR371      0.1862
    143  C        -10.5190  -65.4310  148.3730 C.2   371  THR371      0.2287
    144  O        -11.0000  -64.7240  147.4830 O.2   371  THR371     -0.2866
    145  CB       -10.9530  -64.2440  150.5040 C.3   371  THR371      0.1770
    146  OG1      -10.3620  -63.6950  151.6860 O.3   371  THR371     -0.2211
    147  CG2      -11.9450  -65.3340  150.8990 C.3   371  THR371      0.0375
    148  N         -7.4390  -76.1720  145.0420 N.3   403  LYS403     -0.1245
    149  CA        -8.2030  -75.6300  146.1630 C.3   403  LYS403      0.1561
    150  C         -9.3950  -74.7630  145.7300 C.2   403  LYS403      0.2260
    151  O         -9.7600  -73.8210  146.4280 O.2   403  LYS403     -0.2867
    152  CB        -7.2790  -74.8210  147.0790 C.3   403  LYS403      0.0271
    153  CG        -6.2110  -75.6470  147.7790 C.3   403  LYS403      0.0035
    154  CD        -6.7900  -76.3760  148.9770 C.3   403  LYS403      0.0206
    155  CE        -5.7020  -77.0720  149.7880 C.3   403  LYS403      0.1093
    156  NZ        -6.2480  -77.7140  151.0230 N.3   403  LYS403     -0.1314
    157  N        -19.1420  -71.4460  154.6780 N.3   432  PHE432     -0.1227
    158  CA       -18.2230  -71.9200  155.7060 C.3   432  PHE432      0.1736
    159  C        -16.8890  -71.1960  155.5810 C.2   432  PHE432      0.2595
    160  O        -16.2760  -71.1740  154.5120 O.2   432  PHE432     -0.2718
    161  CB       -18.0180  -73.4340  155.6150 C.3   432  PHE432      0.0547
    162  CG       -17.2570  -74.0090  156.7760 C.ar  432  PHE432     -0.0202
    163  CD1      -17.9140  -74.3610  157.9480 C.ar  432  PHE432     -0.0042
    164  CD2      -15.8830  -74.1860  156.7050 C.ar  432  PHE432     -0.0042
    165  CE1      -17.2140  -74.8830  159.0240 C.ar  432  PHE432     -0.0003
    166  CE2      -15.1800  -74.7060  157.7770 C.ar  432  PHE432     -0.0003
    167  CZ       -15.8470  -75.0550  158.9380 C.ar  432  PHE432     -0.0000
    168  N        -16.4470  -70.6120  156.6880 N.am  433  ASN433     -0.1960
    169  CA       -15.2570  -69.7690  156.6950 C.3   433  ASN433      0.1819
    170  C        -14.4280  -69.9510  157.9630 C.2   433  ASN433      0.2621
    171  O        -14.6210  -69.2350  158.9480 O.2   433  ASN433     -0.2715
    172  CB       -15.6630  -68.3000  156.5380 C.3   433  ASN433      0.1195
    173  CG       -14.4710  -67.3700  156.4250 C.2   433  ASN433      0.2630
    174  OD1      -13.3590  -67.7950  156.1220 O.2   433  ASN433     -0.2716
    175  ND2      -14.7040  -66.0870  156.6640 N.am  433  ASN433     -0.0877
    176  N        -13.5120  -70.9140  157.9390 N.am  434  TYR434     -0.1960
    177  CA       -12.6120  -71.1230  159.0610 C.3   434  TYR434      0.1771
    178  C        -11.3130  -70.3340  158.8390 C.2   434  TYR434      0.2619
    179  O        -10.5450  -70.6170  157.9090 O.2   434  TYR434     -0.2715
    180  CB       -12.3340  -72.6200  159.2560 C.3   434  TYR434      0.0574
    181  CG       -11.1870  -72.8990  160.1980 C.ar  434  TYR434     -0.0198
    182  CD1      -11.2380  -72.4920  161.5280 C.ar  434  TYR434     -0.0009
    183  CD2      -10.0500  -73.5570  159.7540 C.ar  434  TYR434     -0.0009
    184  CE1      -10.1820  -72.7410  162.3900 C.ar  434  TYR434      0.0417
    185  CE2       -8.9880  -73.8090  160.6070 C.ar  434  TYR434      0.0417
    186  CZ        -9.0580  -73.4010  161.9220 C.ar  434  TYR434      0.1957
    187  OH        -8.0000  -73.6490  162.7690 O.3   434  TYR434     -0.2866
    188  N        -11.0850  -69.3460  159.7000 N.am  435  LEU435     -0.1963
    189  CA       -10.0100  -68.3690  159.5140 C.3   435  LEU435      0.1728
    190  C         -8.6330  -68.8700  159.9400 C.2   435  LEU435      0.2616
    191  O         -7.6150  -68.2780  159.5740 O.2   435  LEU435     -0.2715
    192  CB       -10.3400  -67.0800  160.2750 C.3   435  LEU435      0.0311
    193  CG       -11.5320  -66.2990  159.7110 C.3   435  LEU435      0.0022
    194  CD1      -11.8380  -65.0410  160.5190 C.3   435  LEU435      0.0001
    195  CD2      -11.2710  -65.9520  158.2610 C.3   435  LEU435      0.0001
    196  N         -8.6030  -69.9490  160.7210 N.am  436  GLY436     -0.1955
    197  CA        -7.3490  -70.5120  161.1830 C.3   436  GLY436      0.1869
    198  C         -6.8930  -70.0390  162.5540 C.2   436  GLY436      0.2309
    199  O         -7.7020  -69.6090  163.3770 O.2   436  GLY436     -0.2863
    200  N        -12.6170  -59.9760  162.7610 N.3   458  LEU458     -0.1245
    201  CA       -12.2380  -60.3270  161.3890 C.3   458  LEU458      0.1561
    202  C        -13.3820  -60.9730  160.6120 C.2   458  LEU458      0.2260
    203  O        -13.2360  -61.2920  159.4280 O.2   458  LEU458     -0.2867
    204  CB       -11.0200  -61.2610  161.3830 C.3   458  LEU458      0.0270
    205  CG        -9.7100  -60.6310  161.8650 C.3   458  LEU458      0.0019
    206  CD1       -8.5370  -61.5850  161.6990 C.3   458  LEU458      0.0001
    207  CD2       -9.4520  -59.3140  161.1420 C.3   458  LEU458      0.0001
@<TRIPOS>BOND
     1   121   120    2
     2   120   119    1
     3   122   119    1
     4   122   123    1
     5   148   149    1
     6   119   118    1
     7   150   149    1
     8   150   151    2
     9   123   124    1
    10   149   152    1
    11   125   124   ar
    12   152   153    1
    13   124   126   ar
    14   130   129    2
    15   144   143    2
    16   153   154    1
    17   143   142    1
    18   129   128    1
    19   137   139   ar
    20   137   134   ar
    21   154   155    1
    22   139   140   ar
    23   131   128    1
    24   131   132    1
    25   141   142    1
    26   127   128    1
    27   142   145    1
    28    90    89    2
    29   134   132   ar
    30   134   136   ar
    31   140   138   ar
    32   132   133   ar
    33   155   156    1
    34   111   110    2
    35    87    88    1
    36   136   138   ar
    37   136   135   ar
    38   110   109    1
    39   145   147    1
    40   145   146    1
    41   133   135   ar
    42   116   114   ar
    43   116   117   ar
    44    89    88    1
    45    89    95   am
    46   107   106    2
    47    91    88    1
    48    91    92    1
    49   114   113   ar
    50   104   105    1
    51   104    97   am
    52   106   105    1
    53   106   108   am
    54    94    92    1
    55    35    34    2
    56    96    95    1
    57    96    97    1
    58    96    99    1
    59    92    93    1
    60    34    33    1
    61   108   109    1
    62   109   112    1
    63    49    47   ar
    64   117   115   ar
    65    97    98    2
    66   113   112    1
    67   113   115   ar
    68   100    99    1
    69   100   101    1
    70    70    68   ar
    71    47    46    1
    72    47    48   ar
    73    69    68   ar
    74    33    36    1
    75    33    32    1
    76   101   103   ar
    77   101   102   ar
    78    36    37    1
    79    38    37   ar
    80    38    40   ar
    81    46    43    1
    82    68    67    1
    83    37    39   ar
    84    86    84   am
    85    40    41   ar
    86    13    14    1
    87    13    10    1
    88    61    59    1
    89    42    43    1
    90    39    41   ar
    91    12    11    2
    92   160   159    2
    93    43    44    1
    94   157   158    1
    95    67    66    1
    96    60    58    1
    97    84    83    1
    98    84    85    2
    99    10    11    1
   100    10     9    1
   101    83    80    1
   102    58    59    1
   103    58    55    1
   104    11    15   am
   105   159   158    1
   106   159   168   am
   107    66    63    1
   108   161   158    1
   109   161   162    1
   110    44    45    2
   111    44    50   am
   112   174   173    2
   113    15    16    1
   114    50    51    1
   115     9     3   am
   116    56    55    1
   117    56    57    2
   118    81    82    2
   119    81    80    1
   120    55    54    1
   121    62    63    1
   122    20    22    1
   123    20    19    1
   124    16    17    1
   125    16    19    1
   126    54    52   am
   127    80    79    1
   128   173   172    1
   129   173   175   am
   130   172   169    1
   131   168   169    1
   132   169   170    1
   133   164   162   ar
   134   164   166   ar
   135    18    17    2
   136   162   163   ar
   137    30    29    2
   138    63    64    1
   139    29    31   am
   140    29    28    1
   141    19    21    1
   142    79    73   am
   143     4     3    2
   144     3     2    1
   145    65    64    2
   146    51    52    1
   147    52    53    2
   148    64    71   am
   149    28    27    1
   150    23    24    1
   151   166   167   ar
   152   179   178    2
   153   176   170   am
   154   176   177    1
   155   163   165   ar
   156   170   171    2
   157   195   193    1
   158    27    24    1
   159    71    72    1
   160    73    74    2
   161    73    72    1
   162     2     5    1
   163     2     1    1
   164     7     6   ar
   165    24    25    1
   166   178   177    1
   167   178   188   am
   168   167   165   ar
   169     5     6    1
   170   177   180    1
   171    77    75    1
   172    72    75    1
   173   180   181    1
   174   203   202    2
   175     6     8   ar
   176   189   188    1
   177   189   190    1
   178   189   192    1
   179    26    25    2
   180   191   190    2
   181   193   192    1
   182   193   194    1
   183   183   181   ar
   184   183   185   ar
   185   190   196   am
   186    75    76    1
   187   181   182   ar
   188   185   186   ar
   189   202   201    1
   190   196   197    1
   191    76    78    1
   192   207   205    1
   193   197   198    1
   194   204   201    1
   195   204   205    1
   196   201   200    1
   197   182   184   ar
   198   206   205    1
   199   186   184   ar
   200   186   187    1
   201   198   199    2
