@<TRIPOS>MOLECULE
tmp/5it1B01.pdb
 138 127 0 0 0
SMALL
GASTEIGER

@<TRIPOS>ATOM
      1  N         47.5130    1.4160   53.1920 N.3    76  GLN76      -0.1245
      2  CA        47.8370    0.4770   52.1800 C.3    76  GLN76       0.1566
      3  C         48.7570   -0.6390   52.7070 C.2    76  GLN76       0.2260
      4  O         49.7330   -0.3710   53.4720 O.2    76  GLN76      -0.2867
      5  CB        48.5720    1.2280   51.0910 C.3    76  GLN76       0.0367
      6  CG        48.4510    0.5390   49.7680 C.3    76  GLN76       0.0905
      7  CD        48.9910    1.4260   48.6850 C.2    76  GLN76       0.2608
      8  OE1       48.3120    2.3460   48.2400 O.2    76  GLN76      -0.2717
      9  NE2       50.2240    1.1810   48.2800 N.am   76  GLN76      -0.0878
     10  N         51.0780   -4.5040   52.2010 N.2    78  PRO78      -0.2584
     11  CA        51.8060   -5.2880   51.1970 C.3    78  PRO78       0.1895
     12  C         50.9720   -6.4110   50.6880 C.2    78  PRO78       0.2359
     13  O         49.9210   -6.7030   51.2710 O.2    78  PRO78      -0.2858
     14  CB        53.0380   -5.7820   51.9420 C.2    78  PRO78       0.0071
     15  CG        53.0560   -5.1360   53.2430 C.2    78  PRO78       0.0180
     16  CD        51.7490   -4.4510   53.4990 C.2    78  PRO78       0.0937
     17  N         52.9540  -11.5340   52.5560 N.3    82  SER82      -0.1217
     18  CA        53.0000  -10.7990   53.8330 C.3    82  SER82       0.1889
     19  C         52.1000  -11.3230   54.9270 C.2    82  SER82       0.2288
     20  O         52.3910  -11.0830   56.0980 O.2    82  SER82      -0.2866
     21  CB        52.8160   -9.2870   53.6500 C.3    82  SER82       0.2089
     22  OG        51.5530   -9.0010   53.1020 O.3    82  SER82      -0.2183
     23  N         47.4990   -9.5130   56.5040 N.3    85  TRP85      -0.1241
     24  CA        46.2720   -8.8770   56.0410 C.3    85  TRP85       0.1605
     25  C         45.6710   -9.6700   54.9200 C.2    85  TRP85       0.2264
     26  O         44.8290   -9.1570   54.2310 O.2    85  TRP85      -0.2867
     27  CB        46.5800   -7.4440   55.5940 C.3    85  TRP85       0.0550
     28  CG        47.1760   -6.6400   56.6960 C.ar   85  TRP85       0.0003
     29  CD1       46.5280   -6.1170   57.7930 C.ar   85  TRP85       0.0946
     30  CD2       48.5670   -6.3370   56.8630 C.ar   85  TRP85       0.0152
     31  NE1       47.4450   -5.5080   58.6110 N.ar   85  TRP85      -0.2442
     32  CE2       48.7010   -5.6370   58.0660 C.ar   85  TRP85       0.0810
     33  CE3       49.7060   -6.6340   56.1290 C.ar   85  TRP85       0.0012
     34  CZ2       49.9430   -5.1900   58.5470 C.ar   85  TRP85       0.0191
     35  CZ3       50.9440   -6.1810   56.5950 C.ar   85  TRP85       0.0001
     36  CH2       51.0490   -5.4600   57.8010 C.ar   85  TRP85       0.0015
     37  N         63.2240    0.4850   60.9940 N.3   168  MET168     -0.1245
     38  CA        61.8820   -0.0900   60.8740 C.3   168  MET168      0.1570
     39  C         61.1800   -0.3860   62.1890 C.2   168  MET168      0.2261
     40  O         59.9440   -0.3700   62.2850 O.2   168  MET168     -0.2867
     41  CB        61.9140   -1.3620   60.0190 C.3   168  MET168      0.0387
     42  CG        61.9260   -1.0720   58.5410 C.3   168  MET168      0.0595
     43  SD        60.3450   -0.4860   57.8490 S.3   168  MET168     -0.1393
     44  CE        58.9840   -0.8930   58.9310 C.3   168  MET168      0.0692
     45  N         53.9600   -1.8770   62.1150 N.3   173  GLN173     -0.1245
     46  CA        53.8700   -2.8280   61.0350 C.3   173  GLN173      0.1566
     47  C         52.7850   -2.3920   60.0340 C.2   173  GLN173      0.2260
     48  O         53.0160   -2.4890   58.7940 O.2   173  GLN173     -0.2867
     49  CB        53.6240   -4.2730   61.5450 C.3   173  GLN173      0.0367
     50  CG        53.6980   -5.3050   60.4070 C.3   173  GLN173      0.0905
     51  CD        54.4060   -6.6610   60.7650 C.2   173  GLN173      0.2608
     52  OE1       54.4820   -7.0910   61.9420 O.2   173  GLN173     -0.2717
     53  NE2       54.8440   -7.3700   59.7160 N.am  173  GLN173     -0.0878
     54  N         54.1480    0.1800   57.5930 N.3   176  ALA176     -0.1231
     55  CA        55.4950   -0.0540   56.9940 C.3   176  ALA176      0.1694
     56  C         55.5320    0.1350   55.4880 C.2   176  ALA176      0.2591
     57  O         56.4890    0.7320   54.9170 O.2   176  ALA176     -0.2718
     58  CB        55.9940   -1.4550   57.3500 C.3   176  ALA176      0.0304
     59  N         54.5000   -0.3940   54.8320 N.am  177  ALA177     -0.1980
     60  CA        54.3810   -0.3360   53.3610 C.3   177  ALA177      0.1597
     61  C         54.1680    1.1070   52.8060 C.2   177  ALA177      0.2287
     62  O         54.2490    1.3160   51.5940 O.2   177  ALA177     -0.2864
     63  CB        53.2440   -1.2600   52.8790 C.3   177  ALA177      0.0319
     64  N         60.3320    1.8470   55.2300 N.3   182  GLY182     -0.1210
     65  CA        59.9410    0.6680   54.4460 C.3   182  GLY182      0.1956
     66  C         60.6230    0.5660   53.0890 C.2   182  GLY182      0.2611
     67  O         60.9480   -0.5290   52.6150 O.2   182  GLY182     -0.2717
     68  N         60.8620    1.7030   52.4680 N.am  183  MET183     -0.1979
     69  CA        61.4960    1.7060   51.1440 C.3   183  MET183      0.1605
     70  C         62.9350    1.2780   51.3080 C.2   183  MET183      0.2287
     71  O         63.4670    0.5950   50.4840 O.2   183  MET183     -0.2864
     72  CB        61.4700    3.0910   50.4840 C.3   183  MET183      0.0413
     73  CG        60.0840    3.6350   50.1200 C.3   183  MET183      0.0598
     74  SD        59.3200    2.6490   48.8090 S.3   183  MET183     -0.1393
     75  CE        57.8980    1.9830   49.7010 C.3   183  MET183      0.0692
     76  N         64.1690   -0.6590   53.5760 N.3   185  LEU185     -0.1231
     77  CA        64.1650   -2.1300   53.8050 C.3   185  LEU185      0.1693
     78  C         63.8580   -2.8960   52.5180 C.2   185  LEU185      0.2592
     79  O         64.5010   -3.8940   52.2020 O.2   185  LEU185     -0.2718
     80  CB        63.2020   -2.5220   54.9160 C.3   185  LEU185      0.0284
     81  CG        63.1050   -4.0410   55.1710 C.3   185  LEU185      0.0019
     82  CD1       64.4630   -4.6000   55.6170 C.3   185  LEU185      0.0001
     83  CD2       62.0340   -4.2000   56.2450 C.3   185  LEU185      0.0001
     84  N         62.8860   -2.4380   51.7450 N.am  186  GLY186     -0.1957
     85  CA        62.6460   -3.0490   50.4840 C.3   186  GLY186      0.1869
     86  C         63.8950   -3.1100   49.5860 C.2   186  GLY186      0.2309
     87  O         64.0870   -4.1120   48.8920 O.2   186  GLY186     -0.2863
     88  N         66.2190   -5.7960   51.0100 N.3   189  LEU189     -0.1245
     89  CA        65.6910   -7.1200   50.7650 C.3   189  LEU189      0.1561
     90  C         65.8160   -7.4630   49.2970 C.2   189  LEU189      0.2260
     91  O         66.0470   -8.6270   48.9650 O.2   189  LEU189     -0.2867
     92  CB        64.2400   -7.2660   51.1690 C.3   189  LEU189      0.0270
     93  CG        63.9820   -7.1590   52.6960 C.3   189  LEU189      0.0019
     94  CD1       62.4860   -7.2300   53.0320 C.3   189  LEU189      0.0001
     95  CD2       64.7330   -8.2280   53.5130 C.3   189  LEU189      0.0001
     96  N         58.9850  -10.5820   44.5420 N.3   221  MET221     -0.1245
     97  CA        58.1330   -9.7470   45.3590 C.3   221  MET221      0.1570
     98  C         57.5160  -10.6100   46.4750 C.2   221  MET221      0.2261
     99  O         57.3940  -10.1700   47.6270 O.2   221  MET221     -0.2867
    100  CB        57.0430   -9.0920   44.4610 C.3   221  MET221      0.0387
    101  CG        56.3210   -7.9070   45.1040 C.3   221  MET221      0.0595
    102  SD        57.2790   -6.4790   45.6110 S.3   221  MET221     -0.1393
    103  CE        58.2080   -6.5450   44.1820 C.3   221  MET221      0.0692
    104  N         60.2340  -10.9760   49.0930 N.3   224  MET224     -0.1230
    105  CA        60.5100   -9.7270   49.8160 C.3   224  MET224      0.1702
    106  C         59.4080   -9.4840   50.8320 C.2   224  MET224      0.2592
    107  O         59.6670   -9.0730   51.9320 O.2   224  MET224     -0.2718
    108  CB        60.6600   -8.5330   48.8690 C.3   224  MET224      0.0401
    109  CG        62.0160   -8.4390   48.1570 C.3   224  MET224      0.0596
    110  SD        62.0790   -7.0840   46.9640 S.3   224  MET224     -0.1393
    111  CE        61.0090   -7.6790   45.7380 C.3   224  MET224      0.0692
    112  N         58.2040   -9.7950   50.4600 N.am  225  ASN225     -0.1974
    113  CA        57.0760   -9.6240   51.3620 C.3   225  ASN225      0.1688
    114  C         57.1450  -10.6050   52.5090 C.2   225  ASN225      0.2292
    115  O         56.8210  -10.2340   53.6060 O.2   225  ASN225     -0.2864
    116  CB        55.7600   -9.7840   50.6330 C.3   225  ASN225      0.1181
    117  CG        55.4250   -8.5580   49.7970 C.2   225  ASN225      0.2629
    118  OD1       55.9540   -7.5320   50.0220 O.2   225  ASN225     -0.2716
    119  ND2       54.6330   -8.7150   48.8050 N.am  225  ASN225     -0.0877
    120  N         60.2850   -9.5180   54.6760 N.3   228  GLY228     -0.1210
    121  CA        59.9110   -8.3250   55.3630 C.3   228  GLY228      0.1956
    122  C         58.9590   -8.6030   56.4940 C.2   228  GLY228      0.2612
    123  O         59.1730   -8.0580   57.5710 O.2   228  GLY228     -0.2717
    124  N         57.8790   -9.3840   56.2920 N.am  229  THR229     -0.1952
    125  CA        56.9860   -9.5220   57.4400 C.3   229  THR229      0.1897
    126  C         57.6060  -10.3360   58.5320 C.2   229  THR229      0.2313
    127  O         57.3190  -10.0620   59.6570 O.2   229  THR229     -0.2863
    128  CB        55.5530  -10.1370   57.3200 C.3   229  THR229      0.1794
    129  OG1       55.5710  -11.5430   57.0640 O.3   229  THR229     -0.2208
    130  CG2       54.7430   -9.4770   56.4610 C.3   229  THR229      0.0378
    131  N         59.8350   -7.7250   60.4930 N.3   232  ILE232     -0.1245
    132  CA        59.1160   -6.7370   61.2240 C.3   232  ILE232      0.1561
    133  C         58.2890   -7.3520   62.3210 C.2   232  ILE232      0.2260
    134  O         58.2200   -6.7530   63.3620 O.2   232  ILE232     -0.2867
    135  CB        58.2070   -5.9290   60.3120 C.3   232  ILE232      0.0252
    136  CG1       59.0970   -5.0770   59.3670 C.3   232  ILE232      0.0019
    137  CG2       57.3590   -4.9930   61.1680 C.3   232  ILE232      0.0019
    138  CD1       58.3730   -4.5550   58.1460 C.3   232  ILE232      0.0001
@<TRIPOS>BOND
     1   103   102    1
     2   100   101    1
     3   100    97    1
     4    96    97    1
     5   101   102    1
     6    97    98    1
     7   111   110    1
     8    98    99    2
     9   110   109    1
    10   109   108    1
    11     8     7    2
    12     9     7   am
    13     7     6    1
    14   119   117   am
    15    74    75    1
    16    74    73    1
    17   108   105    1
    18    87    86    2
    19    91    90    2
    20   104   105    1
    21    90    89    1
    22    86    85    1
    23     6     5    1
    24   117   118    2
    25   117   116    1
    26   105   106    1
    27    73    72    1
    28   112   106   am
    29   112   113    1
    30    71    70    2
    31    72    69    1
    32    85    84    1
    33   116   113    1
    34    12    11    1
    35    12    13    2
    36    89    88    1
    37    89    92    1
    38   106   107    2
    39     5     2    1
    40    69    70    1
    41    69    68    1
    42    92    93    1
    43    11    14    1
    44    11    10    1
    45   113   114    1
    46    62    61    2
    47    84    78   am
    48    14    15    2
    49     2     3    1
    50     2     1    1
    51    10    16    2
    52    79    78    2
    53    68    66   am
    54   114   115    2
    55    78    77    1
    56    17    18    1
    57    67    66    2
    58    93    94    1
    59    93    95    1
    60     3     4    2
    61    61    60    1
    62    63    60    1
    63    66    65    1
    64    22    21    1
    65    15    16    1
    66    60    59    1
    67    76    77    1
    68    21    18    1
    69    77    80    1
    70    18    19    1
    71    26    25    2
    72    65    64    1
    73   120   121    1
    74    59    56   am
    75    80    81    1
    76    57    56    2
    77    25    24    1
    78    19    20    2
    79    81    82    1
    80    81    83    1
    81   121   122    1
    82    56    55    1
    83    27    24    1
    84    27    28    1
    85    24    23    1
    86    33    35   ar
    87    33    30   ar
    88   124   122   am
    89   124   125    1
    90   130   128    1
    91   122   123    2
    92    35    36   ar
    93    28    30   ar
    94    28    29   ar
    95    30    32   ar
    96    55    58    1
    97    55    54    1
    98   129   128    1
    99   128   125    1
   100   125   126    1
   101    29    31   ar
   102    36    34   ar
   103    43    42    1
   104    43    44    1
   105    32    34   ar
   106    32    31   ar
   107   138   136    1
   108   126   127    2
   109    42    41    1
   110    48    47    2
   111   136   135    1
   112    53    51   am
   113    41    38    1
   114    47    46    1
   115   135   137    1
   116   135   132    1
   117    50    51    1
   118    50    49    1
   119   131   132    1
   120    51    52    2
   121    38    37    1
   122    38    39    1
   123    46    49    1
   124    46    45    1
   125   132   133    1
   126    39    40    2
   127   133   134    2
