@<TRIPOS>MOLECULE
tmp/5it6A01.pdb
 88 85 0 0 0
SMALL
GASTEIGER

@<TRIPOS>ATOM
      1  N          2.7230   13.3320  -34.3230 N.3    27  GLU27      -0.1231
      2  CA         3.8280   12.3980  -34.1950 C.3    27  GLU27       0.1699
      3  C          4.0840   12.0250  -32.7370 C.2    27  GLU27       0.2593
      4  O          4.1420   10.8410  -32.3990 O.2    27  GLU27      -0.2718
      5  CB         5.0930   12.9890  -34.8140 C.3    27  GLU27       0.0402
      6  CG         6.2850   12.0690  -34.7650 C.3    27  GLU27       0.1161
      7  CD         7.5300   12.7200  -35.3310 C.2    27  GLU27       0.3649
      8  OE1        8.3200   13.2780  -34.5370 O.co2  27  GLU27      -0.2457
      9  OE2        7.7050   12.6920  -36.5680 O.co2  27  GLU27      -0.2457
     10  N          4.2220   13.0130  -31.8550 N.am   28  SER28      -0.1938
     11  CA         4.4750   12.7220  -30.4500 C.3    28  SER28       0.2055
     12  C          4.2000   13.9750  -29.6400 C.2    28  SER28       0.2643
     13  O          4.1650   15.0870  -30.1760 O.2    28  SER28      -0.2714
     14  CB         5.9140   12.2660  -30.2110 C.3    28  SER28       0.2130
     15  OG         6.8160   13.3160  -30.5030 O.3    28  SER28      -0.2179
     16  N          4.0000   13.7760  -28.3370 N.am   29  PHE29      -0.1959
     17  CA         4.0540   14.8890  -27.4000 C.3    29  PHE29       0.1771
     18  C          4.6230   14.3940  -26.0840 C.2    29  PHE29       0.2620
     19  O          4.7370   13.1900  -25.8470 O.2    29  PHE29      -0.2715
     20  CB         2.6910   15.5620  -27.2200 C.3    29  PHE29       0.0574
     21  CG         1.6310   14.7270  -26.5710 C.ar   29  PHE29      -0.0200
     22  CD1        1.6780   14.4250  -25.2190 C.ar   29  PHE29      -0.0042
     23  CD2        0.5260   14.3020  -27.2970 C.ar   29  PHE29      -0.0042
     24  CE1        0.6580   13.6770  -24.6180 C.ar   29  PHE29      -0.0003
     25  CE2       -0.4790   13.5790  -26.6840 C.ar   29  PHE29      -0.0003
     26  CZ        -0.4170   13.2820  -25.3570 C.ar   29  PHE29      -0.0000
     27  N          5.0260   15.3460  -25.2560 N.am   30  GLY30      -0.1954
     28  CA         5.6400   15.0300  -23.9850 C.3    30  GLY30       0.1869
     29  C          5.0780   15.8890  -22.8610 C.2    30  GLY30       0.2309
     30  O          4.7740   17.0660  -23.0430 O.2    30  GLY30      -0.2863
     31  N          6.4570   16.3750  -18.8590 N.3    32  SER32      -0.1217
     32  CA         7.5490   16.0190  -17.9600 C.3    32  SER32       0.1889
     33  C          7.4660   16.8010  -16.6670 C.2    32  SER32       0.2288
     34  O          7.0530   17.9530  -16.6620 O.2    32  SER32      -0.2866
     35  CB         8.8960   16.2860  -18.5940 C.3    32  SER32       0.2089
     36  OG         8.9820   15.6110  -19.8450 O.3    32  SER32      -0.2183
     37  N          9.4260   11.7850  -17.4930 N.3    48  GLU48      -0.1245
     38  CA         8.9660   12.1980  -18.8110 C.3    48  GLU48       0.1567
     39  C          7.9430   11.1910  -19.2950 C.2    48  GLU48       0.2260
     40  O          8.2100    9.9850  -19.3120 O.2    48  GLU48      -0.2867
     41  CB        10.1150   12.2880  -19.8060 C.3    48  GLU48       0.0388
     42  CG         9.6890   12.5310  -21.2310 C.3    48  GLU48       0.1160
     43  CD        10.8560   12.4030  -22.1860 C.2    48  GLU48       0.3649
     44  OE1       11.5950   13.3980  -22.3610 O.co2  48  GLU48      -0.2457
     45  OE2       11.0510   11.2880  -22.7320 O.co2  48  GLU48      -0.2457
     46  N          6.0310   10.3070  -22.6890 N.3    50  LYS50      -0.1245
     47  CA         6.1230   10.5810  -24.1130 C.3    50  LYS50       0.1561
     48  C          5.1270    9.7050  -24.8490 C.2    50  LYS50       0.2260
     49  O          5.2470    8.4750  -24.8160 O.2    50  LYS50      -0.2867
     50  CB         7.5350   10.3410  -24.6420 C.3    50  LYS50       0.0271
     51  CG         7.6530   10.6670  -26.1190 C.3    50  LYS50       0.0035
     52  CD         9.0780   10.5820  -26.6240 C.3    50  LYS50       0.0206
     53  CE         9.1280   10.9200  -28.1130 C.3    50  LYS50       0.1093
     54  NZ        10.5190   11.0350  -28.6530 N.3    50  LYS50      -0.1314
     55  N         19.8680    9.0810  -18.9890 N.3    68  TRP68      -0.1241
     56  CA        18.5310    8.5100  -18.9390 C.3    68  TRP68       0.1605
     57  C         18.5380    7.1450  -18.2690 C.2    68  TRP68       0.2264
     58  O         19.4890    6.3610  -18.3880 O.2    68  TRP68      -0.2867
     59  CB        17.9500    8.3970  -20.3400 C.3    68  TRP68       0.0550
     60  CG        17.6490    9.7200  -20.9000 C.ar   68  TRP68       0.0003
     61  CD1       18.4600   10.4840  -21.6870 C.ar   68  TRP68       0.0946
     62  CD2       16.4510   10.4850  -20.6940 C.ar   68  TRP68       0.0152
     63  NE1       17.8370   11.6680  -21.9960 N.ar   68  TRP68      -0.2442
     64  CE2       16.6050   11.6970  -21.3920 C.ar   68  TRP68       0.0810
     65  CE3       15.2640   10.2570  -19.9920 C.ar   68  TRP68       0.0012
     66  CZ2       15.6160   12.6820  -21.4150 C.ar   68  TRP68       0.0191
     67  CZ3       14.2830   11.2390  -20.0110 C.ar   68  TRP68       0.0001
     68  CH2       14.4690   12.4350  -20.7110 C.ar   68  TRP68       0.0015
     69  N          5.3510   19.7570  -24.3700 N.3   125  ASN125     -0.1225
     70  CA         5.8200   20.0340  -25.7190 C.3   125  ASN125      0.1785
     71  C          5.2150   19.0450  -26.7000 C.2   125  ASN125      0.2598
     72  O          4.7470   17.9640  -26.3310 O.2   125  ASN125     -0.2718
     73  CB         7.3480   19.9970  -25.7980 C.3   125  ASN125      0.1169
     74  CG         7.9070   18.6320  -25.5500 C.2   125  ASN125      0.2627
     75  OD1        8.3400   17.9510  -26.4750 O.2   125  ASN125     -0.2716
     76  ND2        7.8920   18.2100  -24.2940 N.am  125  ASN125     -0.0877
     77  N          5.2320   19.4380  -27.9630 N.am  126  GLY126     -0.1942
     78  CA         4.8520   18.5420  -29.0300 C.3   126  GLY126      0.2014
     79  C          3.4800   18.7740  -29.6170 C.2   126  GLY126      0.2638
     80  O          2.9420   19.8900  -29.6210 O.2   126  GLY126     -0.2714
     81  N          2.9120   17.7010  -30.1580 N.am  127  ASP127     -0.1971
     82  CA         1.7990   17.7900  -31.1020 C.3   127  ASP127      0.1709
     83  C          0.4490   17.7660  -30.3830 C.2   127  ASP127      0.2293
     84  O         -0.4050   16.8960  -30.5590 O.2   127  ASP127     -0.2864
     85  CB         1.9270   16.6710  -32.1290 C.3   127  ASP127      0.1436
     86  CG         3.2110   16.7760  -32.9260 C.2   127  ASP127      0.3671
     87  OD1        3.7220   17.9090  -33.0880 O.co2 127  ASP127     -0.2456
     88  OD2        3.7060   15.7400  -33.4220 O.co2 127  ASP127     -0.2456
@<TRIPOS>BOND
     1     9     7   ar
     2     7     6    1
     3     7     8   ar
     4     5     6    1
     5     5     2    1
     6     1     2    1
     7     2     3    1
     8    88    86   ar
     9    87    86   ar
    10    86    85    1
    11     3     4    2
    12     3    10   am
    13    85    82    1
    14    10    11    1
    15    82    83    1
    16    82    81    1
    17    84    83    2
    18    15    14    1
    19    11    14    1
    20    11    12    1
    21    13    12    2
    22    81    79   am
    23    12    16   am
    24    80    79    2
    25    79    78    1
    26    78    77    1
    27    54    53    1
    28    16    17    1
    29    53    52    1
    30    77    71   am
    31    17    20    1
    32    17    18    1
    33    23    25   ar
    34    23    21   ar
    35    20    21    1
    36    71    72    2
    37    71    70    1
    38    25    26   ar
    39    52    51    1
    40    21    22   ar
    41    75    74    2
    42    51    50    1
    43    18    19    2
    44    18    27   am
    45    73    70    1
    46    73    74    1
    47    70    69    1
    48    74    76   am
    49    26    24   ar
    50    27    28    1
    51    22    24   ar
    52    48    49    2
    53    48    47    1
    54    50    47    1
    55    47    46    1
    56    28    29    1
    57    30    29    2
    58    45    43   ar
    59    44    43   ar
    60    43    42    1
    61    63    61   ar
    62    63    64   ar
    63    61    60   ar
    64    66    64   ar
    65    66    68   ar
    66    64    62   ar
    67    42    41    1
    68    60    62   ar
    69    60    59    1
    70    68    67   ar
    71    62    65   ar
    72    59    56    1
    73    67    65   ar
    74    36    35    1
    75    41    38    1
    76    40    39    2
    77    39    38    1
    78    55    56    1
    79    56    57    1
    80    31    32    1
    81    38    37    1
    82    35    32    1
    83    58    57    2
    84    32    33    1
    85    33    34    2
