@<TRIPOS>MOLECULE
tmp/5itaB00.pdb
 182 172 0 0 0
SMALL
GASTEIGER

@<TRIPOS>ATOM
      1  N         24.4570   -9.6450   13.0510 N.3    16  ILE16      -0.1245
      2  CA        25.5400   -8.6830   12.8380 C.3    16  ILE16       0.1561
      3  C         25.5850   -7.6410   13.9430 C.2    16  ILE16       0.2260
      4  O         26.6200   -7.4410   14.5760 O.2    16  ILE16      -0.2867
      5  CB        25.4080   -8.0030   11.4560 C.3    16  ILE16       0.0252
      6  CG1       25.4500   -9.0350   10.3270 C.3    16  ILE16       0.0019
      7  CG2       26.5030   -6.9660   11.2870 C.3    16  ILE16       0.0019
      8  CD1       26.6940   -9.8870   10.3240 C.3    16  ILE16       0.0001
      9  N         20.4380   -5.8700   12.4790 N.3    21  VAL21      -0.1245
     10  CA        20.9090   -6.3030   11.1610 C.3    21  VAL21       0.1561
     11  C         21.3670   -7.7530   11.2420 C.2    21  VAL21       0.2260
     12  O         22.1420   -8.1220   12.1350 O.2    21  VAL21      -0.2867
     13  CB        22.0470   -5.4010   10.6490 C.3    21  VAL21       0.0252
     14  CG1       22.5690   -5.9060    9.2920 C.3    21  VAL21       0.0019
     15  CG2       21.5800   -3.9600   10.5330 C.3    21  VAL21       0.0019
     16  N         21.5990   -8.5980    3.3090 N.3    31  ALA31      -0.1245
     17  CA        21.5170   -8.0650    4.6620 C.3    31  ALA31       0.1562
     18  C         20.0600   -7.7490    4.9710 C.2    31  ALA31       0.2260
     19  O         19.3300   -7.2450    4.1100 O.2    31  ALA31      -0.2867
     20  CB        22.3820   -6.8120    4.8200 C.3    31  ALA31       0.0290
     21  N         17.6720   -5.9070    7.9280 N.3    33  LYS33      -0.1245
     22  CA        17.5110   -5.0730    9.1100 C.3    33  LYS33       0.1561
     23  C         16.0490   -5.1480    9.5290 C.2    33  LYS33       0.2260
     24  O         15.1630   -4.7630    8.7610 O.2    33  LYS33      -0.2867
     25  CB        17.9380   -3.6370    8.8020 C.3    33  LYS33       0.0271
     26  CG        17.5120   -2.5890    9.8110 C.3    33  LYS33       0.0035
     27  CD        18.1950   -1.2640    9.4870 C.3    33  LYS33       0.0206
     28  CE        17.3170   -0.0780    9.8370 C.3    33  LYS33       0.1093
     29  NZ        17.0010    0.7550    8.6310 N.3    33  LYS33      -0.1314
     30  N         10.0290    5.3110    4.5400 N.3    51  GLU51      -0.1245
     31  CA        11.4190    4.9240    4.3180 C.3    51  GLU51       0.1567
     32  C         11.5630    4.1130    3.0350 C.2    51  GLU51       0.2260
     33  O         12.4520    4.3790    2.2150 O.2    51  GLU51      -0.2867
     34  CB        11.9400    4.1320    5.5130 C.3    51  GLU51       0.0388
     35  CG        13.2090    3.3580    5.2260 C.3    51  GLU51       0.1160
     36  CD        13.6940    2.5680    6.4240 C.2    51  GLU51       0.3649
     37  OE1       13.0190    1.5850    6.8060 O.co2  51  GLU51      -0.2457
     38  OE2       14.7510    2.9260    6.9860 O.co2  51  GLU51      -0.2457
     39  N         13.9970    4.6520   -0.2050 N.3    55  LEU55      -0.1245
     40  CA        14.9650    3.6740   -0.7040 C.3    55  LEU55       0.1561
     41  C         14.6790    3.2950   -2.1470 C.2    55  LEU55       0.2260
     42  O         15.6110    3.1290   -2.9440 O.2    55  LEU55      -0.2867
     43  CB        14.9640    2.4170    0.1750 C.3    55  LEU55       0.0270
     44  CG        15.2780    2.6900    1.6570 C.3    55  LEU55       0.0019
     45  CD1       15.2960    1.3780    2.4030 C.3    55  LEU55       0.0001
     46  CD2       16.6090    3.4100    1.8130 C.3    55  LEU55       0.0001
     47  N         16.5030    5.0630   -5.1270 N.3    58  THR58      -0.1218
     48  CA        17.9600    5.0890   -5.1980 C.3    58  THR58       0.1862
     49  C         18.4600    3.9420   -6.0660 C.2    58  THR58       0.2287
     50  O         18.1560    2.7750   -5.7890 O.2    58  THR58      -0.2866
     51  CB        18.5890    5.0280   -3.8040 C.3    58  THR58       0.1770
     52  OG1       18.1730    3.8450   -3.1010 O.3    58  THR58      -0.2211
     53  CG2       18.1630    6.2650   -2.9820 C.3    58  THR58       0.0375
     54  N         25.5210    3.8320   -3.3930 N.3    63  ILE63      -0.1231
     55  CA        24.4490    3.7270   -2.4090 C.3    63  ILE63       0.1692
     56  C         24.2030    2.2460   -2.1490 C.2    63  ILE63       0.2591
     57  O         24.0620    1.4620   -3.0970 O.2    63  ILE63      -0.2718
     58  CB        23.1660    4.4170   -2.9110 C.3    63  ILE63       0.0266
     59  CG1       23.4480    5.8810   -3.2890 C.3    63  ILE63       0.0019
     60  CG2       22.0490    4.3000   -1.8740 C.3    63  ILE63       0.0020
     61  CD1       23.9640    6.7420   -2.1010 C.3    63  ILE63       0.0001
     62  N         24.1650    1.8590   -0.8760 N.am   64  LEU64      -0.1980
     63  CA        23.8140    0.4870   -0.5210 C.3    64  LEU64       0.1596
     64  C         22.5400    0.0670   -1.2430 C.2    64  LEU64       0.2287
     65  O         21.5340    0.7750   -1.2080 O.2    64  LEU64      -0.2864
     66  CB        23.6190    0.3750    0.9860 C.3    64  LEU64       0.0297
     67  CG        23.2980   -0.9960    1.5650 C.3    64  LEU64       0.0022
     68  CD1       24.4770   -1.9490    1.4230 C.3    64  LEU64       0.0001
     69  CD2       22.8940   -0.8320    3.0450 C.3    64  LEU64       0.0001
     70  N         19.2690   -1.1520   -2.0590 N.3    66  PHE66      -0.1241
     71  CA        17.9790   -1.6290   -1.5890 C.3    66  PHE66       0.1605
     72  C         17.4880   -2.7450   -2.5060 C.2    66  PHE66       0.2264
     73  O         17.5870   -2.6400   -3.7260 O.2    66  PHE66      -0.2867
     74  CB        16.9910   -0.4660   -1.5720 C.3    66  PHE66       0.0534
     75  CG        15.5650   -0.8740   -1.3660 C.ar   66  PHE66      -0.0203
     76  CD1       15.1190   -1.2670   -0.1140 C.ar   66  PHE66      -0.0042
     77  CD2       14.6660   -0.8360   -2.4150 C.ar   66  PHE66      -0.0042
     78  CE1       13.8050   -1.6360    0.0890 C.ar   66  PHE66      -0.0003
     79  CE2       13.3390   -1.2020   -2.2230 C.ar   66  PHE66      -0.0003
     80  CZ        12.9100   -1.6010   -0.9670 C.ar   66  PHE66      -0.0000
     81  N         14.0100   -4.3270    6.1820 N.3    77  ILE77      -0.1245
     82  CA        14.6260   -3.8070    4.9640 C.3    77  ILE77       0.1561
     83  C         15.6670   -4.8120    4.5050 C.2    77  ILE77       0.2260
     84  O         16.5410   -5.2060    5.2860 O.2    77  ILE77      -0.2867
     85  CB        15.2930   -2.4400    5.1950 C.3    77  ILE77       0.0252
     86  CG1       14.2810   -1.4140    5.6990 C.3    77  ILE77       0.0019
     87  CG2       15.9440   -1.9310    3.9250 C.3    77  ILE77       0.0019
     88  CD1       13.0300   -1.3900    4.8900 C.3    77  ILE77       0.0001
     89  N         18.7720   -5.5440    1.8960 N.3    79  THR79      -0.1203
     90  CA        19.7260   -4.9270    0.9810 C.3    79  THR79       0.1994
     91  C         20.7370   -5.9680    0.5180 C.2    79  THR79       0.2618
     92  O         20.7840   -7.0940    1.0240 O.2    79  THR79      -0.2717
     93  CB        20.4780   -3.7440    1.6260 C.3    79  THR79       0.1784
     94  OG1       21.4690   -4.2430    2.5310 O.3    79  THR79      -0.2211
     95  CG2       19.5280   -2.8410    2.3780 C.3    79  THR79       0.0376
     96  N         21.5750   -5.5650   -0.4350 N.am   80  GLN80      -0.1965
     97  CA        22.7530   -6.3530   -0.7550 C.3    80  GLN80       0.1733
     98  C         23.5900   -6.5940    0.4970 C.2    80  GLN80       0.2616
     99  O         23.5680   -5.8140    1.4560 O.2    80  GLN80      -0.2715
    100  CB        23.6180   -5.6360   -1.7920 C.3    80  GLN80       0.0408
    101  CG        24.2880   -4.3880   -1.2060 C.3    80  GLN80       0.0908
    102  CD        25.2440   -3.7390   -2.1730 C.2    80  GLN80       0.2608
    103  OE1       25.0080   -2.6250   -2.6360 O.2    80  GLN80      -0.2717
    104  NE2       26.3360   -4.4340   -2.4860 N.am   80  GLN80      -0.0878
    105  N         24.3340   -7.6910    0.4760 N.am   81  TRP81      -0.1960
    106  CA        25.3820   -7.9360    1.4510 C.3    81  TRP81       0.1771
    107  C         26.6580   -7.2920    0.9350 C.2    81  TRP81       0.2619
    108  O         26.9460   -7.3550   -0.2620 O.2    81  TRP81      -0.2715
    109  CB        25.5920   -9.4390    1.6550 C.3    81  TRP81       0.0590
    110  CG        26.6690   -9.7570    2.6310 C.ar   81  TRP81       0.0006
    111  CD1       27.9010  -10.2790    2.3630 C.ar   81  TRP81       0.0946
    112  CD2       26.6140   -9.5650    4.0470 C.ar   81  TRP81       0.0152
    113  NE1       28.6140  -10.4340    3.5320 N.ar   81  TRP81      -0.2442
    114  CE2       27.8490   -9.9920    4.5760 C.ar   81  TRP81       0.0810
    115  CE3       25.6460   -9.0610    4.9170 C.ar   81  TRP81       0.0012
    116  CZ2       28.1360   -9.9390    5.9390 C.ar   81  TRP81       0.0191
    117  CZ3       25.9350   -9.0120    6.2790 C.ar   81  TRP81       0.0001
    118  CH2       27.1690   -9.4470    6.7690 C.ar   81  TRP81       0.0015
    119  N         27.4170   -6.6630    1.8300 N.am   82  CYS82      -0.1968
    120  CA        28.6930   -6.0670    1.4550 C.3    82  CYS82       0.1712
    121  C         29.8180   -6.9960    1.8930 C.2    82  CYS82       0.2296
    122  O         29.9590   -7.2990    3.0850 O.2    82  CYS82      -0.2864
    123  CB        28.8660   -4.6760    2.0640 C.3    82  CYS82       0.0983
    124  SG        27.6860   -3.4430    1.4460 S.3    82  CYS82      -0.0798
    125  N         33.0330   -7.4040    3.0980 N.3    84  GLY84      -0.1210
    126  CA        34.0190   -6.5660    3.7320 C.3    84  GLY84       0.1956
    127  C         33.4330   -5.9380    4.9680 C.2    84  GLY84       0.2613
    128  O         32.4610   -6.4440    5.5280 O.2    84  GLY84      -0.2717
    129  N         34.0250   -4.8160    5.3800 N.am   85  SER85      -0.1938
    130  CA        33.6610   -4.1580    6.6230 C.3    85  SER85       0.2055
    131  C         33.3870   -2.6810    6.3680 C.2    85  SER85       0.2643
    132  O         33.5670   -2.1710    5.2580 O.2    85  SER85      -0.2714
    133  CB        34.7650   -4.3270    7.6760 C.3    85  SER85       0.2130
    134  OG        36.0020   -3.8480    7.1800 O.3    85  SER85      -0.2179
    135  N         32.9400   -1.9990    7.4200 N.am   86  SER86      -0.1949
    136  CA        32.6570   -0.5730    7.3480 C.3    86  SER86       0.1924
    137  C         33.9470    0.2410    7.2640 C.2    86  SER86       0.2314
    138  O         35.0220   -0.1960    7.6860 O.2    86  SER86      -0.2863
    139  CB        31.8830   -0.1280    8.5860 C.3    86  SER86       0.2116
    140  OG        32.7350   -0.2070    9.7180 O.3    86  SER86      -0.2180
    141  N         28.4790    3.8620    8.8490 N.3   131  ASN131     -0.1240
    142  CA        27.4200    3.5500    7.8910 C.3   131  ASN131      0.1653
    143  C         27.9010    3.6460    6.4480 C.2   131  ASN131      0.2266
    144  O         27.0900    3.8410    5.5400 O.2   131  ASN131     -0.2867
    145  CB        26.2240    4.4840    8.0620 C.3   131  ASN131      0.1155
    146  CG        25.7330    4.5600    9.4740 C.2   131  ASN131      0.2627
    147  OD1       25.7620    3.5690   10.2200 O.2   131  ASN131     -0.2716
    148  ND2       25.2520    5.7490    9.8560 N.am  131  ASN131     -0.0877
    149  N         30.1880    1.3220    3.8640 N.3   133  PHE133     -0.1241
    150  CA        30.8060    0.0040    3.7630 C.3   133  PHE133      0.1605
    151  C         31.7210   -0.0390    2.5490 C.2   133  PHE133      0.2264
    152  O         31.4550    0.6170    1.5470 O.2   133  PHE133     -0.2867
    153  CB        29.7380   -1.0900    3.6680 C.3   133  PHE133      0.0534
    154  CG        28.7300   -1.0270    4.7710 C.ar  133  PHE133     -0.0203
    155  CD1       29.0460   -1.4830    6.0420 C.ar  133  PHE133     -0.0042
    156  CD2       27.4840   -0.4680    4.5550 C.ar  133  PHE133     -0.0042
    157  CE1       28.1250   -1.4080    7.0660 C.ar  133  PHE133     -0.0003
    158  CE2       26.5580   -0.3850    5.5780 C.ar  133  PHE133     -0.0003
    159  CZ        26.8780   -0.8560    6.8300 C.ar  133  PHE133     -0.0000
    160  N         24.9950    3.6380    3.5710 N.3   143  GLY143     -0.1210
    161  CA        23.7790    3.0570    4.1020 C.3   143  GLY143      0.1956
    162  C         23.1170    3.9110    5.1670 C.2   143  GLY143      0.2612
    163  O         23.5120    5.0580    5.3810 O.2   143  GLY143     -0.2717
    164  N         22.0750    3.3640    5.7920 N.am  144  ASP144     -0.1959
    165  CA        21.4060    3.9350    6.9740 C.3   144  ASP144      0.1840
    166  C         20.7840    5.3080    6.6930 C.2   144  ASP144      0.2622
    167  O         21.1490    6.3200    7.2930 O.2   144  ASP144     -0.2715
    168  CB        22.3660    4.0080    8.1660 C.3   144  ASP144      0.1450
    169  CG        21.6550    4.3780    9.4610 C.2   144  ASP144      0.3671
    170  OD1       20.5020    3.9370    9.6600 O.co2 144  ASP144     -0.2456
    171  OD2       22.2460    5.1260   10.2650 O.co2 144  ASP144     -0.2456
    172  N         19.8050    5.3170    5.7880 N.am  145  PHE145     -0.1974
    173  CA        19.0010    6.5110    5.5130 C.3   145  PHE145      0.1639
    174  C         17.5870    6.0990    5.1040 C.2   145  PHE145      0.2290
    175  O         16.6090    6.4520    5.7650 O.2   145  PHE145     -0.2864
    176  CB        19.6340    7.3890    4.4180 C.3   145  PHE145      0.0560
    177  CG        19.7030    6.7290    3.0550 C.ar  145  PHE145     -0.0200
    178  CD1       20.8230    5.9930    2.6870 C.ar  145  PHE145     -0.0042
    179  CD2       18.6660    6.8610    2.1450 C.ar  145  PHE145     -0.0042
    180  CE1       20.9130    5.3930    1.4530 C.ar  145  PHE145     -0.0003
    181  CE2       18.7360    6.2460    0.8800 C.ar  145  PHE145     -0.0003
    182  CZ        19.8520    5.4960    0.5460 C.ar  145  PHE145     -0.0000
@<TRIPOS>BOND
     1    49    50    2
     2    49    48    1
     3    48    47    1
     4    48    51    1
     5    51    52    1
     6    51    53    1
     7    73    72    2
     8    54    55    1
     9    59    58    1
    10    59    61    1
    11    57    56    2
    12    42    41    2
    13    58    55    1
    14    58    60    1
    15   103   102    2
    16    72    71    1
    17   104   102   am
    18    77    79   ar
    19    77    75   ar
    20    55    56    1
    21    79    80   ar
    22   102   101    1
    23    56    62   am
    24    41    40    1
    25    70    71    1
    26   100   101    1
    27   100    97    1
    28    71    74    1
    29    74    75    1
    30    75    76   ar
    31    64    65    2
    32    64    63    1
    33    80    78   ar
    34    62    63    1
    35    97    96    1
    36    97    98    1
    37    40    39    1
    38    40    43    1
    39    63    66    1
    40    96    91   am
    41   108   107    2
    42    76    78   ar
    43    43    44    1
    44   105    98   am
    45   105   106    1
    46    98    99    2
    47    91    90    1
    48    91    92    2
    49   182   181   ar
    50   182   180   ar
    51   181   179   ar
    52   107   106    1
    53   107   119   am
    54    90    93    1
    55    90    89    1
    56    66    67    1
    57    68    67    1
    58   124   123    1
    59   106   109    1
    60   180   178   ar
    61   120   119    1
    62   120   121    1
    63   120   123    1
    64   152   151    2
    65    67    69    1
    66    93    95    1
    67    93    94    1
    68   109   110    1
    69    44    46    1
    70    44    45    1
    71   121   122    2
    72   179   177   ar
    73    33    32    2
    74   111   110   ar
    75   111   113   ar
    76   151   150    1
    77   110   112   ar
    78   178   177   ar
    79    32    31    1
    80   177   176    1
    81   125   126    1
    82    16    17    1
    83   113   114   ar
    84   160   161    1
    85   153   150    1
    86   153   154    1
    87   126   127    1
    88   150   149    1
    89    87    85    1
    90   112   114   ar
    91   112   115   ar
    92   161   162    1
    93    19    18    2
    94    31    30    1
    95    31    34    1
    96   176   173    1
    97    83    82    1
    98    83    84    2
    99   156   154   ar
   100   156   158   ar
   101   114   116   ar
   102    17    20    1
   103    17    18    1
   104   154   155   ar
   105    88    86    1
   106   115   117   ar
   107    82    85    1
   108    82    81    1
   109   127   129   am
   110   127   128    2
   111   174   173    1
   112   174   175    2
   113   162   163    2
   114   162   164   am
   115    85    86    1
   116    35    34    1
   117    35    36    1
   118   132   131    2
   119   129   130    1
   120   173   172    1
   121   144   143    2
   122   158   159   ar
   123   172   166   am
   124   164   165    1
   125   116   118   ar
   126   155   157   ar
   127   117   118   ar
   128   131   130    1
   129   131   135   am
   130    36    37   ar
   131    36    38   ar
   132   143   142    1
   133   130   133    1
   134   166   165    1
   135   166   167    2
   136   159   157   ar
   137   165   168    1
   138   134   133    1
   139   137   136    1
   140   137   138    2
   141   136   135    1
   142   136   139    1
   143   142   145    1
   144   142   141    1
   145    21    22    1
   146   145   146    1
   147   168   169    1
   148   139   140    1
   149    29    28    1
   150    24    23    2
   151    25    22    1
   152    25    26    1
   153    22    23    1
   154    14    13    1
   155   169   170   ar
   156   169   171   ar
   157   146   148   am
   158   146   147    2
   159    27    26    1
   160    27    28    1
   161     8     6    1
   162     6     5    1
   163    15    13    1
   164    13    10    1
   165    10    11    1
   166    10     9    1
   167    11    12    2
   168     7     5    1
   169     5     2    1
   170     2     1    1
   171     2     3    1
   172     3     4    2
