@<TRIPOS>MOLECULE
tmp/5itaA00.pdb
 178 168 0 0 0
SMALL
GASTEIGER

@<TRIPOS>ATOM
      1  N         32.8330    2.4980  -26.2450 N.3    16  ILE16      -0.1245
      2  CA        33.3460    1.1900  -25.8540 C.3    16  ILE16       0.1561
      3  C         33.1580    0.1610  -26.9640 C.2    16  ILE16       0.2260
      4  O         34.1020   -0.5270  -27.3450 O.2    16  ILE16      -0.2867
      5  CB        32.6800    0.7150  -24.5440 C.3    16  ILE16       0.0252
      6  CG1       32.8060    1.7960  -23.4590 C.3    16  ILE16       0.0019
      7  CG2       33.2740   -0.6340  -24.1270 C.3    16  ILE16       0.0019
      8  CD1       34.2320    2.3350  -23.2780 C.3    16  ILE16       0.0001
      9  N         27.5530    1.2820  -26.7540 N.3    24  VAL24      -0.1245
     10  CA        27.8210    1.6130  -25.3570 C.3    24  VAL24       0.1561
     11  C         28.9580    2.6240  -25.3000 C.2    24  VAL24       0.2260
     12  O         29.9730    2.4840  -26.0010 O.2    24  VAL24      -0.2867
     13  CB        28.1550    0.3530  -24.5370 C.3    24  VAL24       0.0252
     14  CG1       28.4990    0.7360  -23.0830 C.3    24  VAL24       0.0019
     15  CG2       26.9800   -0.6470  -24.5850 C.3    24  VAL24       0.0019
     16  N         27.6290    3.8450  -17.6760 N.3    34  ALA34      -0.1245
     17  CA        27.6260    3.3650  -19.0480 C.3    34  ALA34       0.1562
     18  C         26.3500    3.8470  -19.7120 C.2    34  ALA34       0.2260
     19  O         25.2920    3.8690  -19.0880 O.2    34  ALA34      -0.2867
     20  CB        27.7090    1.8350  -19.1120 C.3    34  ALA34       0.0290
     21  N         24.0760    3.2440  -23.1410 N.3    36  LYS36      -0.1245
     22  CA        23.8070    2.4390  -24.3350 C.3    36  LYS36       0.1561
     23  C         22.8360    3.2260  -25.1960 C.2    36  LYS36       0.2260
     24  O         21.6590    3.3590  -24.8430 O.2    36  LYS36      -0.2867
     25  CB        23.2340    1.0710  -23.9620 C.3    36  LYS36       0.0271
     26  CG        22.8700    0.1690  -25.1720 C.3    36  LYS36       0.0035
     27  CD        22.4560   -1.2490  -24.6750 C.3    36  LYS36       0.0206
     28  CE        21.7540   -2.0660  -25.7450 C.3    36  LYS36       0.1093
     29  NZ        21.2800   -3.3740  -25.1790 N.3    36  LYS36      -0.1314
     30  N         10.7570   -2.0000  -22.2840 N.3    54  GLU54      -0.1245
     31  CA        12.0900   -2.4620  -21.9240 C.3    54  GLU54       0.1567
     32  C         12.5530   -1.8510  -20.6100 C.2    54  GLU54       0.2260
     33  O         13.1440   -2.5420  -19.7690 O.2    54  GLU54      -0.2867
     34  CB        13.0830   -2.1290  -23.0310 C.3    54  GLU54       0.0388
     35  CG        14.5200   -2.1000  -22.5370 C.3    54  GLU54       0.1160
     36  CD        15.4970   -2.3860  -23.6400 C.2    54  GLU54       0.3649
     37  OE1       15.2130   -3.3230  -24.3980 O.co2  54  GLU54      -0.2457
     38  OE2       16.5310   -1.7010  -23.7540 O.co2  54  GLU54      -0.2457
     39  N         13.7750   -3.6330  -16.8770 N.3    58  LEU58      -0.1245
     40  CA        15.0130   -3.3330  -16.1610 C.3    58  LEU58       0.1561
     41  C         14.7390   -2.7920  -14.7690 C.2    58  LEU58       0.2260
     42  O         15.5170   -3.0610  -13.8390 O.2    58  LEU58      -0.2867
     43  CB        15.8520   -2.3200  -16.9450 C.3    58  LEU58       0.0270
     44  CG        16.0760   -2.6840  -18.4250 C.3    58  LEU58       0.0019
     45  CD1       16.9110   -1.6080  -19.1040 C.3    58  LEU58       0.0001
     46  CD2       16.7470   -4.0490  -18.5500 C.3    58  LEU58       0.0001
     47  N         14.7030   -4.9900  -11.4900 N.3    61  THR61      -0.1218
     48  CA        15.9030   -5.6880  -11.0440 C.3    61  THR61       0.1862
     49  C         16.6900   -4.8480  -10.0390 C.2    61  THR61       0.2287
     50  O         17.0670   -3.7050  -10.3210 O.2    61  THR61      -0.2866
     51  CB        16.7830   -6.1040  -12.2250 C.3    61  THR61       0.1770
     52  OG1       17.2010   -4.9580  -12.9750 O.3    61  THR61      -0.2211
     53  CG2       16.0040   -7.0610  -13.1280 C.3    61  THR61       0.0375
     54  N         23.6760   -6.1500  -13.5620 N.3    67  LEU67      -0.1245
     55  CA        24.1310   -4.8040  -13.9160 C.3    67  LEU67       0.1561
     56  C         23.0830   -3.7780  -13.4980 C.2    67  LEU67       0.2260
     57  O         21.8940   -3.9320  -13.7900 O.2    67  LEU67      -0.2867
     58  CB        24.4060   -4.7190  -15.4210 C.3    67  LEU67       0.0270
     59  CG        24.8780   -3.3770  -16.0000 C.3    67  LEU67       0.0019
     60  CD1       26.2610   -3.0750  -15.5370 C.3    67  LEU67       0.0001
     61  CD2       24.8440   -3.4640  -17.5660 C.3    67  LEU67       0.0001
     62  N         20.6830   -1.0140  -13.4110 N.3    69  PHE69      -0.1241
     63  CA        19.9840    0.0000  -14.1940 C.3    69  PHE69       0.1605
     64  C         19.9430    1.2940  -13.3910 C.2    69  PHE69       0.2264
     65  O         19.6440    1.2710  -12.2040 O.2    69  PHE69      -0.2867
     66  CB        18.5550   -0.4620  -14.5110 C.3    69  PHE69       0.0534
     67  CG        17.6680    0.6180  -15.0480 C.ar   69  PHE69      -0.0203
     68  CD1       17.7680    1.0210  -16.3750 C.ar   69  PHE69      -0.0042
     69  CD2       16.7300    1.2370  -14.2290 C.ar   69  PHE69      -0.0042
     70  CE1       16.9500    2.0260  -16.8760 C.ar   69  PHE69      -0.0003
     71  CE2       15.9020    2.2510  -14.7290 C.ar   69  PHE69      -0.0003
     72  CZ        16.0230    2.6470  -16.0460 C.ar   69  PHE69      -0.0000
     73  N         19.8280    3.8150  -22.5770 N.3    80  ILE80      -0.1245
     74  CA        19.7540    3.1460  -21.2760 C.3    80  ILE80       0.1561
     75  C         21.0330    3.4630  -20.5200 C.2    80  ILE80       0.2260
     76  O         22.1350    3.3170  -21.0670 O.2    80  ILE80      -0.2867
     77  CB        19.6140    1.6220  -21.4270 C.3    80  ILE80       0.0252
     78  CG1       18.3670    1.2390  -22.2500 C.3    80  ILE80       0.0019
     79  CG2       19.6340    0.9350  -20.0420 C.3    80  ILE80       0.0019
     80  CD1       17.0730    1.7440  -21.6560 C.3    80  ILE80       0.0001
     81  N         23.3720    2.7310  -17.0960 N.3    82  THR82      -0.1203
     82  CA        23.6220    1.7990  -16.0090 C.3    82  THR82       0.1994
     83  C         24.8750    2.2430  -15.2890 C.2    82  THR82       0.2618
     84  O         25.5840    3.1460  -15.7400 O.2    82  THR82      -0.2717
     85  CB        23.8340    0.3580  -16.5170 C.3    82  THR82       0.1784
     86  OG1       25.0860    0.2980  -17.1930 O.3    82  THR82      -0.2211
     87  CG2       22.7370   -0.0710  -17.4610 C.3    82  THR82       0.0376
     88  N         25.1580    1.5750  -14.1690 N.am   83  GLN83      -0.1965
     89  CA        26.4770    1.7060  -13.5670 C.3    83  GLN83       0.1733
     90  C         27.5900    1.4240  -14.5790 C.2    83  GLN83       0.2616
     91  O         27.4030    0.7090  -15.5790 O.2    83  GLN83      -0.2715
     92  CB        26.6200    0.7530  -12.3700 C.3    83  GLN83       0.0408
     93  CG        26.7610   -0.6960  -12.8370 C.3    83  GLN83       0.0908
     94  CD        27.0750   -1.6570  -11.7140 C.2    83  GLN83       0.2608
     95  OE1       26.2830   -2.5620  -11.4290 O.2    83  GLN83      -0.2717
     96  NE2       28.2460   -1.4810  -11.0770 N.am   83  GLN83      -0.0878
     97  N         28.7590    1.9790  -14.3080 N.am   84  TRP84      -0.1960
     98  CA        29.9880    1.5640  -14.9510 C.3    84  TRP84       0.1771
     99  C         30.5930    0.4110  -14.1580 C.2    84  TRP84       0.2619
    100  O         30.6030    0.4280  -12.9250 O.2    84  TRP84      -0.2715
    101  CB        30.9710    2.7280  -15.0310 C.3    84  TRP84       0.0590
    102  CG        32.2440    2.3490  -15.7280 C.ar   84  TRP84       0.0006
    103  CD1       33.4750    2.1350  -15.1610 C.ar   84  TRP84       0.0946
    104  CD2       32.3960    2.1190  -17.1210 C.ar   84  TRP84       0.0152
    105  NE1       34.3860    1.7900  -16.1290 N.ar   84  TRP84      -0.2442
    106  CE2       33.7480    1.7640  -17.3430 C.ar   84  TRP84       0.0810
    107  CE3       31.5170    2.1720  -18.2160 C.ar   84  TRP84       0.0012
    108  CZ2       34.2440    1.4680  -18.6170 C.ar   84  TRP84       0.0191
    109  CZ3       32.0190    1.8660  -19.4860 C.ar   84  TRP84       0.0001
    110  CH2       33.3670    1.5260  -19.6700 C.ar   84  TRP84       0.0015
    111  N         31.0850   -0.6050  -14.8570 N.am   85  CYS85      -0.1968
    112  CA        31.7490   -1.7220  -14.1880 C.3    85  CYS85       0.1712
    113  C         33.2550   -1.5040  -14.2820 C.2    85  CYS85       0.2296
    114  O         33.8260   -1.5130  -15.3800 O.2    85  CYS85      -0.2864
    115  CB        31.3390   -3.0610  -14.7990 C.3    85  CYS85       0.0983
    116  SG        29.5870   -3.4040  -14.6270 S.3    85  CYS85      -0.0798
    117  N         36.6270   -2.4090  -14.6870 N.3    87  GLY87      -0.1210
    118  CA        37.3380   -3.5870  -15.1110 C.3    87  GLY87       0.1956
    119  C         36.8750   -3.9930  -16.4920 C.2    87  GLY87       0.2613
    120  O         36.5690   -3.1440  -17.3340 O.2    87  GLY87      -0.2717
    121  N         36.8040   -5.2860  -16.7340 N.am   88  SER88      -0.1938
    122  CA        36.5060   -5.7680  -18.0720 C.3    88  SER88       0.2055
    123  C         35.4710   -6.8770  -17.9900 C.2    88  SER88       0.2643
    124  O         35.0850   -7.3240  -16.9050 O.2    88  SER88      -0.2714
    125  CB        37.7820   -6.2420  -18.7650 C.3    88  SER88       0.2130
    126  OG        38.4710   -7.1640  -17.9550 O.3    88  SER88      -0.2179
    127  N         35.0110   -7.3080  -19.1600 N.am   89  SER89      -0.1949
    128  CA        34.0650   -8.4010  -19.2340 C.3    89  SER89       0.1924
    129  C         34.7420   -9.7200  -18.8840 C.2    89  SER89       0.2314
    130  O         35.9630   -9.8790  -18.9860 O.2    89  SER89      -0.2863
    131  CB        33.4820   -8.5030  -20.6370 C.3    89  SER89       0.2116
    132  OG        34.4830   -8.9920  -21.5030 O.3    89  SER89      -0.2180
    133  N         28.7710  -10.2130  -22.0200 N.3   134  ASN134     -0.1240
    134  CA        27.8930   -9.2890  -21.3220 C.3   134  ASN134      0.1653
    135  C         27.7480   -9.7100  -19.8670 C.2   134  ASN134      0.2266
    136  O         26.6960   -9.5310  -19.2410 O.2   134  ASN134     -0.2867
    137  CB        26.5500   -9.1720  -22.0320 C.3   134  ASN134      0.1155
    138  CG        26.6860   -8.5870  -23.4310 C.2   134  ASN134      0.2627
    139  OD1       26.1990   -9.1630  -24.4040 O.2   134  ASN134     -0.2716
    140  ND2       27.3460   -7.4280  -23.5360 N.am  134  ASN134     -0.0877
    141  N         30.1120   -8.7790  -16.5930 N.3   136  PHE136     -0.1241
    142  CA        31.2340   -7.9190  -16.2440 C.3   136  PHE136      0.1605
    143  C         31.7510   -8.2540  -14.8530 C.2   136  PHE136      0.2264
    144  O         30.9890   -8.6700  -13.9750 O.2   136  PHE136     -0.2867
    145  CB        30.8220   -6.4380  -16.3490 C.3   136  PHE136      0.0534
    146  CG        30.2580   -6.1060  -17.6930 C.ar  136  PHE136     -0.0203
    147  CD1       31.1000   -5.8240  -18.7550 C.ar  136  PHE136     -0.0042
    148  CD2       28.8920   -6.1690  -17.9140 C.ar  136  PHE136     -0.0042
    149  CE1       30.5820   -5.5750  -20.0150 C.ar  136  PHE136     -0.0003
    150  CE2       28.3720   -5.9210  -19.1740 C.ar  136  PHE136     -0.0003
    151  CZ        29.2130   -5.6280  -20.2140 C.ar  136  PHE136     -0.0000
    152  N         24.5070   -8.2090  -17.7040 N.3   146  GLY146     -0.1210
    153  CA        23.7580   -7.2130  -18.4390 C.3   146  GLY146      0.1956
    154  C         23.0830   -7.7860  -19.6770 C.2   146  GLY146      0.2612
    155  O         23.0540   -9.0080  -19.8690 O.2   146  GLY146     -0.2717
    156  N         22.4960   -6.9030  -20.4830 N.am  147  ASP147     -0.1959
    157  CA        22.0220   -7.2190  -21.8420 C.3   147  ASP147      0.1840
    158  C         20.8180   -8.1660  -21.8460 C.2   147  ASP147      0.2622
    159  O         20.7580   -9.1170  -22.6240 O.2   147  ASP147     -0.2715
    160  CB        23.1540   -7.7910  -22.6930 C.3   147  ASP147      0.1450
    161  CG        22.8050   -7.8130  -24.1810 C.2   147  ASP147      0.3671
    162  OD1       22.1310   -6.8700  -24.6360 O.co2 147  ASP147     -0.2456
    163  OD2       23.1810   -8.7860  -24.8670 O.co2 147  ASP147     -0.2456
    164  N         19.8370   -7.8820  -20.9930 N.am  148  PHE148     -0.1960
    165  CA        18.5880   -8.6350  -20.9850 C.3   148  PHE148      0.1771
    166  C         17.3630   -7.7510  -21.2040 C.2   148  PHE148      0.2620
    167  O         16.2390   -8.2490  -21.1210 O.2   148  PHE148     -0.2715
    168  CB        18.4400   -9.4300  -19.6850 C.3   148  PHE148      0.0574
    169  CG        18.4820   -8.5720  -18.4510 C.ar  148  PHE148     -0.0200
    170  CD1       17.3210   -8.0080  -17.9480 C.ar  148  PHE148     -0.0042
    171  CD2       19.6820   -8.2940  -17.8280 C.ar  148  PHE148     -0.0042
    172  CE1       17.3570   -7.1940  -16.8270 C.ar  148  PHE148     -0.0003
    173  CE2       19.7270   -7.4730  -16.7040 C.ar  148  PHE148     -0.0003
    174  CZ        18.5700   -6.9250  -16.2080 C.ar  148  PHE148     -0.0000
    175  N         17.5350   -6.4620  -21.4900 N.am  149  GLY149     -0.1954
    176  CA        16.4190   -5.6910  -22.0250 C.3   149  GLY149      0.1869
    177  C         15.8790   -6.2530  -23.3360 C.2   149  GLY149      0.2309
    178  O         16.3590   -7.2890  -23.8030 O.2   149  GLY149     -0.2863
@<TRIPOS>BOND
     1     4     3    2
     2     3     2    1
     3     9    10    1
     4     1     2    1
     5    12    11    2
     6     2     5    1
     7    28    29    1
     8    28    27    1
     9    10    11    1
    10    10    13    1
    11    23    24    2
    12    23    22    1
    13    26    27    1
    14    26    25    1
    15   163   161   ar
    16   162   161   ar
    17    15    13    1
    18     5     7    1
    19     5     6    1
    20    13    14    1
    21   139   138    2
    22    37    36   ar
    23    22    25    1
    24    22    21    1
    25   161   160    1
    26   178   177    2
    27    38    36   ar
    28    36    35    1
    29   140   138   am
    30     6     8    1
    31   138   137    1
    32   177   176    1
    33    34    35    1
    34    34    31    1
    35   160   157    1
    36   159   158    2
    37    73    74    1
    38    30    31    1
    39    78    80    1
    40    78    77    1
    41   137   134    1
    42   176   175    1
    43   133   134    1
    44    31    32    1
    45   158   157    1
    46   158   164   am
    47   157   156    1
    48   132   131    1
    49   175   166   am
    50    77    74    1
    51    77    79    1
    52   134   135    1
    53    74    75    1
    54   166   167    2
    55   166   165    1
    56    76    75    2
    57   164   165    1
    58   165   168    1
    59   131   128    1
    60    32    33    2
    61   156   154   am
    62   151   149   ar
    63   151   150   ar
    64   149   147   ar
    65   155   154    2
    66   135   136    2
    67    18    19    2
    68    18    17    1
    69   168   169    1
    70   154   153    1
    71   110   109   ar
    72   110   108   ar
    73   109   107   ar
    74   128   127    1
    75   128   129    1
    76   150   148   ar
    77   127   123   am
    78    20    17    1
    79    45    44    1
    80    17    16    1
    81   130   129    2
    82   125   122    1
    83   125   126    1
    84   147   146   ar
    85   108   106   ar
    86    46    44    1
    87   169   170   ar
    88   169   171   ar
    89   153   152    1
    90    44    43    1
    91   107   104   ar
    92   122   123    1
    93   122   121    1
    94   123   124    2
    95   170   172   ar
    96   148   146   ar
    97   171   173   ar
    98   146   145    1
    99    61    59    1
   100    87    85    1
   101   106   104   ar
   102   106   105   ar
   103   120   119    2
   104    86    85    1
   105   104   102   ar
   106    81    82    1
   107    43    40    1
   108    39    40    1
   109    70    68   ar
   110    70    72   ar
   111   172   174   ar
   112   121   119   am
   113   173   174   ar
   114   141   142    1
   115    85    82    1
   116   119   118    1
   117    68    67   ar
   118   145   142    1
   119   142   143    1
   120    40    41    1
   121   105   103   ar
   122    72    71   ar
   123    82    83    1
   124    59    60    1
   125    59    58    1
   126    84    83    2
   127   102   103   ar
   128   102   101    1
   129    91    90    2
   130    58    55    1
   131   114   113    2
   132    83    88   am
   133   118   117    1
   134    67    66    1
   135    67    69   ar
   136   101    98    1
   137    98    97    1
   138    98    99    1
   139   111   112    1
   140   111    99   am
   141   143   144    2
   142   115   116    1
   143   115   112    1
   144    41    42    2
   145    71    69   ar
   146    90    97   am
   147    90    89    1
   148    66    63    1
   149   113   112    1
   150    63    62    1
   151    63    64    1
   152    88    89    1
   153    99   100    2
   154    55    54    1
   155    55    56    1
   156    57    56    2
   157    89    92    1
   158    64    65    2
   159    53    51    1
   160    52    51    1
   161    93    92    1
   162    93    94    1
   163    51    48    1
   164    94    95    2
   165    94    96   am
   166    47    48    1
   167    48    49    1
   168    50    49    2
