@<TRIPOS>MOLECULE
tmp/5itdA00.pdb
 183 169 0 0 0
SMALL
GASTEIGER

@<TRIPOS>ATOM
      1  N         -7.0840  115.3560   21.9860 N.3   716  MET716     -0.1245
      2  CA        -6.0200  114.3760   21.7330 C.3   716  MET716      0.1570
      3  C         -5.9650  113.3160   22.8330 C.2   716  MET716      0.2261
      4  O         -6.3390  113.5870   23.9740 O.2   716  MET716     -0.2867
      5  CB        -4.6600  115.0490   21.5000 C.3   716  MET716      0.0387
      6  CG        -4.5870  115.8430   20.1990 C.3   716  MET716      0.0595
      7  SD        -3.4590  117.2750   20.2680 S.3   716  MET716     -0.1393
      8  CE        -1.8280  116.4370   20.1800 C.3   716  MET716      0.0692
      9  N         -3.7060  112.0010   24.6930 N.3   718  SER718     -0.1217
     10  CA        -2.7950  112.1250   25.8410 C.3   718  SER718      0.1889
     11  C         -3.6150  112.3050   27.1420 C.2   718  SER718      0.2288
     12  O         -4.7150  112.8830   27.1090 O.2   718  SER718     -0.2866
     13  CB        -1.8850  113.3360   25.6660 C.3   718  SER718      0.2089
     14  OG        -1.1400  113.2570   24.4620 O.3   718  SER718     -0.2183
     15  N         -5.0220  117.3310   25.4230 N.3   722  PRO722     -0.2116
     16  CA        -4.7980  118.5590   24.6650 C.3   722  PRO722      0.1372
     17  C         -5.9090  118.7740   23.6400 C.2   722  PRO722      0.2244
     18  O         -6.4940  117.8030   23.1680 O.2   722  PRO722     -0.2868
     19  CB        -3.4380  118.3120   23.9910 C.3   722  PRO722      0.0268
     20  CG        -2.9100  117.0510   24.5770 C.3   722  PRO722      0.0207
     21  CD        -4.0950  116.2750   24.9880 C.3   722  PRO722      0.0892
     22  N         -6.9830  120.0490   19.9920 N.3   724  TRP724     -0.1241
     23  CA        -6.4750  120.3390   18.6760 C.3   724  TRP724      0.1605
     24  C         -7.4970  121.2850   18.1020 C.2   724  TRP724      0.2264
     25  O         -8.5760  120.8550   17.7290 O.2   724  TRP724     -0.2867
     26  CB        -6.4410  119.0500   17.8760 C.3   724  TRP724      0.0550
     27  CG        -5.8940  119.1950   16.5010 C.ar  724  TRP724      0.0003
     28  CD1       -6.5220  119.7330   15.4170 C.ar  724  TRP724      0.0946
     29  CD2       -4.6520  118.6700   16.0290 C.ar  724  TRP724      0.0152
     30  NE1       -5.7220  119.6180   14.3050 N.ar  724  TRP724     -0.2442
     31  CE2       -4.5670  118.9690   14.6530 C.ar  724  TRP724      0.0810
     32  CE3       -3.5880  117.9860   16.6440 C.ar  724  TRP724      0.0012
     33  CZ2       -3.4700  118.5980   13.8760 C.ar  724  TRP724      0.0191
     34  CZ3       -2.4930  117.6260   15.8750 C.ar  724  TRP724      0.0001
     35  CH2       -2.4400  117.9320   14.5080 C.ar  724  TRP724      0.0015
     36  N         -2.4390  123.5810   19.0180 N.3   744  ILE744     -0.1245
     37  CA        -2.6180  122.5970   20.0770 C.3   744  ILE744      0.1561
     38  C         -2.6380  123.3660   21.4020 C.2   744  ILE744      0.2260
     39  O         -1.6550  124.0350   21.7590 O.2   744  ILE744     -0.2867
     40  CB        -1.5980  121.4300   20.0150 C.3   744  ILE744      0.0252
     41  CG1       -1.8480  120.5850   18.7460 C.3   744  ILE744      0.0019
     42  CG2       -1.6820  120.5710   21.2870 C.3   744  ILE744      0.0019
     43  CD1       -0.7750  119.5870   18.3650 C.3   744  ILE744      0.0001
     44  N         -2.5530  123.2940   25.3070 N.3   746  LYS746     -0.1245
     45  CA        -2.1790  122.3450   26.3450 C.3   746  LYS746      0.1561
     46  C         -2.2480  122.9020   27.7610 C.2   746  LYS746      0.2260
     47  O         -1.6870  123.9520   28.0630 O.2   746  LYS746     -0.2867
     48  CB        -0.8190  121.7150   26.0740 C.3   746  LYS746      0.0271
     49  CG        -0.7640  120.2740   26.5660 C.3   746  LYS746      0.0035
     50  CD         0.5330  119.6260   26.1880 C.3   746  LYS746      0.0206
     51  CE         0.8070  118.4050   27.0060 C.3   746  LYS746      0.1093
     52  NZ         2.1280  117.8380   26.6550 N.3   746  LYS746     -0.1314
     53  N          5.5360  124.2520   29.4460 N.3   751  LEU751     -0.1245
     54  CA         6.0410  124.3990   28.0790 C.3   751  LEU751      0.1561
     55  C          7.2410  125.3270   27.9750 C.2   751  LEU751      0.2260
     56  O          7.6360  125.6790   26.8640 O.2   751  LEU751     -0.2867
     57  CB         4.9120  124.7970   27.0990 C.3   751  LEU751      0.0270
     58  CG         3.8090  123.7400   26.9400 C.3   751  LEU751      0.0019
     59  CD1        2.8270  124.1340   25.8900 C.3   751  LEU751      0.0001
     60  CD2        4.3770  122.3510   26.6040 C.3   751  LEU751      0.0001
     61  N         10.3290  123.5610   26.1750 N.3   754  ASP754     -0.1239
     62  CA        10.0510  123.3950   24.7430 C.3   754  ASP754      0.1674
     63  C         10.2170  124.7300   24.0330 C.2   754  ASP754      0.2266
     64  O         10.8020  124.7950   22.9540 O.2   754  ASP754     -0.2867
     65  CB         8.6290  122.8860   24.5260 C.3   754  ASP754      0.1410
     66  CG         8.5200  121.4000   24.7210 C.2   754  ASP754      0.3668
     67  OD1        8.8450  120.6600   23.7730 O.co2 754  ASP754     -0.2456
     68  OD2        8.1680  120.9730   25.8490 O.co2 754  ASP754     -0.2456
     69  N          8.6130  125.2970   15.1470 N.3   780  TYR780     -0.1241
     70  CA         7.1940  125.6940   15.1850 C.3   780  TYR780      0.1605
     71  C          6.9290  126.5370   16.4350 C.2   780  TYR780      0.2264
     72  O          7.6950  126.4800   17.4020 O.2   780  TYR780     -0.2867
     73  CB         6.2370  124.4750   15.1500 C.3   780  TYR780      0.0534
     74  CG         6.6060  123.3960   16.1390 C.ar  780  TYR780     -0.0201
     75  CD1        6.3420  123.5460   17.4970 C.ar  780  TYR780     -0.0009
     76  CD2        7.2930  122.2590   15.7330 C.ar  780  TYR780     -0.0009
     77  CE1        6.7600  122.5900   18.4250 C.ar  780  TYR780      0.0417
     78  CE2        7.6950  121.2890   16.6490 C.ar  780  TYR780      0.0417
     79  CZ         7.4290  121.4600   17.9930 C.ar  780  TYR780      0.1957
     80  OH         7.8400  120.5090   18.8790 O.3   780  TYR780     -0.2866
     81  N          5.5600  127.8310   19.8740 N.3   782  CYS782     -0.1235
     82  CA         5.3040  127.3110   21.2110 C.3   782  CYS782      0.1677
     83  C          5.3980  128.4750   22.1670 C.2   782  CYS782      0.2270
     84  O          6.4340  129.1430   22.2320 O.2   782  CYS782     -0.2867
     85  CB         6.2550  126.1870   21.5950 C.3   782  CYS782      0.0956
     86  SG         5.8470  125.3950   23.1690 S.3   782  CYS782     -0.0801
     87  N          0.8680  125.4300   21.0160 N.3   792  ILE792     -0.1231
     88  CA         1.8480  124.8360   20.1060 C.3   792  ILE792      0.1692
     89  C          1.2440  124.9640   18.7190 C.2   792  ILE792      0.2592
     90  O          0.0330  124.8120   18.5610 O.2   792  ILE792     -0.2718
     91  CB         2.1770  123.3430   20.4490 C.3   792  ILE792      0.0266
     92  CG1        2.5230  123.1370   21.9540 C.3   792  ILE792      0.0019
     93  CG2        3.2900  122.7830   19.5540 C.3   792  ILE792      0.0020
     94  CD1        1.7570  122.0380   22.6170 C.3   792  ILE792      0.0001
     95  N          2.0820  125.2380   17.7200 N.am  793  GLU793     -0.1966
     96  CA         1.7070  125.3760   16.3180 C.3   793  GLU793      0.1733
     97  C          1.7100  124.0140   15.6210 C.2   793  GLU793      0.2616
     98  O          2.6840  123.2690   15.7050 O.2   793  GLU793     -0.2715
     99  CB         2.6970  126.3040   15.6290 C.3   793  GLU793      0.0429
    100  CG         2.3180  126.6730   14.2130 C.3   793  GLU793      0.1163
    101  CD         3.4920  127.0800   13.3440 C.2   793  GLU793      0.3649
    102  OE1        3.5390  126.6340   12.1730 O.co2 793  GLU793     -0.2457
    103  OE2        4.3620  127.8410   13.8290 O.co2 793  GLU793     -0.2457
    104  N          0.6200  123.7020   14.9280 N.am  794  VAL794     -0.1963
    105  CA         0.4750  122.4710   14.1670 C.3   794  VAL794      0.1727
    106  C          1.1810  122.6560   12.8430 C.2   794  VAL794      0.2616
    107  O          1.0120  123.6810   12.1730 O.2   794  VAL794     -0.2715
    108  CB        -1.0110  122.0730   13.9930 C.3   794  VAL794      0.0290
    109  CG1       -1.2110  121.0880   12.8500 C.3   794  VAL794      0.0023
    110  CG2       -1.5850  121.5190   15.2920 C.3   794  VAL794      0.0023
    111  N          1.9920  121.6590   12.4860 N.am  795  VAL795     -0.1977
    112  CA         2.7480  121.6210   11.2450 C.3   795  VAL795      0.1596
    113  C          1.9090  120.8780   10.2160 C.2   795  VAL795      0.2287
    114  O          1.6270  119.6940   10.3960 O.2   795  VAL795     -0.2864
    115  CB         4.1400  120.9860   11.4470 C.3   795  VAL795      0.0276
    116  CG1        4.8290  120.7740   10.1080 C.3   795  VAL795      0.0022
    117  CG2        5.0040  121.8390   12.3820 C.3   795  VAL795      0.0022
    118  N          2.4640  116.8130    7.8160 N.3   798  SER798     -0.1217
    119  CA         3.5930  116.1930    8.4990 C.3   798  SER798      0.1889
    120  C          3.0980  114.9910    9.2750 C.2   798  SER798      0.2288
    121  O          1.9780  115.0290    9.7920 O.2   798  SER798     -0.2866
    122  CB         4.2810  117.1940    9.4210 C.3   798  SER798      0.2089
    123  OG         3.5100  117.5130   10.5650 O.3   798  SER798     -0.2183
    124  N          4.3200  111.4030   11.9460 N.3   800  THR800     -0.1218
    125  CA         5.3170  110.7460   12.8170 C.3   800  THR800      0.1862
    126  C          5.8980  109.5820   12.0540 C.2   800  THR800      0.2287
    127  O          5.2540  109.0920   11.1200 O.2   800  THR800     -0.2866
    128  CB         4.7270  110.2720   14.1630 C.3   800  THR800      0.1770
    129  OG1        3.6060  109.4190   13.9330 O.3   800  THR800     -0.2211
    130  CG2        4.3490  111.4190   15.0850 C.3   800  THR800      0.0375
    131  N          6.3310  106.5620   13.0440 N.3   802  MET802     -0.1230
    132  CA         5.4050  105.4760   13.3380 C.3   802  MET802      0.1702
    133  C          4.1830  105.4490   12.3780 C.2   802  MET802      0.2592
    134  O          3.8710  104.3850   11.8360 O.2   802  MET802     -0.2718
    135  CB         4.9570  105.5840   14.7910 C.3   802  MET802      0.0401
    136  CG         4.0660  104.4650   15.2330 C.3   802  MET802      0.0596
    137  SD         3.9580  104.4320   17.0320 S.3   802  MET802     -0.1393
    138  CE         3.0990  106.0660   17.3480 C.3   802  MET802      0.0692
    139  N          3.5100  106.6110   12.1620 N.am  803  GLN803     -0.1979
    140  CA         2.3620  106.7020   11.2530 C.3   803  GLN803      0.1601
    141  C          2.7580  106.2740    9.8250 C.2   803  GLN803      0.2287
    142  O          2.0060  105.5300    9.1840 O.2   803  GLN803     -0.2864
    143  CB         1.7030  108.0980   11.2810 C.3   803  GLN803      0.0394
    144  CG         0.3530  108.1390   10.5280 C.3   803  GLN803      0.0908
    145  CD        -0.3060  109.4960   10.3400 C.2   803  GLN803      0.2608
    146  OE1        0.3040  110.5680   10.4690 O.2   803  GLN803     -0.2717
    147  NE2       -1.5740  109.4670    9.9590 N.am  803  GLN803     -0.0878
    148  N          3.3510  102.4190    9.8850 N.3   806  CYS806     -0.1235
    149  CA         2.1240  101.6290    9.9190 C.3   806  CYS806      0.1677
    150  C          1.4010  101.5790    8.5700 C.2   806  CYS806      0.2270
    151  O          0.7160  100.5890    8.2910 O.2   806  CYS806     -0.2867
    152  CB         1.2080  102.0870   11.0450 C.3   806  CYS806      0.0956
    153  SG         1.8460  101.7060   12.6970 S.3   806  CYS806     -0.0801
    154  N          7.7280  108.1970   17.5840 N.3   855  SER855     -0.1217
    155  CA         6.6140  109.0520   18.0110 C.3   855  SER855      0.1889
    156  C          6.9810  110.5410   18.1370 C.2   855  SER855      0.2288
    157  O          6.0800  111.3800   18.0600 O.2   855  SER855     -0.2866
    158  CB         6.0180  108.5540   19.3290 C.3   855  SER855      0.2089
    159  OG         5.7070  107.1700   19.3200 O.3   855  SER855     -0.2183
    160  N          9.1230  113.5360   13.3290 N.3   858  MET858     -0.1245
    161  CA         8.1140  113.7740   12.2970 C.3   858  MET858      0.1570
    162  C          8.7490  114.0760   10.9330 C.2   858  MET858      0.2261
    163  O          9.8910  114.5480   10.8570 O.2   858  MET858     -0.2867
    164  CB         7.1920  114.9360   12.7040 C.3   858  MET858      0.0387
    165  CG         6.3460  114.6580   13.9180 C.3   858  MET858      0.0595
    166  SD         4.9170  115.7420   13.9070 S.3   858  MET858     -0.1393
    167  CE         3.7800  114.7950   13.0380 C.3   858  MET858      0.0692
    168  N          9.7410  116.8060   17.6000 N.3   868  ILE868     -0.1231
    169  CA         8.7380  117.4250   18.4510 C.3   868  ILE868      0.1692
    170  C          9.0230  116.9730   19.8440 C.2   868  ILE868      0.2592
    171  O          9.7850  116.0390   20.0240 O.2   868  ILE868     -0.2718
    172  CB         7.2790  117.1180   18.0360 C.3   868  ILE868      0.0266
    173  CG1        6.9540  115.5980   18.2010 C.3   868  ILE868      0.0019
    174  CG2        6.9900  117.6660   16.6240 C.3   868  ILE868      0.0020
    175  CD1        5.5870  115.0860   17.6780 C.3   868  ILE868      0.0001
    176  N          8.4280  117.6390   20.8280 N.am  869  ASP869     -0.1974
    177  CA         8.5880  117.3380   22.2520 C.3   869  ASP869      0.1709
    178  C         10.0760  117.3860   22.7210 C.2   869  ASP869      0.2293
    179  O         10.8600  116.4670   22.5100 O.2   869  ASP869     -0.2864
    180  CB         7.9040  116.0170   22.6550 C.3   869  ASP869      0.1436
    181  CG         8.1880  115.6080   24.0740 C.2   869  ASP869      0.3671
    182  OD1        7.7760  116.3490   24.9980 O.co2 869  ASP869     -0.2456
    183  OD2        8.9440  114.6360   24.2640 O.co2 869  ASP869     -0.2456
@<TRIPOS>BOND
     1   118   119    1
     2   151   150    2
     3   119   120    1
     4   119   122    1
     5   150   149    1
     6   142   141    2
     7   120   121    2
     8   122   123    1
     9   141   140    1
    10   148   149    1
    11   149   152    1
    12   147   145   am
    13   116   115    1
    14   113   114    2
    15   113   112    1
    16   145   146    2
    17   145   144    1
    18   144   143    1
    19   163   162    2
    20   162   161    1
    21   152   153    1
    22   127   126    2
    23   112   115    1
    24   112   111    1
    25   140   143    1
    26   140   139    1
    27   115   117    1
    28   134   133    2
    29   124   125    1
    30   126   125    1
    31   139   133   am
    32   102   101   ar
    33   107   106    2
    34   161   164    1
    35   161   160    1
    36   133   132    1
    37   111   106   am
    38   164   165    1
    39   125   128    1
    40   106   105    1
    41   109   108    1
    42   167   166    1
    43   131   132    1
    44   132   135    1
    45   101   103   ar
    46   101   100    1
    47    33    35   ar
    48    33    31   ar
    49   166   165    1
    50   129   128    1
    51   108   105    1
    52   108   110    1
    53   128   130    1
    54   105   104    1
    55   100    99    1
    56    30    31   ar
    57    30    28   ar
    58    35    34   ar
    59    31    29   ar
    60   135   136    1
    61   104    97   am
    62    69    70    1
    63    73    70    1
    64    73    74    1
    65    70    71    1
    66   136   137    1
    67    28    27   ar
    68    97    98    2
    69    97    96    1
    70    99    96    1
    71    76    74   ar
    72    76    78   ar
    73    34    32   ar
    74    29    27   ar
    75    29    32   ar
    76    74    75   ar
    77    96    95    1
    78    71    72    2
    79    27    26    1
    80   174   172    1
    81    78    79   ar
    82   137   138    1
    83    75    77   ar
    84   154   155    1
    85   168   169    1
    86   175   173    1
    87    95    89   am
    88    25    24    2
    89    26    23    1
    90    79    77   ar
    91    79    80    1
    92   155   156    1
    93   155   158    1
    94   172   173    1
    95   172   169    1
    96   157   156    2
    97    24    23    1
    98    43    41    1
    99   169   170    1
   100    90    89    2
   101    23    22    1
   102    89    88    1
   103    41    40    1
   104    36    37    1
   105   159   158    1
   106    93    91    1
   107   170   171    2
   108   170   176   am
   109    81    82    1
   110    40    37    1
   111    40    42    1
   112    37    38    1
   113    88    91    1
   114    88    87    1
   115     8     7    1
   116     6     7    1
   117     6     5    1
   118    91    92    1
   119   176   177    1
   120    82    85    1
   121    82    83    1
   122    38    39    2
   123     5     2    1
   124    85    86    1
   125     2     1    1
   126     2     3    1
   127    92    94    1
   128    83    84    2
   129   177   180    1
   130   177   178    1
   131   179   178    2
   132   180   181    1
   133     3     4    2
   134    64    63    2
   135    18    17    2
   136    17    16    1
   137    67    66   ar
   138    19    20    1
   139    19    16    1
   140    63    62    1
   141   181   183   ar
   142   181   182   ar
   143    14    13    1
   144    65    66    1
   145    65    62    1
   146    20    21    1
   147    16    15    1
   148     9    10    1
   149    66    68   ar
   150    62    61    1
   151    21    15    1
   152    44    45    1
   153    13    10    1
   154    10    11    1
   155    59    58    1
   156    48    45    1
   157    48    49    1
   158    50    49    1
   159    50    51    1
   160    45    46    1
   161    60    58    1
   162    52    51    1
   163    56    55    2
   164    58    57    1
   165    57    54    1
   166    12    11    2
   167    46    47    2
   168    55    54    1
   169    54    53    1
