@<TRIPOS>MOLECULE
tmp/5iteB02.pdb
 111 104 0 0 0
SMALL
GASTEIGER

@<TRIPOS>ATOM
      1  N        -27.5760   -7.9810   12.1470 N.3    38  GLU38      -0.1245
      2  CA       -26.5990   -8.6150   13.0180 C.3    38  GLU38       0.1567
      3  C        -25.9390   -7.5580   13.9280 C.2    38  GLU38       0.2260
      4  O        -25.7310   -7.7880   15.1520 O.2    38  GLU38      -0.2867
      5  CB       -25.5470   -9.3480   12.1830 C.3    38  GLU38       0.0388
      6  CG       -24.4100   -9.9590   12.9820 C.3    38  GLU38       0.1160
      7  CD       -23.4350  -10.7450   12.1120 C.2    38  GLU38       0.3649
      8  OE1      -23.4760  -10.5950   10.8640 O.co2  38  GLU38      -0.2457
      9  OE2      -22.6530  -11.5450   12.6810 O.co2  38  GLU38      -0.2457
     10  N        -16.6370  -10.3770   30.5580 N.3    85  LEU85      -0.1231
     11  CA       -16.1620  -11.5800   29.8570 C.3    85  LEU85       0.1693
     12  C        -16.8940  -11.8610   28.5690 C.2    85  LEU85       0.2592
     13  O        -16.3380  -12.4440   27.6280 O.2    85  LEU85      -0.2718
     14  CB       -16.2910  -12.8060   30.7700 C.3    85  LEU85       0.0284
     15  CG       -15.5530  -14.0750   30.3310 C.3    85  LEU85       0.0019
     16  CD1      -14.0690  -13.7980   30.0960 C.3    85  LEU85       0.0001
     17  CD2      -15.7390  -15.1790   31.3630 C.3    85  LEU85       0.0001
     18  N        -18.1510  -11.4650   28.5400 N.am   86  PHE86      -0.1976
     19  CA       -18.9560  -11.6840   27.3700 C.3    86  PHE86       0.1639
     20  C        -19.1310  -10.4160   26.5640 C.2    86  PHE86       0.2290
     21  O        -19.1260  -10.4670   25.3370 O.2    86  PHE86      -0.2864
     22  CB       -20.2930  -12.2780   27.7790 C.3    86  PHE86       0.0560
     23  CG       -20.1460  -13.6330   28.3810 C.ar   86  PHE86      -0.0200
     24  CD1      -19.7850  -14.7170   27.5930 C.ar   86  PHE86      -0.0042
     25  CD2      -20.2930  -13.8140   29.7470 C.ar   86  PHE86      -0.0042
     26  CE1      -19.6020  -15.9600   28.1520 C.ar   86  PHE86      -0.0003
     27  CE2      -20.1220  -15.0550   30.3090 C.ar   86  PHE86      -0.0003
     28  CZ       -19.7760  -16.1320   29.5070 C.ar   86  PHE86      -0.0000
     29  N        -15.7510   -9.2670   24.3440 N.3    89  PRO89      -0.2102
     30  CA       -15.7100   -9.9290   23.0220 C.3    89  PRO89       0.1504
     31  C        -16.8110   -9.5050   22.0420 C.2    89  PRO89       0.2575
     32  O        -16.5040   -9.2950   20.8660 O.2    89  PRO89      -0.2718
     33  CB       -15.8440  -11.4140   23.3460 C.3    89  PRO89       0.0282
     34  CG       -15.5940  -11.5480   24.7820 C.3    89  PRO89       0.0208
     35  CD       -15.7750  -10.2310   25.4580 C.3    89  PRO89       0.0893
     36  N        -18.0490   -9.3430   22.5030 N.am   90  LEU90      -0.1980
     37  CA       -19.1050   -8.8830   21.6080 C.3    90  LEU90       0.1596
     38  C        -18.7880   -7.5110   21.0220 C.2    90  LEU90       0.2287
     39  O        -18.8850   -7.3300   19.8060 O.2    90  LEU90      -0.2864
     40  CB       -20.4530   -8.8520   22.3350 C.3    90  LEU90       0.0297
     41  CG       -21.0360  -10.2350   22.6340 C.3    90  LEU90       0.0022
     42  CD1      -22.1750  -10.1170   23.6180 C.3    90  LEU90       0.0001
     43  CD2      -21.5240  -10.8590   21.3260 C.3    90  LEU90       0.0001
     44  N        -16.3510   -8.1750   18.4580 N.3    93  LEU93      -0.1245
     45  CA       -17.0280   -8.7560   17.3160 C.3    93  LEU93       0.1561
     46  C        -17.6640   -7.6240   16.5120 C.2    93  LEU93       0.2260
     47  O        -17.4290   -7.4990   15.2940 O.2    93  LEU93      -0.2867
     48  CB       -18.0630   -9.8010   17.7620 C.3    93  LEU93       0.0270
     49  CG       -18.9940  -10.4230   16.7260 C.3    93  LEU93       0.0019
     50  CD1      -18.1690  -11.0960   15.6240 C.3    93  LEU93       0.0001
     51  CD2      -19.9310  -11.4340   17.3780 C.3    93  LEU93       0.0001
     52  N        -16.6620   -7.0030   12.6780 N.3    97  LEU97      -0.1245
     53  CA       -17.5860   -7.1780   11.5710 C.3    97  LEU97       0.1561
     54  C        -17.6490   -5.8610   10.8070 C.2    97  LEU97       0.2260
     55  O        -17.7370   -5.8640    9.5810 O.2    97  LEU97      -0.2867
     56  CB       -18.9760   -7.6100   12.0470 C.3    97  LEU97       0.0270
     57  CG       -19.0340   -8.9780   12.7420 C.3    97  LEU97       0.0019
     58  CD1      -20.3400   -9.1200   13.4900 C.3    97  LEU97       0.0001
     59  CD2      -18.8230  -10.1500   11.7840 C.3    97  LEU97       0.0001
     60  N        -14.5280   -5.6430    8.6040 N.3   100  GLY100     -0.1210
     61  CA       -14.3830   -6.6790    7.6030 C.3   100  GLY100      0.1956
     62  C        -13.1650   -7.5210    7.9080 C.2   100  GLY100      0.2612
     63  O        -12.5160   -8.0500    7.0110 O.2   100  GLY100     -0.2717
     64  N        -12.8670   -7.6570    9.1920 N.am  101  ALA101     -0.1965
     65  CA       -11.7860   -8.5120    9.6450 C.3   101  ALA101      0.1728
     66  C        -12.1970   -9.9640    9.4420 C.2   101  ALA101      0.2617
     67  O        -13.3920  -10.2760    9.4190 O.2   101  ALA101     -0.2715
     68  CB       -11.4640   -8.2420   11.1050 C.3   101  ALA101      0.0334
     69  N        -11.2160  -10.8430    9.2520 N.am  102  SER102     -0.1936
     70  CA       -11.5080  -12.2640    9.0820 C.3   102  SER102      0.2055
     71  C        -11.9450  -12.9150   10.3940 C.2   102  SER102      0.2642
     72  O        -11.7450  -12.3610   11.4770 O.2   102  SER102     -0.2714
     73  CB       -10.2920  -13.0060    8.5260 C.3   102  SER102      0.2130
     74  OG        -9.2300  -13.0110    9.4600 O.3   102  SER102     -0.2179
     75  N        -12.5610  -14.0860   10.2800 N.am  103  GLN103     -0.1976
     76  CA       -12.8980  -14.8940   11.4380 C.3   103  GLN103      0.1601
     77  C        -11.6830  -15.1900   12.3270 C.2   103  GLN103      0.2287
     78  O        -11.7660  -15.0850   13.5550 O.2   103  GLN103     -0.2864
     79  CB       -13.5650  -16.1930   10.9880 C.3   103  GLN103      0.0394
     80  CG       -14.0470  -17.0610   12.1360 C.3   103  GLN103      0.0908
     81  CD       -15.2570  -17.9020   11.7650 C.2   103  GLN103      0.2608
     82  OE1      -16.2070  -17.4040   11.1570 O.2   103  GLN103     -0.2717
     83  NE2      -15.2340  -19.1820   12.1420 N.am  103  GLN103     -0.0878
     84  N        -10.4930  -11.9400   14.3600 N.3   106  ILE106     -0.1231
     85  CA       -11.4660  -11.6350   15.3850 C.3   106  ILE106      0.1692
     86  C        -11.2800  -12.6490   16.5110 C.2   106  ILE106      0.2592
     87  O        -11.3080  -12.2790   17.6810 O.2   106  ILE106     -0.2718
     88  CB       -12.8950  -11.6840   14.8310 C.3   106  ILE106      0.0266
     89  CG1      -13.0650  -10.6010   13.7640 C.3   106  ILE106      0.0019
     90  CG2      -13.9170  -11.5110   15.9510 C.3   106  ILE106      0.0020
     91  CD1      -14.4190  -10.6090   13.0780 C.3   106  ILE106      0.0001
     92  N        -11.0880  -13.9200   16.1570 N.am  107  GLY107     -0.1957
     93  CA       -10.9800  -14.9670   17.1560 C.3   107  GLY107      0.1869
     94  C         -9.7320  -14.7130   17.9910 C.2   107  GLY107      0.2309
     95  O         -9.6810  -14.9380   19.2040 O.2   107  GLY107     -0.2863
     96  N        -10.4480  -11.9310   20.4140 N.3   110  VAL110     -0.1231
     97  CA       -11.3400  -12.4090   21.4600 C.3   110  VAL110      0.1692
     98  C        -10.5250  -13.2330   22.4670 C.2   110  VAL110      0.2592
     99  O        -10.7160  -13.1190   23.6640 O.2   110  VAL110     -0.2718
    100  CB       -12.5160  -13.2280   20.8860 C.3   110  VAL110      0.0266
    101  CG1      -13.2240  -14.0140   21.9950 C.3   110  VAL110      0.0020
    102  CG2      -13.5090  -12.3000   20.2010 C.3   110  VAL110      0.0020
    103  N         -9.6800  -14.1210   21.9640 N.am  111  GLY111     -0.1957
    104  CA        -8.7360  -14.8730   22.7720 C.3   111  GLY111      0.1869
    105  C         -7.9670  -13.9970   23.7420 C.2   111  GLY111      0.2309
    106  O         -7.9100  -14.2550   24.9730 O.2   111  GLY111     -0.2863
    107  N        -10.1300  -12.3860   26.3470 N.3   114  ALA114     -0.1245
    108  CA       -10.5570  -13.3160   27.3700 C.3   114  ALA114      0.1562
    109  C         -9.4360  -13.4220   28.3900 C.2   114  ALA114      0.2260
    110  O         -9.6760  -13.3400   29.6020 O.2   114  ALA114     -0.2867
    111  CB       -10.8830  -14.6740   26.7600 C.3   114  ALA114      0.0290
@<TRIPOS>BOND
     1    63    62    2
     2    61    62    1
     3    61    60    1
     4    62    64   am
     5    73    70    1
     6    73    74    1
     7    70    69    1
     8    70    71    1
     9    64    65    1
    10    69    66   am
    11    67    66    2
    12    66    65    1
    13    55    54    2
    14    65    68    1
    15    75    71   am
    16    75    76    1
    17    71    72    2
    18    54    53    1
    19     8     7   ar
    20    79    76    1
    21    79    80    1
    22    82    81    2
    23    76    77    1
    24    53    56    1
    25    53    52    1
    26    81    80    1
    27    81    83   am
    28    59    57    1
    29    56    57    1
    30     7     9   ar
    31     7     6    1
    32     1     2    1
    33     5     6    1
    34     5     2    1
    35    77    78    2
    36    57    58    1
    37     2     3    1
    38    91    89    1
    39    89    88    1
    40     3     4    2
    41    84    85    1
    42    88    85    1
    43    88    90    1
    44    47    46    2
    45    85    86    1
    46    50    49    1
    47    92    86   am
    48    92    93    1
    49    86    87    2
    50    46    45    1
    51    49    51    1
    52    49    48    1
    53    93    94    1
    54    45    48    1
    55    45    44    1
    56    94    95    2
    57    39    38    2
    58   102   100    1
    59    96    97    1
    60    32    31    2
    61   100    97    1
    62   100   101    1
    63    38    37    1
    64    43    41    1
    65    97    98    1
    66    37    40    1
    67    37    36    1
    68   103    98   am
    69   103   104    1
    70    31    36   am
    71    31    30    1
    72    40    41    1
    73    98    99    2
    74    41    42    1
    75   104   105    1
    76    30    33    1
    77    30    29    1
    78    33    34    1
    79   105   106    2
    80    29    35    1
    81    34    35    1
    82    21    20    2
    83   107   108    1
    84    20    19    1
    85   111   108    1
    86   108   109    1
    87    19    22    1
    88    19    18    1
    89    24    26   ar
    90    24    23   ar
    91    13    12    2
    92    22    23    1
    93    26    28   ar
    94    23    25   ar
    95   109   110    2
    96    18    12   am
    97    12    11    1
    98    28    27   ar
    99    25    27   ar
   100    11    10    1
   101    11    14    1
   102    16    15    1
   103    15    14    1
   104    15    17    1
