@<TRIPOS>MOLECULE
tmp/5iteB01.pdb
 79 74 0 0 0
SMALL
GASTEIGER

@<TRIPOS>ATOM
      1  N        -10.5520  -15.5110   11.6970 N.3   104  ARG104     -0.1245
      2  CA        -9.2810  -15.7350   12.4000 C.3   104  ARG104      0.1563
      3  C         -8.8060  -14.5890   13.3010 C.2   104  ARG104      0.2260
      4  O         -8.4730  -14.7940   14.4700 O.2   104  ARG104     -0.2867
      5  CB        -8.1630  -16.0200   11.3850 C.3   104  ARG104      0.0307
      6  CG        -8.2030  -17.3810   10.7030 C.3   104  ARG104      0.0489
      7  CD        -6.9920  -17.5300    9.7790 C.3   104  ARG104      0.2205
      8  NE        -6.8720  -18.8610    9.1880 N.pl3 104  ARG104     -0.0865
      9  CZ        -7.1380  -19.1380    7.9140 C.cat 104  ARG104      0.5346
     10  NH1       -7.0000  -20.3760    7.4570 N.pl3 104  ARG104      0.1354
     11  NH2       -7.5360  -18.1760    7.0930 N.pl3 104  ARG104      0.1354
     12  N        -11.0880  -13.9200   16.1570 N.3   107  GLY107     -0.1210
     13  CA       -10.9800  -14.9670   17.1560 C.3   107  GLY107      0.1956
     14  C         -9.7320  -14.7130   17.9910 C.2   107  GLY107      0.2611
     15  O         -9.6810  -14.9380   19.2040 O.2   107  GLY107     -0.2717
     16  N         -8.7130  -14.2050   17.3090 N.am  108  ALA108     -0.1979
     17  CA        -7.4310  -13.9430   17.9380 C.3   108  ALA108      0.1597
     18  C         -7.6110  -12.8730   19.0310 C.2   108  ALA108      0.2287
     19  O         -7.1870  -13.0300   20.2040 O.2   108  ALA108     -0.2864
     20  CB        -6.4070  -13.4950   16.8720 C.3   108  ALA108      0.0319
     21  N        -10.4480  -11.9310   20.4140 N.3   110  VAL110     -0.1231
     22  CA       -11.3400  -12.4090   21.4600 C.3   110  VAL110      0.1692
     23  C        -10.5250  -13.2330   22.4670 C.2   110  VAL110      0.2592
     24  O        -10.7160  -13.1190   23.6640 O.2   110  VAL110     -0.2718
     25  CB       -12.5160  -13.2280   20.8860 C.3   110  VAL110      0.0266
     26  CG1      -13.2240  -14.0140   21.9950 C.3   110  VAL110      0.0020
     27  CG2      -13.5090  -12.3000   20.2010 C.3   110  VAL110      0.0020
     28  N         -9.6800  -14.1210   21.9640 N.am  111  GLY111     -0.1957
     29  CA        -8.7360  -14.8730   22.7720 C.3   111  GLY111      0.1869
     30  C         -7.9670  -13.9970   23.7420 C.2   111  GLY111      0.2309
     31  O         -7.9100  -14.2550   24.9730 O.2   111  GLY111     -0.2863
     32  N        -10.1300  -12.3860   26.3470 N.3   114  ALA114     -0.1231
     33  CA       -10.5570  -13.3160   27.3700 C.3   114  ALA114      0.1694
     34  C         -9.4360  -13.4220   28.3900 C.2   114  ALA114      0.2592
     35  O         -9.6760  -13.3400   29.6020 O.2   114  ALA114     -0.2718
     36  CB       -10.8830  -14.6740   26.7600 C.3   114  ALA114      0.0304
     37  N         -8.2120  -13.6000   27.8810 N.am  115  PHE115     -0.1976
     38  CA        -7.0260  -13.6540   28.7410 C.3   115  PHE115      0.1639
     39  C         -6.9690  -12.4240   29.6680 C.2   115  PHE115      0.2290
     40  O         -6.7910  -12.5470   30.8990 O.2   115  PHE115     -0.2864
     41  CB        -5.7480  -13.7420   27.9110 C.3   115  PHE115      0.0560
     42  CG        -4.4980  -13.9130   28.7340 C.ar  115  PHE115     -0.0200
     43  CD1       -4.1040  -15.1630   29.1510 C.ar  115  PHE115     -0.0042
     44  CD2       -3.7310  -12.8170   29.1070 C.ar  115  PHE115     -0.0042
     45  CE1       -2.9400  -15.3360   29.9240 C.ar  115  PHE115     -0.0003
     46  CE2       -2.5660  -12.9780   29.8820 C.ar  115  PHE115     -0.0003
     47  CZ        -2.1780  -14.2350   30.2890 C.ar  115  PHE115     -0.0000
     48  N        -10.0510  -12.5370   32.3620 N.3   118  VAL118     -0.1231
     49  CA        -9.8020  -13.5690   33.3740 C.3   118  VAL118      0.1692
     50  C         -8.6130  -13.2350   34.3080 C.2   118  VAL118      0.2592
     51  O         -8.7270  -13.3880   35.5330 O.2   118  VAL118     -0.2718
     52  CB        -9.5760  -14.9370   32.7120 C.3   118  VAL118      0.0266
     53  CG1       -9.2040  -15.9760   33.7820 C.3   118  VAL118      0.0020
     54  CG2      -10.8630  -15.3710   32.0200 C.3   118  VAL118      0.0020
     55  N         -7.4960  -12.7570   33.7540 N.am  119  THR119     -0.1953
     56  CA        -6.3490  -12.4470   34.6090 C.3   119  THR119      0.1897
     57  C         -6.7040  -11.2370   35.4740 C.2   119  THR119      0.2313
     58  O         -6.2740  -11.1450   36.6310 O.2   119  THR119     -0.2863
     59  CB        -5.0290  -12.1980   33.8410 C.3   119  THR119      0.1794
     60  OG1       -5.2470  -11.2570   32.7890 O.3   119  THR119     -0.2208
     61  CG2       -4.4830  -13.5080   33.2510 C.3   119  THR119      0.0378
     62  N         -8.5670  -12.6760   38.3720 N.3   122  VAL122     -0.1245
     63  CA        -7.6380  -13.2640   39.3330 C.3   122  VAL122      0.1561
     64  C         -7.0090  -12.1480   40.1770 C.2   122  VAL122      0.2260
     65  O         -6.9240  -12.2610   41.3960 O.2   122  VAL122     -0.2867
     66  CB        -6.5430  -14.1150   38.6470 C.3   122  VAL122      0.0252
     67  CG1       -5.5130  -14.5810   39.6590 C.3   122  VAL122      0.0019
     68  CG2       -7.1710  -15.3060   37.8970 C.3   122  VAL122      0.0019
     69  N         -0.8570   -9.9030   38.6110 N.3   135  PHE135     -0.1241
     70  CA        -1.9200  -10.2140   37.6810 C.3   135  PHE135      0.1605
     71  C         -2.4520   -8.9490   37.0270 C.2   135  PHE135      0.2264
     72  O         -2.8190   -8.9860   35.8560 O.2   135  PHE135     -0.2867
     73  CB        -2.9880  -11.0840   38.3210 C.3   135  PHE135      0.0534
     74  CG        -2.6160  -12.5300   38.2910 C.ar  135  PHE135     -0.0203
     75  CD1       -2.9230  -13.2870   37.1760 C.ar  135  PHE135     -0.0042
     76  CD2       -1.8670  -13.1060   39.3130 C.ar  135  PHE135     -0.0042
     77  CE1       -2.5530  -14.6150   37.1030 C.ar  135  PHE135     -0.0003
     78  CE2       -1.4960  -14.4260   39.2510 C.ar  135  PHE135     -0.0003
     79  CZ        -1.8350  -15.1870   38.1540 C.ar  135  PHE135     -0.0000
@<TRIPOS>BOND
     1    11     9    1
     2    10     9    1
     3     9     8    2
     4     8     7    1
     5     7     6    1
     6     6     5    1
     7     5     2    1
     8     1     2    1
     9     2     3    1
    10     3     4    2
    11    12    13    1
    12    20    17    1
    13    13    14    1
    14    16    17    1
    15    16    14   am
    16    17    18    1
    17    14    15    2
    18    18    19    2
    19    27    25    1
    20    21    22    1
    21    25    22    1
    22    25    26    1
    23    22    23    1
    24    28    23   am
    25    28    29    1
    26    23    24    2
    27    29    30    1
    28    30    31    2
    29    32    33    1
    30    36    33    1
    31    33    34    1
    32    37    34   am
    33    37    38    1
    34    41    42    1
    35    41    38    1
    36    34    35    2
    37    42    44   ar
    38    42    43   ar
    39    38    39    1
    40    44    46   ar
    41    43    45   ar
    42    39    40    2
    43    46    47   ar
    44    45    47   ar
    45    54    52    1
    46    48    49    1
    47    52    49    1
    48    52    53    1
    49    60    59    1
    50    61    59    1
    51    49    50    1
    52    55    50   am
    53    55    56    1
    54    59    56    1
    55    50    51    2
    56    56    57    1
    57    57    58    2
    58    72    71    2
    59    71    70    1
    60    77    75   ar
    61    77    79   ar
    62    75    74   ar
    63    70    73    1
    64    70    69    1
    65    68    66    1
    66    79    78   ar
    67    74    73    1
    68    74    76   ar
    69    62    63    1
    70    66    63    1
    71    66    67    1
    72    78    76   ar
    73    63    64    1
    74    64    65    2
