@<TRIPOS>MOLECULE
tmp/5ithA00.pdb
 151 146 0 0 0
SMALL
GASTEIGER

@<TRIPOS>ATOM
      1  N         -8.3740  -16.6860   -8.3750 N.3     5  HIS5       -0.1241
      2  CA        -7.4920  -16.1840   -7.3290 C.3     5  HIS5        0.1621
      3  C         -8.0920  -16.2200   -5.9260 C.2     5  HIS5        0.2264
      4  O         -9.2750  -15.9380   -5.7270 O.2     5  HIS5       -0.2867
      5  CB        -7.0670  -14.7590   -7.6740 C.3     5  HIS5        0.0745
      6  CG        -6.5680  -14.6090   -9.0770 C.ar    5  HIS5        0.0817
      7  ND1       -5.2480  -14.8070   -9.4210 N.ar    5  HIS5       -0.2268
      8  CD2       -7.2140  -14.2970  -10.2250 C.ar    5  HIS5        0.1154
      9  CE1       -5.1020  -14.6160  -10.7220 C.ar    5  HIS5        0.1986
     10  NE2       -6.2790  -14.3040  -11.2310 N.ar    5  HIS5       -0.2212
     11  N         -7.5250  -15.0340   -1.8140 N.3     7  PHE7       -0.1241
     12  CA        -6.9390  -14.1920   -0.7780 C.3     7  PHE7        0.1605
     13  C         -6.7410  -14.9670    0.5180 C.2     7  PHE7        0.2264
     14  O         -7.6820  -15.5740    1.0420 O.2     7  PHE7       -0.2867
     15  CB        -7.8270  -12.9700   -0.5190 C.3     7  PHE7        0.0534
     16  CG        -7.4970  -12.2290    0.7510 C.ar    7  PHE7       -0.0203
     17  CD1       -8.1420  -12.5370    1.9420 C.ar    7  PHE7       -0.0042
     18  CD2       -6.5510  -11.2180    0.7530 C.ar    7  PHE7       -0.0042
     19  CE1       -7.8400  -11.8590    3.1090 C.ar    7  PHE7       -0.0003
     20  CE2       -6.2500  -10.5340    1.9180 C.ar    7  PHE7       -0.0003
     21  CZ        -6.8970  -10.8550    3.0970 C.ar    7  PHE7       -0.0000
     22  N         -4.2580  -13.0610    7.5690 N.3    10  ASP10      -0.1239
     23  CA        -3.7850  -13.4380    8.9000 C.3    10  ASP10       0.1674
     24  C         -2.5880  -14.3880    8.8440 C.2    10  ASP10       0.2266
     25  O         -2.5380  -15.3800    9.5720 O.2    10  ASP10      -0.2867
     26  CB        -4.9150  -14.0670    9.7270 C.3    10  ASP10       0.1410
     27  CG        -6.0270  -13.0790   10.0550 C.2    10  ASP10       0.3668
     28  OD1       -5.8160  -11.8600    9.8860 O.co2  10  ASP10      -0.2456
     29  OD2       -7.1090  -13.5210   10.5050 O.co2  10  ASP10      -0.2456
     30  N          0.2070  -19.4930   -9.5880 N.3    32  ASP32      -0.1225
     31  CA         1.0510  -18.4940   -8.9480 C.3    32  ASP32       0.1805
     32  C          0.6950  -18.3930   -7.4700 C.2    32  ASP32       0.2598
     33  O         -0.4010  -18.7590   -7.0670 O.2    32  ASP32      -0.2718
     34  CB         0.8910  -17.1320   -9.6300 C.3    32  ASP32       0.1424
     35  CG         1.8910  -16.1070   -9.1300 C.2    32  ASP32       0.3668
     36  OD1        3.0420  -16.4930   -8.8310 O.co2  32  ASP32      -0.2456
     37  OD2        1.5180  -14.9180   -9.0210 O.co2  32  ASP32      -0.2456
     38  N          1.6250  -17.9050   -6.6620 N.am   33  ALA33      -0.1966
     39  CA         1.3650  -17.6940   -5.2460 C.3    33  ALA33       0.1728
     40  C          2.4030  -16.7410   -4.6930 C.2    33  ALA33       0.2616
     41  O          3.5830  -16.8420   -5.0300 O.2    33  ALA33      -0.2715
     42  CB         1.3840  -19.0110   -4.4850 C.3    33  ALA33       0.0334
     43  N          1.9690  -15.8050   -3.8600 N.am   34  ARG34      -0.1977
     44  CA         2.9160  -14.8770   -3.2630 C.3    34  ARG34       0.1597
     45  C          2.4140  -14.3330   -1.9390 C.2    34  ARG34       0.2287
     46  O          1.2160  -14.1700   -1.7340 O.2    34  ARG34      -0.2864
     47  CB         3.2160  -13.7190   -4.2220 C.3    34  ARG34       0.0334
     48  CG         2.1630  -12.6150   -4.2590 C.3    34  ARG34       0.0492
     49  CD         2.4460  -11.6500   -5.4030 C.3    34  ARG34       0.2205
     50  NE         1.6840  -10.4070   -5.3160 N.pl3  34  ARG34      -0.0865
     51  CZ         2.1340   -9.2950   -4.7410 C.cat  34  ARG34       0.5346
     52  NH1        3.3440   -9.2700   -4.1960 N.pl3  34  ARG34       0.1354
     53  NH2        1.3740   -8.2060   -4.7080 N.pl3  34  ARG34       0.1354
     54  N          2.4580  -10.9790    0.1730 N.3    36  VAL36      -0.1245
     55  CA         2.6760   -9.5670   -0.1110 C.3    36  VAL36       0.1561
     56  C          3.5880   -8.9290    0.9310 C.2    36  VAL36       0.2260
     57  O          3.3400   -9.0220    2.1320 O.2    36  VAL36      -0.2867
     58  CB         1.3490   -8.7950   -0.1700 C.3    36  VAL36       0.0252
     59  CG1        1.6060   -7.3250   -0.4580 C.3    36  VAL36       0.0019
     60  CG2        0.4320   -9.4010   -1.2270 C.3    36  VAL36       0.0019
     61  N          3.0860   -8.2990    4.8460 N.3    45  LYS45      -0.1231
     62  CA         1.9740   -7.4100    5.1340 C.3    45  LYS45       0.1693
     63  C          0.9090   -8.1410    5.9480 C.2    45  LYS45       0.2593
     64  O         -0.0440   -7.5310    6.4360 O.2    45  LYS45      -0.2718
     65  CB         1.3790   -6.8680    3.8300 C.3    45  LYS45       0.0285
     66  CG         2.3390   -6.0250    2.9910 C.3    45  LYS45       0.0035
     67  CD         2.2090   -4.5390    3.3040 C.3    45  LYS45       0.0206
     68  CE         3.1420   -4.1220    4.4320 C.3    45  LYS45       0.1093
     69  NZ         2.9820   -2.6950    4.8300 N.3    45  LYS45      -0.1314
     70  N          1.0840   -9.4520    6.0920 N.am   46  GLY46      -0.1942
     71  CA         0.1570  -10.2720    6.8490 C.3    46  GLY46       0.2014
     72  C         -0.8620  -10.9750    5.9720 C.2    46  GLY46       0.2638
     73  O         -1.8420  -11.5310    6.4740 O.2    46  GLY46      -0.2714
     74  N         -0.6370  -10.9470    4.6600 N.am   47  TYR47      -0.1973
     75  CA        -1.5370  -11.6120    3.7230 C.3    47  TYR47       0.1639
     76  C         -0.8500  -11.9770    2.4090 C.2    47  TYR47       0.2290
     77  O          0.2710  -11.5460    2.1350 O.2    47  TYR47      -0.2864
     78  CB        -2.7690  -10.7390    3.4430 C.3    47  TYR47       0.0560
     79  CG        -2.4940   -9.4520    2.6910 C.ar   47  TYR47      -0.0198
     80  CD1       -2.0710   -8.3090    3.3580 C.ar   47  TYR47      -0.0009
     81  CD2       -2.6800   -9.3750    1.3160 C.ar   47  TYR47      -0.0009
     82  CE1       -1.8300   -7.1300    2.6760 C.ar   47  TYR47       0.0417
     83  CE2       -2.4390   -8.2000    0.6240 C.ar   47  TYR47       0.0417
     84  CZ        -2.0130   -7.0820    1.3090 C.ar   47  TYR47       0.1957
     85  OH        -1.7710   -5.9110    0.6280 O.3    47  TYR47      -0.2866
     86  N         -1.6470  -14.1980   -1.7820 N.3    49  PHE49      -0.1241
     87  CA        -2.5560  -14.6970   -2.8070 C.3    49  PHE49       0.1605
     88  C         -2.1040  -16.0420   -3.3680 C.2    49  PHE49       0.2264
     89  O         -0.9020  -16.3020   -3.4920 O.2    49  PHE49      -0.2867
     90  CB        -2.6760  -13.6920   -3.9500 C.3    49  PHE49       0.0534
     91  CG        -3.2640  -12.3750   -3.5440 C.ar   49  PHE49      -0.0203
     92  CD1       -4.6360  -12.2160   -3.4450 C.ar   49  PHE49      -0.0042
     93  CD2       -2.4460  -11.2890   -3.2790 C.ar   49  PHE49      -0.0042
     94  CE1       -5.1830  -11.0020   -3.0790 C.ar   49  PHE49      -0.0003
     95  CE2       -2.9860  -10.0720   -2.9120 C.ar   49  PHE49      -0.0003
     96  CZ        -4.3550   -9.9280   -2.8120 C.ar   49  PHE49      -0.0000
     97  N         -3.2080  -18.6090   -6.7310 N.3    51  SER51      -0.1217
     98  CA        -4.0080  -18.6920   -7.9480 C.3    51  SER51       0.1889
     99  C         -4.0370  -20.1040   -8.5280 C.2    51  SER51       0.2288
    100  O         -3.0090  -20.7790   -8.6130 O.2    51  SER51      -0.2866
    101  CB        -3.4780  -17.7100   -8.9940 C.3    51  SER51       0.2089
    102  OG        -3.5520  -16.3780   -8.5150 O.3    51  SER51      -0.2183
    103  N         -0.3770  -19.3110   13.5950 N.3    73  ARG73      -0.1245
    104  CA        -1.5290  -18.4180   13.5140 C.3    73  ARG73       0.1563
    105  C         -2.6190  -18.9210   12.5680 C.2    73  ARG73       0.2260
    106  O         -2.3390  -19.5570   11.5510 O.2    73  ARG73      -0.2867
    107  CB        -1.0740  -17.0210   13.0860 C.3    73  ARG73       0.0307
    108  CG        -0.4440  -16.2130   14.2130 C.3    73  ARG73       0.0489
    109  CD         0.3100  -15.0030   13.6850 C.3    73  ARG73       0.2205
    110  NE        -0.4820  -14.2290   12.7320 N.pl3  73  ARG73      -0.0865
    111  CZ        -0.5610  -12.9010   12.7320 C.cat  73  ARG73       0.5346
    112  NH1        0.0940  -12.1950   13.6460 N.pl3  73  ARG73       0.1354
    113  NH2       -1.3050  -12.2790   11.8270 N.pl3  73  ARG73       0.1354
    114  N         -7.2750  -16.7210    7.4170 N.3    76  ARG76      -0.1245
    115  CA        -8.6240  -16.6270    6.8780 C.3    76  ARG76       0.1563
    116  C         -8.5140  -16.6590    5.3650 C.2    76  ARG76       0.2260
    117  O         -7.4830  -16.2850    4.8170 O.2    76  ARG76      -0.2867
    118  CB        -9.3230  -15.3540    7.3550 C.3    76  ARG76       0.0307
    119  CG        -8.6690  -14.0800    6.8630 C.3    76  ARG76       0.0489
    120  CD        -8.9260  -12.9140    7.8040 C.3    76  ARG76       0.2205
    121  NE        -8.3970  -11.6750    7.2450 N.pl3  76  ARG76      -0.0865
    122  CZ        -9.1360  -10.7700    6.6130 C.cat  76  ARG76       0.5346
    123  NH1      -10.4430  -10.9560    6.4800 N.pl3  76  ARG76       0.1354
    124  NH2       -8.5700   -9.6770    6.1240 N.pl3  76  ARG76       0.1354
    125  N        -10.5770  -16.0110    1.3940 N.3    78  ASN78      -0.1225
    126  CA       -11.6960  -15.4080    0.6830 C.3    78  ASN78       0.1785
    127  C        -11.3620  -15.2780   -0.7990 C.2    78  ASN78       0.2597
    128  O        -10.2390  -15.5520   -1.2000 O.2    78  ASN78      -0.2718
    129  CB       -12.0360  -14.0480    1.2930 C.3    78  ASN78       0.1169
    130  CG       -13.4910  -13.6750    1.1110 C.2    78  ASN78       0.2627
    131  OD1      -14.2640  -14.4170    0.5030 O.2    78  ASN78      -0.2716
    132  ND2      -13.8840  -12.5380    1.6770 N.am   78  ASN78      -0.0877
    133  N        -12.3280  -14.8880   -1.6210 N.am   79  TRP79      -0.1962
    134  CA       -12.0360  -14.6730   -3.0320 C.3    79  TRP79       0.1771
    135  C        -11.1520  -13.4450   -3.1840 C.2    79  TRP79       0.2619
    136  O        -11.2490  -12.5010   -2.4000 O.2    79  TRP79      -0.2715
    137  CB       -13.3210  -14.5160   -3.8490 C.3    79  TRP79       0.0590
    138  CG       -14.0490  -15.8070   -4.0790 C.ar   79  TRP79       0.0006
    139  CD1      -15.1930  -16.2230   -3.4630 C.ar   79  TRP79       0.0946
    140  CD2      -13.6830  -16.8530   -4.9910 C.ar   79  TRP79       0.0152
    141  NE1      -15.5610  -17.4610   -3.9320 N.ar   79  TRP79      -0.2442
    142  CE2      -14.6480  -17.8700   -4.8720 C.ar   79  TRP79       0.0810
    143  CE3      -12.6260  -17.0280   -5.8920 C.ar   79  TRP79       0.0012
    144  CZ2      -14.5950  -19.0460   -5.6210 C.ar   79  TRP79       0.0191
    145  CZ3      -12.5750  -18.1970   -6.6370 C.ar   79  TRP79       0.0001
    146  CH2      -13.5520  -19.1900   -6.4950 C.ar   79  TRP79       0.0015
    147  N        -10.2850  -13.4640   -4.1910 N.am   80  ALA80      -0.1977
    148  CA        -9.3750  -12.3520   -4.4300 C.3    80  ALA80       0.1597
    149  C         -9.8610  -11.4670   -5.5750 C.2    80  ALA80       0.2287
    150  O        -10.9930  -11.6030   -6.0390 O.2    80  ALA80      -0.2864
    151  CB        -7.9750  -12.8690   -4.7180 C.3    80  ALA80       0.0319
@<TRIPOS>BOND
     1    10     9   ar
     2    10     8   ar
     3     9     7   ar
     4     8     6   ar
     5    34    35    1
     6    34    31    1
     7    30    31    1
     8     7     6   ar
     9    35    37   ar
    10    35    36   ar
    11     6     5    1
    12   101   102    1
    13   101    98    1
    14    31    32    1
    15   100    99    2
    16    99    98    1
    17     1     2    1
    18    98    97    1
    19     5     2    1
    20    32    33    2
    21    32    38   am
    22     2     3    1
    23    38    39    1
    24   145   146   ar
    25   145   143   ar
    26   146   144   ar
    27   150   149    2
    28     3     4    2
    29   143   140   ar
    30   144   142   ar
    31   149   148    1
    32    49    50    1
    33    49    48    1
    34    50    51    2
    35    39    40    1
    36    39    42    1
    37    41    40    2
    38   140   142   ar
    39   140   138   ar
    40   142   141   ar
    41    51    53    1
    42    51    52    1
    43   151   148    1
    44    40    43   am
    45   148   147    1
    46    48    47    1
    47    47    44    1
    48   147   135   am
    49   138   137    1
    50   138   139   ar
    51    90    91    1
    52    90    87    1
    53   141   139   ar
    54    43    44    1
    55   137   134    1
    56    91    92   ar
    57    91    93   ar
    58    89    88    2
    59    92    94   ar
    60    88    87    1
    61    93    95   ar
    62    44    45    1
    63   135   134    1
    64   135   136    2
    65    94    96   ar
    66   134   133    1
    67    95    96   ar
    68    87    86    1
    69    45    46    2
    70    11    12    1
    71   133   127   am
    72    60    58    1
    73   128   127    2
    74   127   126    1
    75    12    15    1
    76    12    13    1
    77    15    16    1
    78    59    58    1
    79    58    55    1
    80    55    54    1
    81    55    56    1
    82   131   130    2
    83    13    14    2
    84    83    84   ar
    85    83    81   ar
    86    85    84    1
    87   126   129    1
    88   126   125    1
    89    16    18   ar
    90    16    17   ar
    91    18    20   ar
    92    56    57    2
    93   130   129    1
    94   130   132   am
    95    84    82   ar
    96    81    79   ar
    97    20    21   ar
    98    17    19   ar
    99    77    76    2
   100    76    75    1
   101    82    80   ar
   102    79    80   ar
   103    79    78    1
   104    66    67    1
   105    66    65    1
   106    21    19   ar
   107    67    68    1
   108    78    75    1
   109    75    74    1
   110    65    62    1
   111    68    69    1
   112    74    72   am
   113   117   116    2
   114    61    62    1
   115    62    63    1
   116   116   115    1
   117    63    70   am
   118    63    64    2
   119    72    73    2
   120    72    71    1
   121    70    71    1
   122   124   122    1
   123   123   122    1
   124   122   121    2
   125   119   118    1
   126   119   120    1
   127   115   118    1
   128   115   114    1
   129   121   120    1
   130    22    23    1
   131    24    23    1
   132    24    25    2
   133    23    26    1
   134    26    27    1
   135    28    27   ar
   136    27    29   ar
   137   106   105    2
   138   113   111    1
   139   105   104    1
   140   111   110    2
   141   111   112    1
   142   110   109    1
   143   107   104    1
   144   107   108    1
   145   104   103    1
   146   109   108    1
