@<TRIPOS>MOLECULE
tmp/5itoA00.pdb
 98 91 0 0 0
SMALL
GASTEIGER

@<TRIPOS>ATOM
      1  N         12.8090  -13.9510  -13.2660 N.3    55  ILE55      -0.1231
      2  CA        11.7370  -14.7010  -12.6050 C.3    55  ILE55       0.1678
      3  C         10.8830  -15.4910  -13.6230 C.2    55  ILE55       0.2434
      4  O         10.7970  -16.7130  -13.4640 O.2    55  ILE55      -0.2733
      5  CB        10.9250  -13.8490  -11.5850 C.3    55  ILE55       0.0265
      6  CG1       11.7940  -13.4830  -10.3760 C.3    55  ILE55       0.0019
      7  CG2        9.6130  -14.5670  -11.1600 C.3    55  ILE55       0.0020
      8  CD1       11.1940  -12.4840   -9.4230 C.3    55  ILE55       0.0001
      9  N         10.2790  -14.8650  -14.6760 N.am   56  PRO56      -0.2729
     10  CA         9.4990  -15.6550  -15.6510 C.3    56  PRO56       0.1401
     11  C         10.2940  -16.7400  -16.3850 C.2    56  PRO56       0.2269
     12  O          9.6980  -17.7420  -16.7590 O.2    56  PRO56      -0.2865
     13  CB         8.9660  -14.6040  -16.6220 C.3    56  PRO56       0.0296
     14  CG         9.0880  -13.3210  -15.9150 C.3    56  PRO56       0.0237
     15  CD        10.2440  -13.4270  -15.0240 C.3    56  PRO56       0.0939
     16  N         11.4560  -11.4200   -0.9960 N.3    73  GLN73      -0.1245
     17  CA        10.4900  -10.3280   -1.0050 C.3    73  GLN73       0.1566
     18  C          9.0660  -10.8780   -1.0880 C.2    73  GLN73       0.2260
     19  O          8.8580  -11.8170   -1.8560 O.2    73  GLN73      -0.2867
     20  CB        10.7750   -9.5170   -2.2670 C.3    73  GLN73       0.0367
     21  CG        11.3300   -8.1580   -2.0550 C.3    73  GLN73       0.0905
     22  CD        10.6310   -7.2720   -3.0490 C.2    73  GLN73       0.2608
     23  OE1       11.1050   -7.0950   -4.1710 O.2    73  GLN73      -0.2717
     24  NE2        9.4350   -6.7750   -2.6980 N.am   73  GLN73      -0.0878
     25  N          6.2820   -9.8980   -2.5800 N.3    75  ALA75      -0.1231
     26  CA         5.7570   -9.7770   -3.9220 C.3    75  ALA75       0.1694
     27  C          6.4080  -10.8850   -4.8160 C.2    75  ALA75       0.2591
     28  O          5.7140  -11.4870   -5.6410 O.2    75  ALA75      -0.2718
     29  CB         6.0440   -8.3860   -4.4520 C.3    75  ALA75       0.0304
     30  N          7.6930  -11.2240   -4.5660 N.am   76  ARG76      -0.1980
     31  CA         8.3610  -12.3240   -5.2810 C.3    76  ARG76       0.1597
     32  C          7.8340  -13.7070   -4.8430 C.2    76  ARG76       0.2287
     33  O          7.6230  -14.5840   -5.6910 O.2    76  ARG76      -0.2864
     34  CB         9.8670  -12.2310   -5.1200 C.3    76  ARG76       0.0334
     35  CG        10.4290  -11.0660   -5.8870 C.3    76  ARG76       0.0492
     36  CD        11.9200  -10.9850   -5.7140 C.3    76  ARG76       0.2205
     37  NE        12.3970   -9.7540   -6.3330 N.pl3  76  ARG76      -0.0865
     38  CZ        13.3920   -9.0150   -5.8770 C.cat  76  ARG76       0.5346
     39  NH1       13.7280   -7.8930   -6.4970 N.pl3  76  ARG76       0.1354
     40  NH2       14.0430   -9.3730   -4.7840 N.pl3  76  ARG76       0.1354
     41  N          5.0740  -15.4770   -6.6420 N.3    79  VAL79      -0.1245
     42  CA         5.3930  -16.0610   -7.9410 C.3    79  VAL79       0.1561
     43  C          6.3140  -17.2900   -7.8190 C.2    79  VAL79       0.2260
     44  O          6.0830  -18.2960   -8.4770 O.2    79  VAL79      -0.2867
     45  CB         5.9800  -14.9690   -8.8980 C.3    79  VAL79       0.0252
     46  CG1        6.1940  -15.5310  -10.2980 C.3    79  VAL79       0.0019
     47  CG2        5.0880  -13.7150   -8.9470 C.3    79  VAL79       0.0019
     48  N         12.8440   -3.2340  -11.1340 N.3   141  GLY141     -0.1210
     49  CA        12.4290   -4.5360  -10.6060 C.3   141  GLY141      0.1956
     50  C         13.0880   -4.9420   -9.3030 C.2   141  GLY141      0.2612
     51  O         13.1780   -6.1360   -8.9960 O.2   141  GLY141     -0.2717
     52  N         13.5310   -3.9510   -8.5080 N.am  142  THR142     -0.1952
     53  CA        14.1850   -4.2030   -7.2360 C.3   142  THR142      0.1897
     54  C         13.3000   -3.8000   -6.0690 C.2   142  THR142      0.2313
     55  O         12.2940   -3.1110   -6.2510 O.2   142  THR142     -0.2863
     56  CB        15.5720   -3.5080   -7.1770 C.3   142  THR142      0.1794
     57  OG1       15.3780   -2.1040   -7.3400 O.3   142  THR142     -0.2208
     58  CG2       16.5590   -4.0530   -8.2090 C.3   142  THR142      0.0378
     59  N         13.2070    0.0430   -5.9250 N.3   145  GLU145     -0.1231
     60  CA        12.2080    0.6990   -6.7530 C.3   145  GLU145      0.1699
     61  C         10.8700    0.6150   -6.0180 C.2   145  GLU145      0.2592
     62  O         10.1500    1.6120   -5.9690 O.2   145  GLU145     -0.2718
     63  CB        12.1250    0.0160   -8.1340 C.3   145  GLU145      0.0402
     64  CG        11.0820    0.6210   -9.0560 C.3   145  GLU145      0.1161
     65  CD        10.7030   -0.1540  -10.3000 C.2   145  GLU145      0.3649
     66  OE1       11.0220   -1.3600  -10.3840 O.co2 145  GLU145     -0.2457
     67  OE2       10.0610    0.4450  -11.1900 O.co2 145  GLU145     -0.2457
     68  N         10.5360   -0.5780   -5.4580 N.am  146  ALA146     -0.1980
     69  CA         9.2850   -0.7970   -4.7090 C.3   146  ALA146      0.1597
     70  C          9.2250    0.1460   -3.5030 C.2   146  ALA146      0.2287
     71  O          8.2080    0.8060   -3.3180 O.2   146  ALA146     -0.2864
     72  CB         9.1770   -2.2520   -4.2590 C.3   146  ALA146      0.0319
     73  N          8.7600    3.9270   -4.7630 N.3   149  LYS149     -0.1231
     74  CA         7.4320    4.1850   -5.3060 C.3   149  LYS149      0.1693
     75  C          6.3310    4.1180   -4.2620 C.2   149  LYS149      0.2591
     76  O          5.3700    4.8790   -4.3460 O.2   149  LYS149     -0.2718
     77  CB         7.1430    3.2940   -6.5350 C.3   149  LYS149      0.0285
     78  CG         7.9970    3.6970   -7.7380 C.3   149  LYS149      0.0035
     79  CD         7.6190    3.0070   -9.0270 C.3   149  LYS149      0.0206
     80  CE         8.5760    3.4050  -10.1210 C.3   149  LYS149      0.1093
     81  NZ         8.3590    2.6010  -11.3480 N.3   149  LYS149     -0.1314
     82  N          6.4970    3.2650   -3.2520 N.am  150  GLN150     -0.1979
     83  CA         5.5140    3.0770   -2.1890 C.3   150  GLN150      0.1601
     84  C          5.7440    3.9560   -0.9540 C.2   150  GLN150      0.2287
     85  O          4.7820    4.5100   -0.4180 O.2   150  GLN150     -0.2864
     86  CB         5.4560    1.5910   -1.8090 C.3   150  GLN150      0.0394
     87  CG         4.4840    1.2020   -0.7050 C.3   150  GLN150      0.0908
     88  CD         3.7790   -0.0620   -1.1060 C.2   150  GLN150      0.2608
     89  OE1        4.3510   -0.9840   -1.7240 O.2   150  GLN150     -0.2717
     90  NE2        2.5120   -0.1480   -0.7460 N.am  150  GLN150     -0.0878
     91  N          9.1260   -3.9560    2.5550 N.3   208  LEU208     -0.1245
     92  CA         9.3630   -4.1270    1.1210 C.3   208  LEU208      0.1561
     93  C         10.7380   -4.7290    0.8010 C.2   208  LEU208      0.2260
     94  O         10.9030   -5.3520   -0.2500 O.2   208  LEU208     -0.2867
     95  CB         9.1500   -2.8020    0.3540 C.3   208  LEU208      0.0270
     96  CG         7.6920   -2.3070    0.3140 C.3   208  LEU208      0.0019
     97  CD1        7.5860   -0.9430   -0.3270 C.3   208  LEU208      0.0001
     98  CD2        6.7550   -3.3000   -0.3970 C.3   208  LEU208      0.0001
@<TRIPOS>BOND
     1    12    11    2
     2    13    14    1
     3    13    10    1
     4    11    10    1
     5    14    15    1
     6    10     9    1
     7    15     9    1
     8     9     3   am
     9     3     4    2
    10     3     2    1
    11     1     2    1
    12     2     5    1
    13     5     7    1
    14     5     6    1
    15    81    80    1
    16    67    65   ar
    17    48    49    1
    18    49    50    1
    19    66    65   ar
    20     6     8    1
    21    65    64    1
    22    46    45    1
    23    80    79    1
    24    50    51    2
    25    50    52   am
    26    64    63    1
    27    79    78    1
    28    47    45    1
    29    45    42    1
    30    52    53    1
    31    44    43    2
    32    58    56    1
    33    63    60    1
    34    42    43    1
    35    42    41    1
    36    78    77    1
    37    57    56    1
    38    53    56    1
    39    53    54    1
    40    60    61    1
    41    60    59    1
    42    77    74    1
    43    39    38    1
    44    37    38    2
    45    37    36    1
    46    55    54    2
    47    61    62    2
    48    61    68   am
    49    35    36    1
    50    35    34    1
    51    38    40    1
    52    33    32    2
    53    28    27    2
    54    68    69    1
    55    74    73    1
    56    74    75    1
    57    31    34    1
    58    31    32    1
    59    31    30    1
    60    27    30   am
    61    27    26    1
    62    69    72    1
    63    69    70    1
    64    29    26    1
    65    76    75    2
    66    75    82   am
    67    23    22    2
    68    26    25    1
    69    70    71    2
    70    82    83    1
    71    22    24   am
    72    22    21    1
    73    20    21    1
    74    20    17    1
    75    83    86    1
    76    83    84    1
    77    19    18    2
    78    86    87    1
    79    89    88    2
    80    88    90   am
    81    88    87    1
    82    18    17    1
    83    17    16    1
    84    84    85    2
    85    98    96    1
    86    97    96    1
    87    94    93    2
    88    96    95    1
    89    95    92    1
    90    93    92    1
    91    92    91    1
