@<TRIPOS>MOLECULE
tmp/5itpB00.pdb
 173 165 0 0 0
SMALL
GASTEIGER

@<TRIPOS>ATOM
      1  N        -17.6140  111.2760   16.5930 N.3     9  GLU9       -0.1245
      2  CA       -18.0900  110.2550   17.4990 C.3     9  GLU9        0.1567
      3  C        -17.5720  108.8610   17.1680 C.2     9  GLU9        0.2260
      4  O        -17.0540  108.1850   18.0490 O.2     9  GLU9       -0.2867
      5  CB       -19.6130  110.3060   17.5800 C.3     9  GLU9        0.0388
      6  CG       -20.2050  109.3180   18.5620 C.3     9  GLU9        0.1160
      7  CD       -21.5740  108.8450   18.1390 C.2     9  GLU9        0.3649
      8  OE1      -21.8060  108.7140   16.9170 O.co2   9  GLU9       -0.2457
      9  OE2      -22.4270  108.6260   19.0250 O.co2   9  GLU9       -0.2457
     10  N        -21.8610  106.6390   14.1580 N.3    12  TYR12      -0.1241
     11  CA       -22.9700  107.1320   13.3510 C.3    12  TYR12       0.1605
     12  C        -22.7330  106.9000   11.8660 C.2    12  TYR12       0.2264
     13  O        -22.4960  107.8490   11.1190 O.2    12  TYR12      -0.2867
     14  CB       -23.2580  108.6130   13.6660 C.3    12  TYR12       0.0534
     15  CG       -24.7100  108.9990   13.4840 C.ar   12  TYR12      -0.0201
     16  CD1      -25.6650  108.6590   14.4360 C.ar   12  TYR12      -0.0009
     17  CD2      -25.1290  109.7160   12.3650 C.ar   12  TYR12      -0.0009
     18  CE1      -27.0000  109.0120   14.2810 C.ar   12  TYR12       0.0417
     19  CE2      -26.4640  110.0850   12.2030 C.ar   12  TYR12       0.0417
     20  CZ       -27.4000  109.7130   13.1590 C.ar   12  TYR12       0.1957
     21  OH       -28.7260  110.0340   13.0450 O.3    12  TYR12      -0.2866
     22  N        -21.6950  108.5320    8.3420 N.3    15  TYR15      -0.1227
     23  CA       -21.0210  109.8210    8.5810 C.3    15  TYR15       0.1736
     24  C        -19.6570  109.5970    9.2610 C.2    15  TYR15       0.2595
     25  O        -18.6290  110.1070    8.8070 O.2    15  TYR15      -0.2718
     26  CB       -21.8630  110.7090    9.4980 C.3    15  TYR15       0.0548
     27  CG       -23.0180  111.4370    8.8510 C.ar   15  TYR15      -0.0200
     28  CD1      -22.8740  112.7480    8.4040 C.ar   15  TYR15      -0.0009
     29  CD2      -24.2920  110.8710    8.8180 C.ar   15  TYR15      -0.0009
     30  CE1      -23.9560  113.4580    7.8900 C.ar   15  TYR15       0.0417
     31  CE2      -25.3870  111.5810    8.3330 C.ar   15  TYR15       0.0417
     32  CZ       -25.2130  112.8710    7.8610 C.ar   15  TYR15       0.1957
     33  OH       -26.2890  113.5820    7.4030 O.3    15  TYR15      -0.2866
     34  N        -19.6670  108.8530   10.3740 N.am   16  ASN16      -0.1974
     35  CA       -18.4700  108.5800   11.1590 C.3    16  ASN16       0.1688
     36  C        -18.6340  107.3030   11.9330 C.2    16  ASN16       0.2292
     37  O        -19.5540  107.1600   12.7420 O.2    16  ASN16      -0.2864
     38  CB       -18.1180  109.7610   12.0800 C.3    16  ASN16       0.1181
     39  CG       -19.2460  110.2350   12.9690 C.2    16  ASN16       0.2629
     40  OD1      -19.3530  109.8400   14.1220 O.2    16  ASN16      -0.2716
     41  ND2      -20.0980  111.1060   12.4610 N.am   16  ASN16      -0.0877
     42  N        -20.4720  111.2610   21.9720 N.3    50  TRP50      -0.1241
     43  CA       -21.5060  112.2510   21.6390 C.3    50  TRP50       0.1605
     44  C        -21.9140  113.0710   22.8610 C.2    50  TRP50       0.2264
     45  O        -22.0100  114.2940   22.7710 O.2    50  TRP50      -0.2867
     46  CB       -22.7200  111.5720   21.0040 C.3    50  TRP50       0.0550
     47  CG       -23.7980  112.5210   20.5780 C.ar   50  TRP50       0.0003
     48  CD1      -25.0430  112.6480   21.1240 C.ar   50  TRP50       0.0946
     49  CD2      -23.7380  113.4550   19.4960 C.ar   50  TRP50       0.0152
     50  NE1      -25.7560  113.6110   20.4540 N.ar   50  TRP50      -0.2442
     51  CE2      -24.9890  114.1090   19.4370 C.ar   50  TRP50       0.0810
     52  CE3      -22.7600  113.7770   18.5400 C.ar   50  TRP50       0.0012
     53  CZ2      -25.2830  115.0770   18.4710 C.ar   50  TRP50       0.0191
     54  CZ3      -23.0550  114.7320   17.5790 C.ar   50  TRP50       0.0001
     55  CH2      -24.3080  115.3590   17.5410 C.ar   50  TRP50       0.0015
     56  N        -19.4550  115.5290   13.2180 N.3    67  ALA67      -0.1231
     57  CA       -20.0480  114.3090   13.7660 C.3    67  ALA67       0.1694
     58  C        -21.5400  114.2420   13.4510 C.2    67  ALA67       0.2592
     59  O        -22.3510  114.0300   14.3550 O.2    67  ALA67      -0.2718
     60  CB       -19.7970  114.2480   15.2810 C.3    67  ALA67       0.0304
     61  N        -21.9080  114.4450   12.1570 N.am   68  ALA68      -0.1966
     62  CA       -23.3070  114.4520   11.6850 C.3    68  ALA68       0.1728
     63  C        -24.1400  115.4360   12.5240 C.2    68  ALA68       0.2616
     64  O        -25.2920  115.1600   12.8620 O.2    68  ALA68      -0.2715
     65  CB       -23.9010  113.0420   11.7660 C.3    68  ALA68       0.0334
     66  N        -23.5260  116.5640   12.9200 N.am   69  MET69      -0.1963
     67  CA       -24.1830  117.5280   13.7910 C.3    69  MET69       0.1736
     68  C        -25.0300  118.5370   13.0440 C.2    69  MET69       0.2617
     69  O        -24.4960  119.3640   12.2970 O.2    69  MET69      -0.2715
     70  CB       -23.1660  118.2240   14.7120 C.3    69  MET69       0.0427
     71  CG       -23.8300  119.1130   15.7770 C.3    69  MET69       0.0599
     72  SD       -22.6470  119.8170   16.9350 S.3    69  MET69      -0.1393
     73  CE       -22.3360  118.4020   18.0010 C.3    69  MET69       0.0692
     74  N        -26.3280  118.5220   13.3190 N.am   70  GLY70      -0.1955
     75  CA       -27.2530  119.4770   12.7110 C.3    70  GLY70       0.1869
     76  C        -27.1030  120.8700   13.2990 C.2    70  GLY70       0.2309
     77  O        -26.8820  121.0030   14.5060 O.2    70  GLY70      -0.2863
     78  N        -28.1920  124.3840   19.9990 N.3    75  ARG75      -0.1245
     79  CA       -26.7270  124.3150   19.8520 C.3    75  ARG75       0.1563
     80  C        -26.1430  125.6700   19.4450 C.2    75  ARG75       0.2260
     81  O        -25.0580  126.0320   19.9040 O.2    75  ARG75      -0.2867
     82  CB       -26.3200  123.2590   18.8200 C.3    75  ARG75       0.0307
     83  CG       -26.6430  121.8370   19.2340 C.3    75  ARG75       0.0489
     84  CD       -26.2190  120.8210   18.1770 C.3    75  ARG75       0.2205
     85  NE       -26.7330  119.5030   18.5400 N.pl3  75  ARG75      -0.0865
     86  CZ       -27.3500  118.6740   17.7110 C.cat  75  ARG75       0.5346
     87  NH1      -27.8270  117.5230   18.1550 N.pl3  75  ARG75       0.1354
     88  NH2      -27.4900  118.9880   16.4260 N.pl3  75  ARG75       0.1354
     89  N        -30.7180  117.2110    4.8430 N.3    88  THR88      -0.1218
     90  CA       -31.5180  115.9840    4.9600 C.3    88  THR88       0.1862
     91  C        -32.8210  116.1770    5.7290 C.2    88  THR88       0.2287
     92  O        -32.7970  116.7350    6.8210 O.2    88  THR88      -0.2866
     93  CB       -30.6770  114.8180    5.6010 C.3    88  THR88       0.1770
     94  OG1      -31.4820  113.6410    5.7410 O.3    88  THR88      -0.2211
     95  CG2      -30.0590  115.1880    6.9720 C.3    88  THR88       0.0375
     96  N        -35.9980  114.5090    8.0970 N.3    90  MET90      -0.1245
     97  CA       -36.1140  113.5240    9.1830 C.3    90  MET90       0.1570
     98  C        -37.3300  112.6510    8.9410 C.2    90  MET90       0.2261
     99  O        -38.3470  113.1480    8.4540 O.2    90  MET90      -0.2867
    100  CB       -36.3080  114.2440   10.5280 C.3    90  MET90       0.0387
    101  CG       -35.2400  115.2760   10.8020 C.3    90  MET90       0.0595
    102  SD       -33.6280  114.5080   11.1100 S.3    90  MET90      -0.1393
    103  CE       -32.6580  115.9630   11.5640 C.3    90  MET90       0.0692
    104  N        -31.4700  108.5640   20.1060 N.3   138  GLN138     -0.1245
    105  CA       -30.1730  108.8140   20.7170 C.3   138  GLN138      0.1566
    106  C        -30.3190  110.1040   21.5660 C.2   138  GLN138      0.2260
    107  O        -30.9370  111.0770   21.1150 O.2   138  GLN138     -0.2867
    108  CB       -29.0730  108.9790   19.6690 C.3   138  GLN138      0.0367
    109  CG       -27.7060  109.2190   20.3050 C.3   138  GLN138      0.0905
    110  CD       -26.6000  109.5000   19.3200 C.2   138  GLN138      0.2608
    111  OE1      -26.8200  109.7980   18.1420 O.2   138  GLN138     -0.2717
    112  NE2      -25.3740  109.4140   19.8020 N.am  138  GLN138     -0.0878
    113  N        -29.8600  114.6050   20.7730 N.3   141  THR141     -0.1203
    114  CA       -30.0810  114.8120   19.3340 C.3   141  THR141      0.1994
    115  C        -31.3120  115.6930   19.0910 C.2   141  THR141      0.2619
    116  O        -32.1500  115.8380   19.9900 O.2   141  THR141     -0.2717
    117  CB       -30.2570  113.4580   18.6000 C.3   141  THR141      0.1784
    118  OG1      -31.4350  112.7970   19.0930 O.3   141  THR141     -0.2211
    119  CG2      -29.0150  112.5540   18.6890 C.3   141  THR141      0.0376
    120  N        -31.4640  116.2210   17.8550 N.am  142  SER142     -0.1937
    121  CA       -32.6650  116.9660   17.4690 C.3   142  SER142      0.2055
    122  C        -33.8740  115.9970   17.4470 C.2   142  SER142      0.2643
    123  O        -35.0150  116.4510   17.5650 O.2   142  SER142     -0.2714
    124  CB       -32.4950  117.6430   16.1140 C.3   142  SER142      0.2130
    125  OG       -32.2630  116.6810   15.1000 O.3   142  SER142     -0.2179
    126  N        -33.6070  114.6660   17.3560 N.am  143  HIS143     -0.1973
    127  CA       -34.6270  113.6090   17.3860 C.3   143  HIS143      0.1656
    128  C        -35.2950  113.5980   18.7740 C.2   143  HIS143      0.2291
    129  O        -36.5250  113.5920   18.8720 O.2   143  HIS143     -0.2864
    130  CB       -34.0130  112.2320   17.0450 C.3   143  HIS143      0.0771
    131  CG       -33.0770  112.2540   15.8630 C.ar  143  HIS143      0.0820
    132  ND1      -31.9370  111.4710   15.8330 N.ar  143  HIS143     -0.2267
    133  CD2      -33.1240  113.0000   14.7280 C.ar  143  HIS143      0.1154
    134  CE1      -31.3360  111.7550   14.6870 C.ar  143  HIS143      0.1986
    135  NE2      -32.0060  112.6850   13.9990 N.ar  143  HIS143     -0.2212
    136  N        -26.7710  105.6410   18.5250 N.3   162  ILE162     -0.1245
    137  CA       -27.8060  105.2110   17.5840 C.3   162  ILE162      0.1561
    138  C        -27.7290  103.6880   17.3480 C.2   162  ILE162      0.2260
    139  O        -28.7530  103.0710   17.0730 O.2   162  ILE162     -0.2867
    140  CB       -27.7510  106.0200   16.2620 C.3   162  ILE162      0.0252
    141  CG1      -29.1010  105.9780   15.5270 C.3   162  ILE162      0.0019
    142  CG2      -26.5880  105.5580   15.3550 C.3   162  ILE162      0.0019
    143  CD1      -30.2580  106.7150   16.2210 C.3   162  ILE162      0.0001
    144  N        -32.5120  111.0870   10.6270 N.3   180  SER180     -0.1217
    145  CA       -32.5690  111.6710    9.2890 C.3   180  SER180      0.1889
    146  C        -32.6480  110.5840    8.2360 C.2   180  SER180      0.2288
    147  O        -32.2560  109.4370    8.4860 O.2   180  SER180     -0.2866
    148  CB       -31.3600  112.5580    9.0140 C.3   180  SER180      0.2089
    149  OG       -30.1780  111.7840    8.8550 O.3   180  SER180     -0.2183
    150  N        -30.7140  110.6700    5.7250 N.3   182  SER182     -0.1202
    151  CA       -29.2900  110.3990    5.4610 C.3   182  SER182      0.2020
    152  C        -28.7410  109.2380    6.3020 C.2   182  SER182      0.2618
    153  O        -27.8530  108.5330    5.8500 O.2   182  SER182     -0.2717
    154  CB       -28.4400  111.6580    5.6180 C.3   182  SER182      0.2103
    155  OG       -28.3740  112.0790    6.9690 O.3   182  SER182     -0.2182
    156  N        -29.2850  109.0370    7.5060 N.am  183  PHE183     -0.1975
    157  CA       -28.9050  107.9100    8.3450 C.3   183  PHE183      0.1639
    158  C        -29.7480  106.6770    7.9720 C.2   183  PHE183      0.2290
    159  O        -29.2100  105.5780    7.8140 O.2   183  PHE183     -0.2864
    160  CB       -29.0720  108.2540    9.8530 C.3   183  PHE183      0.0560
    161  CG       -28.8320  107.0460   10.7320 C.ar  183  PHE183     -0.0200
    162  CD1      -27.5410  106.6190   11.0140 C.ar  183  PHE183     -0.0042
    163  CD2      -29.9010  106.2950   11.2250 C.ar  183  PHE183     -0.0042
    164  CE1      -27.3180  105.4540   11.7670 C.ar  183  PHE183     -0.0003
    165  CE2      -29.6780  105.1330   11.9800 C.ar  183  PHE183     -0.0003
    166  CZ       -28.3900  104.7230   12.2470 C.ar  183  PHE183     -0.0000
    167  N        -26.5190  119.8850    8.1920 N.3   212  VAL212     -0.1245
    168  CA       -25.3750  119.3710    8.9600 C.3   212  VAL212      0.1561
    169  C        -24.2050  120.3300    8.7240 C.2   212  VAL212      0.2260
    170  O        -23.8960  120.6500    7.5740 O.2   212  VAL212     -0.2867
    171  CB       -25.0280  117.9080    8.5580 C.3   212  VAL212      0.0252
    172  CG1      -23.8250  117.3810    9.3370 C.3   212  VAL212      0.0019
    173  CG2      -26.2330  116.9830    8.7430 C.3   212  VAL212      0.0019
@<TRIPOS>BOND
     1    89    90    1
     2    90    93    1
     3    90    91    1
     4   151   154    1
     5   151   150    1
     6   151   152    1
     7    93    94    1
     8    93    95    1
     9   154   155    1
    10    91    92    2
    11   153   152    2
    12   152   156   am
    13    33    32    1
    14   156   157    1
    15   170   169    2
    16   159   158    2
    17    32    30   ar
    18    32    31   ar
    19    30    28   ar
    20   158   157    1
    21    96    97    1
    22   167   168    1
    23   146   147    2
    24   146   145    1
    25    31    29   ar
    26    22    23    1
    27   157   160    1
    28    28    27   ar
    29    99    98    2
    30   171   173    1
    31   171   168    1
    32   171   172    1
    33    23    24    1
    34    23    26    1
    35   169   168    1
    36    25    24    2
    37    29    27   ar
    38    27    26    1
    39   149   148    1
    40    98    97    1
    41   148   145    1
    42    97   100    1
    43    24    34   am
    44   145   144    1
    45   160   161    1
    46    34    35    1
    47   100   101    1
    48   161   162   ar
    49   161   163   ar
    50   101   102    1
    51   162   164   ar
    52   102   103    1
    53    13    12    2
    54    35    36    1
    55    35    38    1
    56   163   165   ar
    57    62    65    1
    58    62    61    1
    59    62    63    1
    60   164   166   ar
    61    12    11    1
    62    36    37    2
    63   165   166   ar
    64    38    39    1
    65    61    58   am
    66    19    17   ar
    67    19    20   ar
    68    69    68    2
    69    17    15   ar
    70    41    39   am
    71    63    64    2
    72    63    66   am
    73    75    76    1
    74    75    74    1
    75    66    67    1
    76    39    40    2
    77    68    74   am
    78    68    67    1
    79    21    20    1
    80    20    18   ar
    81    56    57    1
    82    76    77    2
    83    11    14    1
    84    11    10    1
    85    58    57    1
    86    58    59    2
    87    15    14    1
    88    15    16   ar
    89    57    60    1
    90    67    70    1
    91   135   134   ar
    92   135   133   ar
    93    18    16   ar
    94   134   132   ar
    95    70    71    1
    96   133   131   ar
    97   125   124    1
    98   142   140    1
    99   141   143    1
   100   141   140    1
   101    71    72    1
   102   132   131   ar
   103   131   130    1
   104   124   121    1
   105   140   137    1
   106    88    86    1
   107     1     2    1
   108     8     7   ar
   109    72    73    1
   110   130   127    1
   111   139   138    2
   112     3     2    1
   113     3     4    2
   114   138   137    1
   115   126   127    1
   116   126   122   am
   117   127   128    1
   118   122   121    1
   119   122   123    2
   120   121   120    1
   121     2     5    1
   122    55    54   ar
   123    55    53   ar
   124    54    52   ar
   125     5     6    1
   126   137   136    1
   127    86    87    1
   128    86    85    2
   129   120   115   am
   130     7     6    1
   131     7     9   ar
   132   111   110    2
   133    84    85    1
   134    84    83    1
   135    53    51   ar
   136    52    49   ar
   137   117   119    1
   138   117   118    1
   139   117   114    1
   140   128   129    2
   141    82    83    1
   142    82    79    1
   143   115   114    1
   144   115   116    2
   145   110   112   am
   146   110   109    1
   147   114   113    1
   148    51    49   ar
   149    51    50   ar
   150    80    79    1
   151    80    81    2
   152    49    47   ar
   153   108   109    1
   154   108   105    1
   155    79    78    1
   156   104   105    1
   157    50    48   ar
   158    47    46    1
   159    47    48   ar
   160   105   106    1
   161    46    43    1
   162   107   106    2
   163    43    42    1
   164    43    44    1
   165    45    44    2
