@<TRIPOS>MOLECULE
tmp/5itpA01.pdb
 80 79 0 0 0
SMALL
GASTEIGER

@<TRIPOS>ATOM
      1  N        -24.1160   78.3100   -5.9590 N.3    86  LEU86      -0.1231
      2  CA       -23.3260   79.4890   -6.3110 C.3    86  LEU86       0.1693
      3  C        -21.9730   79.0310   -6.8440 C.2    86  LEU86       0.2592
      4  O        -21.4410   77.9930   -6.4120 O.2    86  LEU86      -0.2718
      5  CB       -23.1590   80.4390   -5.1060 C.3    86  LEU86       0.0284
      6  CG       -23.1690   81.9460   -5.4160 C.3    86  LEU86       0.0019
      7  CD1      -24.5650   82.4460   -5.7890 C.3    86  LEU86       0.0001
      8  CD2      -22.6440   82.7620   -4.2280 C.3    86  LEU86       0.0001
      9  N        -21.4600   79.7640   -7.8320 N.am   87  LEU87      -0.1966
     10  CA       -20.1720   79.4680   -8.4480 C.3    87  LEU87       0.1728
     11  C        -19.3050   80.6980   -8.3120 C.2    87  LEU87       0.2617
     12  O        -19.7770   81.8140   -8.5250 O.2    87  LEU87      -0.2715
     13  CB       -20.3140   79.0970   -9.9250 C.3    87  LEU87       0.0311
     14  CG       -21.1020   77.8250  -10.2860 C.3    87  LEU87       0.0022
     15  CD1      -21.1690   77.6600  -11.7950 C.3    87  LEU87       0.0001
     16  CD2      -20.4720   76.5690   -9.6790 C.3    87  LEU87       0.0001
     17  N        -18.0460   80.5010   -7.9400 N.am   88  THR88      -0.1937
     18  CA       -17.1320   81.6260   -7.7530 C.3    88  THR88       0.2013
     19  C        -15.6760   81.2210   -7.9180 C.2    88  THR88       0.2484
     20  O        -15.2300   80.2600   -7.2970 O.2    88  THR88      -0.2729
     21  CB       -17.3590   82.3270   -6.3630 C.3    88  THR88       0.1807
     22  OG1      -16.4350   83.4260   -6.2160 O.3    88  THR88      -0.2208
     23  CG2      -17.2350   81.3450   -5.1560 C.3    88  THR88       0.0379
     24  N        -14.8870   82.0290   -8.6390 N.am   89  PRO89      -0.2715
     25  CA       -13.4510   81.7800   -8.6540 C.3    89  PRO89       0.1536
     26  C        -12.8130   82.3410   -7.3620 C.2    89  PRO89       0.2598
     27  O        -13.4670   83.0630   -6.5910 O.2    89  PRO89      -0.2715
     28  CB       -12.9810   82.5340   -9.8920 C.3    89  PRO89       0.0310
     29  CG       -13.9800   83.6190  -10.1010 C.3    89  PRO89       0.0237
     30  CD       -15.2480   83.2490   -9.4070 C.3    89  PRO89       0.0939
     31  N        -11.5490   81.9910   -7.1320 N.am   90  MET90      -0.1978
     32  CA       -10.7330   82.4460   -5.9900 C.3    90  MET90       0.1605
     33  C         -9.7200   83.4600   -6.4830 C.2    90  MET90       0.2287
     34  O         -9.1760   83.2840   -7.5700 O.2    90  MET90      -0.2864
     35  CB        -9.9710   81.2590   -5.3800 C.3    90  MET90       0.0413
     36  CG       -10.8670   80.1000   -5.0420 C.3    90  MET90       0.0598
     37  SD       -11.9600   80.5480   -3.6750 S.3    90  MET90      -0.1393
     38  CE       -12.7780   78.9020   -3.4030 C.3    90  MET90       0.0692
     39  N        -10.0920   78.5140  -10.3610 N.3   204  THR204     -0.1218
     40  CA       -11.2330   77.6040  -10.1630 C.3   204  THR204      0.1862
     41  C        -10.7300   76.1460  -10.1630 C.2   204  THR204      0.2287
     42  O         -9.6280   75.8750  -10.6350 O.2   204  THR204     -0.2866
     43  CB       -12.2980   77.7730  -11.2840 C.3   204  THR204      0.1770
     44  OG1      -11.7070   77.4400  -12.5390 O.3   204  THR204     -0.2211
     45  CG2      -12.9080   79.1600  -11.3370 C.3   204  THR204      0.0375
     46  N         -9.9750   73.6590   -4.9080 N.3   208  PHE208     -0.1227
     47  CA       -11.0710   74.5890   -4.6140 C.3   208  PHE208      0.1736
     48  C        -12.4470   73.9350   -4.8460 C.2   208  PHE208      0.2596
     49  O        -13.4540   74.4240   -4.3290 O.2   208  PHE208     -0.2718
     50  CB       -10.9260   75.9030   -5.3890 C.3   208  PHE208      0.0547
     51  CG        -9.7110   76.7360   -5.0400 C.ar  208  PHE208     -0.0202
     52  CD1       -9.4730   77.1340   -3.7280 C.ar  208  PHE208     -0.0042
     53  CD2       -8.8360   77.1650   -6.0280 C.ar  208  PHE208     -0.0042
     54  CE1       -8.3800   77.9420   -3.4130 C.ar  208  PHE208     -0.0003
     55  CE2       -7.7500   77.9870   -5.7190 C.ar  208  PHE208     -0.0003
     56  CZ        -7.5370   78.3800   -4.4090 C.ar  208  PHE208     -0.0000
     57  N        -12.4770   72.8610   -5.6290 N.am  209  GLY209     -0.1942
     58  CA       -13.6980   72.1190   -5.9120 C.3   209  GLY209      0.2014
     59  C        -14.5970   72.7520   -6.9580 C.2   209  GLY209      0.2639
     60  O        -14.1340   73.5360   -7.7870 O.2   209  GLY209     -0.2714
     61  N        -15.8930   72.4300   -6.9030 N.am  210  LYS210     -0.1963
     62  CA       -16.8580   72.8330   -7.9140 C.3   210  LYS210      0.1728
     63  C        -18.1130   73.4860   -7.3390 C.2   210  LYS210      0.2617
     64  O        -19.1820   72.8990   -7.3800 O.2   210  LYS210     -0.2715
     65  CB       -17.1830   71.5850   -8.7860 C.3   210  LYS210      0.0311
     66  CG       -18.1000   71.7590  -10.0240 C.3   210  LYS210      0.0038
     67  CD       -19.5430   71.1870   -9.8260 C.3   210  LYS210      0.0206
     68  CE       -19.6280   69.7900   -9.2280 C.3   210  LYS210      0.1093
     69  NZ       -20.8820   69.5840   -8.4490 N.3   210  LYS210     -0.1314
     70  N        -17.9800   74.7100   -6.8490 N.am  211  GLY211     -0.1940
     71  CA       -19.1180   75.4800   -6.3670 C.3   211  GLY211      0.2014
     72  C        -19.3830   75.3970   -4.8850 C.2   211  GLY211      0.2638
     73  O        -18.7610   74.6010   -4.1860 O.2   211  GLY211     -0.2714
     74  N        -20.3080   76.2350   -4.4190 N.am  212  VAL212     -0.1977
     75  CA       -20.7790   76.2710   -3.0290 C.3   212  VAL212      0.1596
     76  C        -22.0470   75.3950   -3.0050 C.2   212  VAL212      0.2287
     77  O        -22.9330   75.5700   -3.8450 O.2   212  VAL212     -0.2864
     78  CB       -21.0720   77.7270   -2.5500 C.3   212  VAL212      0.0276
     79  CG1      -21.6210   77.7410   -1.1250 C.3   212  VAL212      0.0022
     80  CG2      -19.8130   78.5960   -2.6420 C.3   212  VAL212      0.0022
@<TRIPOS>BOND
     1    44    43    1
     2    15    14    1
     3    45    43    1
     4    43    40    1
     5    42    41    2
     6    39    40    1
     7    14    13    1
     8    14    16    1
     9    40    41    1
    10    29    28    1
    11    29    30    1
    12    66    67    1
    13    66    65    1
    14    13    10    1
    15    28    25    1
    16    67    68    1
    17    30    24    1
    18    68    69    1
    19    65    62    1
    20    25    24    1
    21    25    26    1
    22    24    19   am
    23    12    11    2
    24    10    11    1
    25    10     9    1
    26    11    17   am
    27    17    18    1
    28    19    18    1
    29    19    20    2
    30    62    63    1
    31    62    61    1
    32     9     3   am
    33    60    59    2
    34    18    21    1
    35    34    33    2
    36    64    63    2
    37    26    31   am
    38    26    27    2
    39    63    70   am
    40    31    32    1
    41    59    61   am
    42    59    58    1
    43    70    71    1
    44     3     4    2
    45     3     2    1
    46    33    32    1
    47    71    72    1
    48    21    22    1
    49    21    23    1
    50     2     1    1
    51     2     5    1
    52    53    55   ar
    53    53    51   ar
    54    32    35    1
    55    58    57    1
    56     7     6    1
    57    55    56   ar
    58    57    48   am
    59     6     5    1
    60     6     8    1
    61    50    51    1
    62    50    47    1
    63    35    36    1
    64    36    37    1
    65    51    52   ar
    66    46    47    1
    67    72    74   am
    68    72    73    2
    69    48    47    1
    70    48    49    2
    71    74    75    1
    72    56    54   ar
    73    77    76    2
    74    52    54   ar
    75    37    38    1
    76    75    76    1
    77    75    78    1
    78    80    78    1
    79    78    79    1
