@<TRIPOS>MOLECULE
tmp/5iu2B00.pdb
 195 186 0 0 0
SMALL
GASTEIGER

@<TRIPOS>ATOM
      1  N        -40.4350    4.8570   -3.8360 N.3    57  TRP57      -0.1227
      2  CA       -40.9420    3.5240   -4.1340 C.3    57  TRP57       0.1737
      3  C        -39.8120    2.6860   -4.7260 C.2    57  TRP57       0.2595
      4  O        -39.4480    2.8560   -5.8910 O.2    57  TRP57      -0.2718
      5  CB       -42.1550    3.5930   -5.0840 C.3    57  TRP57       0.0564
      6  CG       -43.1160    2.4420   -4.9660 C.ar   57  TRP57       0.0003
      7  CD1      -42.8840    1.2240   -4.3920 C.ar   57  TRP57       0.0946
      8  CD2      -44.4570    2.3990   -5.4680 C.ar   57  TRP57       0.0152
      9  NE1      -44.0010    0.4320   -4.4940 N.ar   57  TRP57      -0.2442
     10  CE2      -44.9840    1.1280   -5.1460 C.ar   57  TRP57       0.0810
     11  CE3      -45.2650    3.3110   -6.1710 C.ar   57  TRP57       0.0012
     12  CZ2      -46.2850    0.7520   -5.4910 C.ar   57  TRP57       0.0191
     13  CZ3      -46.5510    2.9370   -6.5170 C.ar   57  TRP57       0.0001
     14  CH2      -47.0510    1.6730   -6.1810 C.ar   57  TRP57       0.0015
     15  N        -39.2280    1.8120   -3.8980 N.am   58  LYS58      -0.1966
     16  CA       -38.1420    0.9380   -4.3250 C.3    58  LYS58       0.1728
     17  C        -38.6010   -0.5160   -4.3440 C.2    58  LYS58       0.2616
     18  O        -39.3890   -0.9230   -3.4840 O.2    58  LYS58      -0.2715
     19  CB       -36.9040    1.1300   -3.4420 C.3    58  LYS58       0.0311
     20  CG       -36.2630    2.5120   -3.3750 C.3    58  LYS58       0.0038
     21  CD       -35.7610    2.7830   -4.7470 C.3    58  LYS58       0.0206
     22  CE       -35.3440    4.2670   -4.5890 C.3    58  LYS58       0.1093
     23  NZ       -35.5950    4.9300   -5.8780 N.3    58  LYS58      -0.1314
     24  N        -38.1550   -1.2790   -5.3590 N.am   59  LEU59      -0.1977
     25  CA       -38.4900   -2.6970   -5.5000 C.3    59  LEU59       0.1596
     26  C        -37.3250   -3.5250   -4.9620 C.2    59  LEU59       0.2287
     27  O        -36.1630   -3.2550   -5.3070 O.2    59  LEU59      -0.2864
     28  CB       -38.7500   -3.0940   -6.9700 C.3    59  LEU59       0.0297
     29  CG       -39.8250   -2.3700   -7.7680 C.3    59  LEU59       0.0022
     30  CD1      -39.5780   -2.5440   -9.2470 C.3    59  LEU59       0.0001
     31  CD2      -41.2030   -2.8860   -7.4390 C.3    59  LEU59       0.0001
     32  N        -35.1080   -6.4270   -5.1850 N.3    61  TYR61      -0.1241
     33  CA       -34.6340   -7.3940   -6.1680 C.3    61  TYR61       0.1605
     34  C        -33.8120   -8.4120   -5.4010 C.2    61  TYR61       0.2264
     35  O        -32.8930   -8.0180   -4.6840 O.2    61  TYR61      -0.2867
     36  CB       -33.7500   -6.7180   -7.2350 C.3    61  TYR61       0.0534
     37  CG       -34.3200   -5.4590   -7.8560 C.ar   61  TYR61      -0.0201
     38  CD1      -35.2460   -5.5280   -8.8940 C.ar   61  TYR61      -0.0009
     39  CD2      -33.8610   -4.2010   -7.4740 C.ar   61  TYR61      -0.0009
     40  CE1      -35.7340   -4.3720   -9.5080 C.ar   61  TYR61       0.0417
     41  CE2      -34.3420   -3.0380   -8.0800 C.ar   61  TYR61       0.0417
     42  CZ       -35.2830   -3.1280   -9.0940 C.ar   61  TYR61       0.1957
     43  OH       -35.7730   -1.9870   -9.6860 O.3    61  TYR61      -0.2866
     44  N        -32.6950    1.1830  -16.5790 N.3    69  PRO69      -0.2116
     45  CA       -33.0260    1.5350  -17.9740 C.3    69  PRO69       0.1372
     46  C        -32.1310    2.6270  -18.5540 C.2    69  PRO69       0.2244
     47  O        -31.8480    3.6210  -17.8860 O.2    69  PRO69      -0.2868
     48  CB       -34.5020    1.9660  -17.9150 C.3    69  PRO69       0.0268
     49  CG       -34.9520    1.7260  -16.5170 C.3    69  PRO69       0.0207
     50  CD       -33.7410    1.6510  -15.6490 C.3    69  PRO69       0.0892
     51  N        -33.0340    6.6860  -18.9740 N.3    72  ALA72      -0.1231
     52  CA       -34.0950    6.9390  -18.0030 C.3    72  ALA72       0.1694
     53  C        -33.6810    8.0640  -17.0680 C.2    72  ALA72       0.2592
     54  O        -32.4930    8.2390  -16.7890 O.2    72  ALA72      -0.2718
     55  CB       -34.4030    5.6830  -17.2100 C.3    72  ALA72       0.0304
     56  N        -34.6680    8.8310  -16.5990 N.am   73  PHE73      -0.1962
     57  CA       -34.4790    9.9840  -15.7220 C.3    73  PHE73       0.1771
     58  C        -35.6200   10.0490  -14.7190 C.2    73  PHE73       0.2620
     59  O        -36.6690    9.4480  -14.9450 O.2    73  PHE73      -0.2715
     60  CB       -34.4330   11.2780  -16.5600 C.3    73  PHE73       0.0574
     61  CG       -35.6570   11.4810  -17.4260 C.ar   73  PHE73      -0.0200
     62  CD1      -36.7690   12.1570  -16.9390 C.ar   73  PHE73      -0.0042
     63  CD2      -35.7060   10.9720  -18.7190 C.ar   73  PHE73      -0.0042
     64  CE1      -37.9100   12.3100  -17.7240 C.ar   73  PHE73      -0.0003
     65  CE2      -36.8510   11.1230  -19.5030 C.ar   73  PHE73      -0.0003
     66  CZ       -37.9420   11.7970  -19.0030 C.ar   73  PHE73      -0.0000
     67  N        -35.4200   10.8160  -13.6560 N.am   74  GLY74      -0.1940
     68  CA       -36.4090   11.0010  -12.6050 C.3    74  GLY74       0.2014
     69  C        -36.4030    9.9170  -11.5480 C.2    74  GLY74       0.2639
     70  O        -35.4630    9.1190  -11.4750 O.2    74  GLY74      -0.2714
     71  N        -37.4530    9.9010  -10.7080 N.am   75  LYS75      -0.1963
     72  CA       -37.6080    8.9410   -9.6180 C.3    75  LYS75       0.1728
     73  C        -39.0730    8.5530   -9.4020 C.2    75  LYS75       0.2616
     74  O        -39.9670    9.3810   -9.5860 O.2    75  LYS75      -0.2715
     75  CB       -36.9790    9.4830   -8.3250 C.3    75  LYS75       0.0311
     76  CG       -35.4940    9.4080   -8.3020 C.3    75  LYS75       0.0038
     77  CD       -34.9880   10.1610   -7.0970 C.3    75  LYS75       0.0206
     78  CE       -34.0270    9.3350   -6.3400 C.3    75  LYS75       0.1093
     79  NZ       -33.6160   10.0890   -5.1490 N.3    75  LYS75      -0.1314
     80  N        -39.3030    7.2820   -9.0140 N.am   76  VAL76      -0.1977
     81  CA       -40.6280    6.7020   -8.7540 C.3    76  VAL76       0.1596
     82  C        -40.9210    6.7560   -7.2630 C.2    76  VAL76       0.2287
     83  O        -40.2080    6.1580   -6.4600 O.2    76  VAL76      -0.2864
     84  CB       -40.7790    5.2650   -9.3250 C.3    76  VAL76       0.0276
     85  CG1      -42.1600    4.6890   -9.0330 C.3    76  VAL76       0.0022
     86  CG2      -40.4980    5.2400  -10.8230 C.3    76  VAL76       0.0022
     87  N        -49.1360    6.4810   -7.9120 N.3    89  ALA89      -0.1245
     88  CA       -47.7200    6.4240   -8.2530 C.3    89  ALA89       0.1562
     89  C        -47.3520    7.8640   -8.6100 C.2    89  ALA89       0.2260
     90  O        -48.2080    8.6160   -9.0790 O.2    89  ALA89      -0.2867
     91  CB       -47.4960    5.5120   -9.4440 C.3    89  ALA89       0.0290
     92  N        -44.2150   10.0660  -10.5440 N.3    91  LYS91      -0.1245
     93  CA       -42.9660   10.1680  -11.2840 C.3    91  LYS91       0.1561
     94  C        -42.4710   11.5940  -11.0680 C.2    91  LYS91       0.2260
     95  O        -43.1110   12.5400  -11.5250 O.2    91  LYS91      -0.2867
     96  CB       -43.1860    9.8390  -12.7790 C.3    91  LYS91       0.0271
     97  CG       -41.9400    9.9530  -13.6650 C.3    91  LYS91       0.0035
     98  CD       -41.1310    8.6620  -13.7470 C.3    91  LYS91       0.0206
     99  CE       -39.8940    8.8200  -14.5990 C.3    91  LYS91       0.1093
    100  NZ       -40.1600    8.5750  -16.0430 N.3    91  LYS91      -0.1314
    101  N        -52.1090    2.4640  -17.5060 N.3   115  ALA115     -0.1245
    102  CA       -52.2440    3.2370  -16.2710 C.3   115  ALA115      0.1562
    103  C        -52.6720    4.6600  -16.5660 C.2   115  ALA115      0.2260
    104  O        -52.1210    5.3040  -17.4600 O.2   115  ALA115     -0.2867
    105  CB       -50.9430    3.2310  -15.4970 C.3   115  ALA115      0.0290
    106  N        -50.0930    9.2800  -11.0460 N.3   131  MET131     -0.1230
    107  CA       -50.5650    8.1960  -11.9080 C.3   131  MET131      0.1702
    108  C        -51.3470    7.1410  -11.1380 C.2   131  MET131      0.2595
    109  O        -51.3040    7.1140   -9.9050 O.2   131  MET131     -0.2718
    110  CB       -49.3640    7.5220  -12.5920 C.3   131  MET131      0.0401
    111  CG       -48.7390    8.3580  -13.6730 C.3   131  MET131      0.0596
    112  SD       -47.0190    7.9170  -13.9550 S.3   131  MET131     -0.1393
    113  CE       -46.5690    9.1950  -15.0660 C.3   131  MET131      0.0692
    114  N        -52.0350    6.2450  -11.8790 N.am  132  GLU132     -0.1920
    115  CA       -52.7820    5.1080  -11.3390 C.3   132  GLU132      0.1949
    116  C        -51.7840    4.1070  -10.7450 C.2   132  GLU132      0.2659
    117  O        -50.7400    3.8360  -11.3410 O.2   132  GLU132     -0.2711
    118  CB       -53.5980    4.4340  -12.4610 C.2   132  GLU132      0.0111
    119  CG       -54.6970    3.4980  -11.9830 C.2   132  GLU132      0.0838
    120  CD       -55.5330    2.8290  -13.0610 C.2   132  GLU132      0.3877
    121  OE1      -55.8160    3.4730  -14.0970 O.co2 132  GLU132     -0.2406
    122  OE2      -55.9590    1.6730  -12.8370 O.co2 132  GLU132     -0.2406
    123  N        -52.0970    3.5800   -9.5650 N.am  133  ALA133     -0.1961
    124  CA       -51.2650    2.5870   -8.8920 C.3   133  ALA133      0.1728
    125  C        -52.0280    1.2760   -8.7690 C.2   133  ALA133      0.2616
    126  O        -53.2400    1.2770   -8.5480 O.2   133  ALA133     -0.2715
    127  CB       -50.8550    3.0880   -7.5200 C.3   133  ALA133      0.0334
    128  N        -51.3080    0.1800   -8.9520 N.am  134  GLY134     -0.1955
    129  CA       -51.8410   -1.1700   -8.8570 C.3   134  GLY134      0.1869
    130  C        -51.7950   -1.6690   -7.4340 C.2   134  GLY134      0.2309
    131  O        -50.7090   -1.8880   -6.8890 O.2   134  GLY134     -0.2863
    132  N        -49.4550   -4.8210   -6.6280 N.3   137  GLY137     -0.1210
    133  CA       -48.0240   -4.8030   -6.9130 C.3   137  GLY137      0.1956
    134  C        -47.6480   -5.1600   -8.3370 C.2   137  GLY137      0.2612
    135  O        -48.5230   -5.2800   -9.1990 O.2   137  GLY137     -0.2717
    136  N        -46.3280   -5.3180   -8.5990 N.am  138  SER138     -0.1952
    137  CA       -45.8050   -5.6390   -9.9350 C.3   138  SER138      0.1924
    138  C        -45.6210   -7.1430  -10.1580 C.2   138  SER138      0.2314
    139  O        -45.6220   -7.9080   -9.1930 O.2   138  SER138     -0.2863
    140  CB       -44.4940   -4.9020  -10.1890 C.3   138  SER138      0.2116
    141  OG       -43.4710   -5.3600   -9.3230 O.3   138  SER138     -0.2180
    142  N        -42.4720   -8.2580   -8.4120 N.3   141  GLU141     -0.1245
    143  CA       -42.7250   -8.4430   -6.9800 C.3   141  GLU141      0.1567
    144  C        -43.3280   -9.8180   -6.7170 C.2   141  GLU141      0.2260
    145  O        -42.8690  -10.5040   -5.8070 O.2   141  GLU141     -0.2867
    146  CB       -43.6000   -7.3140   -6.4030 C.3   141  GLU141      0.0388
    147  CG       -42.8160   -6.0480   -6.0790 C.3   141  GLU141      0.1160
    148  CD       -43.6010   -4.8190   -5.6450 C.2   141  GLU141      0.3649
    149  OE1      -43.0640   -4.0360   -4.8280 O.co2 141  GLU141     -0.2457
    150  OE2      -44.7190   -4.6000   -6.1640 O.co2 141  GLU141     -0.2457
    151  N        -41.1590   -4.9040  -19.3210 N.3   179  LYS179     -0.1245
    152  CA       -40.4670   -5.7380  -18.3370 C.3   179  LYS179      0.1561
    153  C        -41.4250   -6.0920  -17.1860 C.2   179  LYS179      0.2260
    154  O        -42.3950   -5.3510  -16.9950 O.2   179  LYS179     -0.2867
    155  CB       -39.1440   -5.1040  -17.8510 C.3   179  LYS179      0.0271
    156  CG       -39.2010   -3.6620  -17.3620 C.3   179  LYS179      0.0035
    157  CD       -37.8130   -3.2190  -16.9080 C.3   179  LYS179      0.0206
    158  CE       -37.7530   -1.7600  -16.5550 C.3   179  LYS179      0.1093
    159  NZ       -36.5170   -1.4280  -15.8010 N.3   179  LYS179     -0.1314
    160  N        -41.4840   -5.5300  -14.1110 N.3   181  SER181     -0.1202
    161  CA       -41.6240   -4.4040  -13.1850 C.3   181  SER181      0.2020
    162  C        -42.5370   -3.2970  -13.7260 C.2   181  SER181      0.2618
    163  O        -43.0320   -2.4820  -12.9430 O.2   181  SER181     -0.2717
    164  CB       -40.2590   -3.8460  -12.7900 C.3   181  SER181      0.2103
    165  OG       -39.4220   -3.6320  -13.9150 O.3   181  SER181     -0.2182
    166  N        -42.7730   -3.2770  -15.0550 N.am  182  ASN182     -0.1974
    167  CA       -43.6270   -2.2810  -15.7030 C.3   182  ASN182      0.1688
    168  C        -45.0440   -2.8260  -16.0250 C.2   182  ASN182      0.2292
    169  O        -45.8330   -2.1490  -16.6810 O.2   182  ASN182     -0.2864
    170  CB       -42.9240   -1.6630  -16.9170 C.3   182  ASN182      0.1181
    171  CG       -41.7400   -0.7800  -16.5500 C.2   182  ASN182      0.2629
    172  OD1      -41.6140   -0.2650  -15.4290 O.2   182  ASN182     -0.2716
    173  ND2      -40.8480   -0.5660  -17.4960 N.am  182  ASN182     -0.0877
    174  N        -48.2660   -4.1370  -13.7720 N.3   184  VAL184     -0.1245
    175  CA       -48.8110   -4.1440  -12.4080 C.3   184  VAL184      0.1561
    176  C        -50.1780   -4.8330  -12.3220 C.2   184  VAL184      0.2260
    177  O        -50.9000   -4.9090  -13.3170 O.2   184  VAL184     -0.2867
    178  CB       -48.8240   -2.7270  -11.7670 C.3   184  VAL184      0.0252
    179  CG1      -47.4330   -2.0930  -11.8180 C.3   184  VAL184      0.0019
    180  CG2      -49.8670   -1.8130  -12.4190 C.3   184  VAL184      0.0019
    181  N        -47.3910    0.1370  -17.1260 N.3   193  VAL193     -0.1231
    182  CA       -46.9330    1.4000  -16.5270 C.3   193  VAL193      0.1692
    183  C        -45.6040    1.8630  -17.1590 C.2   193  VAL193      0.2592
    184  O        -45.0810    1.1710  -18.0350 O.2   193  VAL193     -0.2718
    185  CB       -46.8830    1.3680  -14.9650 C.3   193  VAL193      0.0266
    186  CG1      -48.2400    1.0180  -14.3660 C.3   193  VAL193      0.0020
    187  CG2      -45.8000    0.4280  -14.4410 C.3   193  VAL193      0.0020
    188  N        -45.0640    3.0200  -16.6960 N.am  194  ASP194     -0.1974
    189  CA       -43.8080    3.6550  -17.1290 C.3   194  ASP194      0.1709
    190  C        -43.7940    3.9780  -18.6170 C.2   194  ASP194      0.2293
    191  O        -43.3890    3.1510  -19.4390 O.2   194  ASP194     -0.2864
    192  CB       -42.5650    2.8360  -16.7160 C.3   194  ASP194      0.1436
    193  CG       -41.2800    3.6320  -16.5450 C.2   194  ASP194      0.3671
    194  OD1      -41.0790    4.6220  -17.2930 O.co2 194  ASP194     -0.2456
    195  OD2      -40.4590    3.2490  -15.6860 O.co2 194  ASP194     -0.2456
@<TRIPOS>BOND
     1    65    66   ar
     2    65    63   ar
     3   191   190    2
     4   151   152    1
     5    66    64   ar
     6    51    52    1
     7    63    61   ar
     8   190   189    1
     9    46    45    1
    10    46    47    2
    11   152   155    1
    12   152   153    1
    13   184   183    2
    14    52    55    1
    15    52    53    1
    16    45    48    1
    17    45    44    1
    18    48    49    1
    19   155   156    1
    20    64    62   ar
    21   101   102    1
    22   173   171   am
    23   104   103    2
    24    61    62   ar
    25    61    60    1
    26   156   157    1
    27   194   193   ar
    28   153   154    2
    29   183   188   am
    30   183   182    1
    31   189   192    1
    32   189   188    1
    33   181   182    1
    34    53    54    2
    35    53    56   am
    36   170   171    1
    37   170   167    1
    38   157   158    1
    39   192   193    1
    40   169   168    2
    41    56    57    1
    42    44    50    1
    43   103   102    1
    44    60    57    1
    45   158   159    1
    46   171   172    2
    47   193   195   ar
    48   182   185    1
    49    49    50    1
    50   102   105    1
    51   100    99    1
    52   168   167    1
    53    57    58    1
    54   167   166    1
    55   113   112    1
    56   166   162   am
    57   185   187    1
    58   185   186    1
    59    59    58    2
    60    58    67   am
    61    99    98    1
    62   160   161    1
    63   121   120   ar
    64   112   111    1
    65   165   164    1
    66   174   175    1
    67    98    97    1
    68   162   161    1
    69   162   163    2
    70   111   110    1
    71    97    96    1
    72    67    68    1
    73   177   176    2
    74   161   164    1
    75   120   122   ar
    76   120   119    1
    77    96    93    1
    78    68    69    1
    79   110   107    1
    80   118   119    2
    81   118   115    1
    82   180   178    1
    83   175   176    1
    84   175   178    1
    85   107   108    1
    86   107   106    1
    87   114   115    1
    88   114   108   am
    89   179   178    1
    90    69    70    2
    91    69    71   am
    92    95    94    2
    93   117   116    2
    94   115   116    1
    95    93    94    1
    96    93    92    1
    97   108   109    2
    98    86    84    1
    99   116   123   am
   100    71    72    1
   101   140   137    1
   102   140   141    1
   103   138   137    1
   104   138   139    2
   105   137   136    1
   106    43    42    1
   107    72    73    1
   108    72    75    1
   109    74    73    2
   110   123   124    1
   111    40    42   ar
   112    40    38   ar
   113    91    88    1
   114    73    80   am
   115    84    85    1
   116    84    81    1
   117    30    29    1
   118   135   134    2
   119    42    41   ar
   120    90    89    2
   121    80    81    1
   122   128   129    1
   123   128   125   am
   124    38    37   ar
   125   124   125    1
   126   124   127    1
   127   129   130    1
   128   125   126    2
   129    81    82    1
   130    89    88    1
   131   136   134   am
   132   142   143    1
   133   134   133    1
   134    75    76    1
   135    76    77    1
   136    88    87    1
   137    41    39   ar
   138    37    39   ar
   139    37    36    1
   140    29    31    1
   141    29    28    1
   142   130   131    2
   143    82    83    2
   144    36    33    1
   145    77    78    1
   146   143   144    1
   147   143   146    1
   148    28    25    1
   149   133   132    1
   150   144   145    2
   151    13    14   ar
   152    13    11   ar
   153   146   147    1
   154    78    79    1
   155    14    12   ar
   156    11     8   ar
   157    33    34    1
   158    33    32    1
   159   150   148   ar
   160   147   148    1
   161     4     3    2
   162    23    22    1
   163   148   149   ar
   164    25    24    1
   165    25    26    1
   166    12    10   ar
   167     8    10   ar
   168     8     6   ar
   169    34    35    2
   170    24    17   am
   171    27    26    2
   172    10     9   ar
   173     5     6    1
   174     5     2    1
   175     6     7   ar
   176    21    22    1
   177    21    20    1
   178     3     2    1
   179     3    15   am
   180     9     7   ar
   181    17    16    1
   182    17    18    2
   183    16    15    1
   184    16    19    1
   185     2     1    1
   186    19    20    1
