@<TRIPOS>MOLECULE
tmp/5iu6B00.pdb
 97 92 0 0 0
SMALL
GASTEIGER

@<TRIPOS>ATOM
      1  N        -54.1230   53.0930   47.6460 N.3    90  SER90      -0.1202
      2  CA       -53.2420   52.1360   48.2960 C.3    90  SER90       0.2020
      3  C        -52.4020   51.4310   47.2380 C.2    90  SER90       0.2619
      4  O        -52.7920   51.3430   46.0710 O.2    90  SER90      -0.2717
      5  CB       -54.0570   51.1090   49.0840 C.3    90  SER90       0.2103
      6  OG       -54.9040   50.3870   48.2190 O.3    90  SER90      -0.2182
      7  N        -51.2530   50.9290   47.6660 N.am   91  CYS91      -0.1955
      8  CA       -50.4070   50.1050   46.8200 C.3    91  CYS91       0.1843
      9  C        -49.7910   48.9850   47.6410 C.2    91  CYS91       0.2626
     10  O        -49.7520   49.0520   48.8730 O.2    91  CYS91      -0.2714
     11  CB       -49.3040   50.9570   46.1830 C.3    91  CYS91       0.0997
     12  SG       -48.1860   51.6850   47.3970 S.3    91  CYS91      -0.0797
     13  N        -49.3410   47.9470   46.9470 N.am   92  GLY92      -0.1954
     14  CA       -48.5380   46.8890   47.5510 C.3    92  GLY92       0.1869
     15  C        -47.0850   47.2350   47.3620 C.2    92  GLY92       0.2309
     16  O        -46.7480   47.9200   46.4120 O.2    92  GLY92      -0.2863
     17  N        -50.8190   47.9820   37.3890 N.3   156  ALA156     -0.1245
     18  CA       -51.0710   46.6350   36.8690 C.3   156  ALA156      0.1562
     19  C        -52.5060   46.4960   36.3590 C.2   156  ALA156      0.2260
     20  O        -53.4390   47.1000   36.9240 O.2   156  ALA156     -0.2867
     21  CB       -50.8120   45.6100   37.9640 C.3   156  ALA156      0.0290
     22  N        -53.7440   43.2730   36.0980 N.3   158  LEU158     -0.1231
     23  CA       -54.1630   42.0910   36.8490 C.3   158  LEU158      0.1693
     24  C        -53.6480   42.1030   38.2910 C.2   158  LEU158      0.2592
     25  O        -52.4870   41.7950   38.5540 O.2   158  LEU158     -0.2718
     26  CB       -53.7080   40.8210   36.1260 C.3   158  LEU158      0.0284
     27  CG       -54.2580   40.6620   34.7090 C.3   158  LEU158      0.0019
     28  CD1      -53.5790   39.5080   33.9810 C.3   158  LEU158      0.0001
     29  CD2      -55.7670   40.4600   34.7330 C.3   158  LEU158      0.0001
     30  N        -54.5480   42.4610   39.2080 N.am  159  PHE159     -0.1976
     31  CA       -54.3570   42.3130   40.6500 C.3   159  PHE159      0.1639
     32  C        -53.9200   40.8930   40.9980 C.2   159  PHE159      0.2290
     33  O        -53.0100   40.7020   41.8070 O.2   159  PHE159     -0.2864
     34  CB       -55.6630   42.6600   41.3840 C.3   159  PHE159      0.0560
     35  CG       -55.5410   42.6840   42.8810 C.ar  159  PHE159     -0.0200
     36  CD1      -55.1330   43.8320   43.5430 C.ar  159  PHE159     -0.0042
     37  CD2      -55.8570   41.5610   43.6330 C.ar  159  PHE159     -0.0042
     38  CE1      -55.0270   43.8500   44.9350 C.ar  159  PHE159     -0.0003
     39  CE2      -55.7520   41.5660   45.0210 C.ar  159  PHE159     -0.0003
     40  CZ       -55.3320   42.7110   45.6730 C.ar  159  PHE159     -0.0000
     41  N        -42.8030   40.5350   39.7990 N.3   167  PHE167     -0.1241
     42  CA       -42.5750   41.2490   41.0550 C.3   167  PHE167      0.1605
     43  C        -41.0670   41.4070   41.3500 C.2   167  PHE167      0.2264
     44  O        -40.6460   42.4660   41.8120 O.2   167  PHE167     -0.2867
     45  CB       -43.3810   40.6120   42.2170 C.3   167  PHE167      0.0534
     46  CG       -44.8920   40.6910   42.0220 C.ar  167  PHE167     -0.0203
     47  CD1      -45.5840   41.8810   42.2530 C.ar  167  PHE167     -0.0042
     48  CD2      -45.6210   39.5840   41.5740 C.ar  167  PHE167     -0.0042
     49  CE1      -46.9640   41.9620   42.0560 C.ar  167  PHE167     -0.0003
     50  CE2      -46.9980   39.6610   41.3750 C.ar  167  PHE167     -0.0003
     51  CZ       -47.6700   40.8540   41.6170 C.ar  167  PHE167     -0.0000
     52  N        -47.0720   49.0320   43.8990 N.3   178  VAL178     -0.1231
     53  CA       -47.8880   48.4240   42.8690 C.3   178  VAL178      0.1692
     54  C        -49.3560   48.7800   43.1140 C.2   178  VAL178      0.2592
     55  O        -49.9110   48.4300   44.1580 O.2   178  VAL178     -0.2718
     56  CB       -47.7430   46.8920   42.8770 C.3   178  VAL178      0.0266
     57  CG1      -48.4590   46.2790   41.6760 C.3   178  VAL178      0.0020
     58  CG2      -46.2770   46.5070   42.8650 C.3   178  VAL178      0.0020
     59  N        -49.9640   49.4730   42.1450 N.am  179  GLU179     -0.1966
     60  CA       -51.3860   49.8420   42.1850 C.3   179  GLU179      0.1733
     61  C        -52.0180   49.5860   40.8000 C.2   179  GLU179      0.2616
     62  O        -51.5180   48.7340   40.0780 O.2   179  GLU179     -0.2715
     63  CB       -51.5620   51.2640   42.7470 C.3   179  GLU179      0.0429
     64  CG       -50.6570   52.3390   42.1690 C.3   179  GLU179      0.1163
     65  CD       -51.1460   52.8390   40.8280 C.2   179  GLU179      0.3649
     66  OE1      -50.5320   52.4870   39.7870 O.co2 179  GLU179     -0.2457
     67  OE2      -52.1750   53.5550   40.8120 O.co2 179  GLU179     -0.2457
     68  N        -53.1130   50.2520   40.4220 N.am  180  MET180     -0.1977
     69  CA       -53.8660   49.8740   39.1930 C.3   180  MET180      0.1605
     70  C        -54.3410   51.0220   38.2880 C.2   180  MET180      0.2287
     71  O        -55.1530   50.8050   37.3830 O.2   180  MET180     -0.2864
     72  CB       -55.0710   49.0170   39.5930 C.3   180  MET180      0.0413
     73  CG       -54.6700   47.7270   40.2520 C.3   180  MET180      0.0598
     74  SD       -56.0010   46.5420   40.4440 S.3   180  MET180     -0.1393
     75  CE       -56.4270   46.1310   38.7580 C.3   180  MET180      0.0692
     76  N        -50.1010   49.4880   51.8910 N.3   203  SER203     -0.1202
     77  CA       -51.0260   48.7380   52.7410 C.3   203  SER203      0.2020
     78  C        -50.7100   47.2450   52.7670 C.2   203  SER203      0.2618
     79  O        -51.4250   46.4610   53.3790 O.2   203  SER203     -0.2717
     80  CB       -52.4500   48.9530   52.2380 C.3   203  SER203      0.2103
     81  OG       -52.6140   48.3580   50.9730 O.3   203  SER203     -0.2182
     82  N        -49.6260   46.8610   52.1120 N.am  204  ASP204     -0.1973
     83  CA       -49.3750   45.4720   51.7870 C.3   204  ASP204      0.1709
     84  C        -47.8970   45.3510   51.4490 C.2   204  ASP204      0.2293
     85  O        -47.3070   46.2690   50.8670 O.2   204  ASP204     -0.2864
     86  CB       -50.2420   45.0680   50.5850 C.3   204  ASP204      0.1436
     87  CG       -50.2800   43.5780   50.3590 C.2   204  ASP204      0.3671
     88  OD1      -50.8400   42.8610   51.2160 O.co2 204  ASP204     -0.2456
     89  OD2      -49.7720   43.1250   49.3110 O.co2 204  ASP204     -0.2456
     90  N        -45.8230   42.5830   49.4000 N.3   206  ILE206     -0.1245
     91  CA       -45.8920   41.3660   48.5650 C.3   206  ILE206      0.1561
     92  C        -44.6070   40.5140   48.8020 C.2   206  ILE206      0.2260
     93  O        -44.4560   39.4260   48.2390 O.2   206  ILE206     -0.2867
     94  CB       -46.1570   41.7020   47.0540 C.3   206  ILE206      0.0252
     95  CG1      -47.3090   42.7260   46.8910 C.3   206  ILE206      0.0019
     96  CG2      -46.5090   40.4350   46.2630 C.3   206  ILE206      0.0019
     97  CD1      -47.4720   43.2980   45.4980 C.3   206  ILE206      0.0001
@<TRIPOS>BOND
     1    28    27    1
     2    27    29    1
     3    27    26    1
     4    22    23    1
     5    26    23    1
     6    19    18    1
     7    19    20    2
     8    23    24    1
     9    18    17    1
    10    18    21    1
    11    71    70    2
    12    70    69    1
    13    24    25    2
    14    24    30   am
    15    75    74    1
    16    69    72    1
    17    69    68    1
    18    30    31    1
    19    72    73    1
    20    66    65   ar
    21    41    42    1
    22    62    61    2
    23    73    74    1
    24    68    61   am
    25    31    32    1
    26    31    34    1
    27    61    60    1
    28    67    65   ar
    29    65    64    1
    30    32    33    2
    31    42    43    1
    32    42    45    1
    33    43    44    2
    34    50    48   ar
    35    50    51   ar
    36    34    35    1
    37    48    46   ar
    38    51    49   ar
    39    57    56    1
    40    46    45    1
    41    46    47   ar
    42    49    47   ar
    43    59    60    1
    44    59    54   am
    45    64    63    1
    46    60    63    1
    47    58    56    1
    48    53    56    1
    49    53    54    1
    50    53    52    1
    51    35    36   ar
    52    35    37   ar
    53    54    55    2
    54    36    38   ar
    55    37    39   ar
    56    38    40   ar
    57    39    40   ar
    58    97    95    1
    59     4     3    2
    60    11     8    1
    61    11    12    1
    62    96    94    1
    63    16    15    2
    64     8     9    1
    65     8     7    1
    66    95    94    1
    67    13    14    1
    68    13     9   am
    69    94    91    1
    70     3     7   am
    71     3     2    1
    72    15    14    1
    73     9    10    2
    74     1     2    1
    75     6     5    1
    76    93    92    2
    77     2     5    1
    78    91    92    1
    79    91    90    1
    80    89    87   ar
    81    87    86    1
    82    87    88   ar
    83    86    83    1
    84    85    84    2
    85    81    80    1
    86    84    83    1
    87    83    82    1
    88    76    77    1
    89    82    78   am
    90    80    77    1
    91    77    78    1
    92    78    79    2
