@<TRIPOS>MOLECULE
tmp/5iu7A18.pdb
 178 172 0 0 0
SMALL
GASTEIGER

@<TRIPOS>ATOM
      1  N        -10.8360    9.5930   15.4240 N.3    70  ILE70      -0.1245
      2  CA        -9.8630   10.4260   16.1270 C.3    70  ILE70       0.1561
      3  C         -8.9390   11.1630   15.1680 C.2    70  ILE70       0.2260
      4  O         -8.2430   12.1000   15.5780 O.2    70  ILE70      -0.2867
      5  CB        -9.0300    9.5850   17.1110 C.3    70  ILE70       0.0252
      6  CG1       -8.4290   10.4810   18.2000 C.3    70  ILE70       0.0019
      7  CG2       -7.9330    8.8140   16.3610 C.3    70  ILE70       0.0019
      8  CD1       -7.6970    9.7070   19.2840 C.3    70  ILE70       0.0001
      9  N         -7.7190    0.4020   20.9780 N.3    88  VAL88      -0.1231
     10  CA        -6.8410   -0.4130   20.1350 C.3    88  VAL88       0.1692
     11  C         -5.6860   -1.0030   20.9450 C.2    88  VAL88       0.2591
     12  O         -5.1500   -2.0710   20.6000 O.2    88  VAL88      -0.2718
     13  CB        -6.3210    0.4200   18.9450 C.3    88  VAL88       0.0266
     14  CG1       -5.4350    1.5700   19.4350 C.3    88  VAL88       0.0020
     15  CG2       -5.5570   -0.4740   17.9300 C.3    88  VAL88       0.0020
     16  N         -5.2650   -0.3130   22.0190 N.am   89  LEU89      -0.1980
     17  CA        -4.2060   -0.8450   22.8750 C.3    89  LEU89       0.1596
     18  C         -4.6600   -2.1020   23.6160 C.2    89  LEU89       0.2287
     19  O         -3.8410   -2.9820   23.9280 O.2    89  LEU89      -0.2864
     20  CB        -3.7700    0.2380   23.8630 C.3    89  LEU89       0.0297
     21  CG        -3.3260    1.5840   23.2550 C.3    89  LEU89       0.0022
     22  CD1       -2.8720    2.5530   24.3590 C.3    89  LEU89       0.0001
     23  CD2       -2.1910    1.3770   22.2030 C.3    89  LEU89       0.0001
     24  N         -4.3370   -4.8520   20.9860 N.3    92  ALA92      -0.1245
     25  CA        -2.9370   -5.2030   20.7790 C.3    92  ALA92       0.1562
     26  C         -2.4050   -5.9880   21.9680 C.2    92  ALA92       0.2260
     27  O         -1.6420   -6.9540   21.7970 O.2    92  ALA92      -0.2867
     28  CB        -2.0900   -3.9400   20.5530 C.3    92  ALA92       0.0290
     29  N         -7.4430   14.3370   19.8810 N.3   171  LEU171     -0.1231
     30  CA        -6.2350   14.0140   19.1370 C.3   171  LEU171      0.1693
     31  C         -5.3600   13.1230   20.0040 C.2   171  LEU171      0.2592
     32  O         -5.1440   13.4250   21.1840 O.2   171  LEU171     -0.2718
     33  CB        -5.4890   15.2880   18.7370 C.3   171  LEU171      0.0284
     34  CG        -6.2980   16.1150   17.7220 C.3   171  LEU171      0.0019
     35  CD1       -5.7760   17.5310   17.6470 C.3   171  LEU171      0.0001
     36  CD2       -6.2670   15.4180   16.3500 C.3   171  LEU171      0.0001
     37  N         -4.8510   12.0410   19.4130 N.am  172  PHE172     -0.1962
     38  CA        -4.1780   10.9910   20.1780 C.3   172  PHE172      0.1771
     39  C         -3.0950   11.5530   21.0950 C.2   172  PHE172      0.2619
     40  O         -3.0920   11.2880   22.3040 O.2   172  PHE172     -0.2715
     41  CB        -3.5690    9.9420   19.2350 C.3   172  PHE172      0.0574
     42  CG        -2.9870    8.7500   19.9630 C.ar  172  PHE172     -0.0200
     43  CD1       -3.7560    7.6160   20.1820 C.ar  172  PHE172     -0.0042
     44  CD2       -1.6730    8.7810   20.4550 C.ar  172  PHE172     -0.0042
     45  CE1       -3.2220    6.5100   20.8770 C.ar  172  PHE172     -0.0003
     46  CE2       -1.1320    7.6840   21.1460 C.ar  172  PHE172     -0.0003
     47  CZ        -1.9110    6.5510   21.3490 C.ar  172  PHE172     -0.0000
     48  N         -2.1460   12.3100   20.5350 N.am  173  GLU173     -0.1977
     49  CA        -1.0200   12.7680   21.3430 C.3   173  GLU173      0.1602
     50  C         -1.3860   13.9220   22.2660 C.2   173  GLU173      0.2287
     51  O         -0.5800   14.2720   23.1340 O.2   173  GLU173     -0.2864
     52  CB         0.1710   13.1700   20.4460 C.3   173  GLU173      0.0415
     53  CG         0.7800   11.9760   19.6820 C.3   173  GLU173      0.1163
     54  CD         2.0550   12.2930   18.9050 C.2   173  GLU173      0.3649
     55  OE1        2.6780   13.3730   19.1060 O.co2 173  GLU173     -0.2457
     56  OE2        2.4420   11.4480   18.0670 O.co2 173  GLU173     -0.2457
     57  N          2.8500   10.4960   26.3750 N.3   178  MET178     -0.1245
     58  CA         3.8560    9.7350   25.6460 C.3   178  MET178      0.1570
     59  C          4.7380    8.9160   26.5920 C.2   178  MET178      0.2261
     60  O          5.2480    7.8690   26.1880 O.2   178  MET178     -0.2867
     61  CB         4.7030   10.6620   24.7680 C.3   178  MET178      0.0387
     62  CG         5.4140    9.9470   23.6200 C.3   178  MET178      0.0595
     63  SD         4.2550    9.1210   22.4860 S.3   178  MET178     -0.1393
     64  CE         3.9850   10.4200   21.2920 C.3   178  MET178      0.0692
     65  N          3.0130    5.8070   26.6540 N.3   181  MET181     -0.1245
     66  CA         3.1130    5.0510   25.4100 C.3   181  MET181      0.1570
     67  C          4.4780    4.3860   25.2640 C.2   181  MET181      0.2261
     68  O          4.5740    3.3070   24.6760 O.2   181  MET181     -0.2867
     69  CB         2.8430    5.9670   24.2040 C.3   181  MET181      0.0387
     70  CG         1.3460    6.3320   24.0450 C.3   181  MET181      0.0595
     71  SD         0.2900    4.8660   23.9240 S.3   181  MET181     -0.1393
     72  CE         0.8800    4.1690   22.3720 C.3   181  MET181      0.0692
     73  N          3.4510    1.1330   27.8130 N.3   185  ASN185     -0.1240
     74  CA         2.8740    0.3270   26.7600 C.3   185  ASN185      0.1653
     75  C          3.9670   -0.3500   25.9360 C.2   185  ASN185      0.2266
     76  O          3.9700   -1.5780   25.8090 O.2   185  ASN185     -0.2867
     77  CB         1.9490    1.1570   25.8770 C.3   185  ASN185      0.1155
     78  CG         1.1110    0.2780   24.9720 C.2   185  ASN185      0.2627
     79  OD1        1.4970    0.0040   23.8390 O.2   185  ASN185     -0.2716
     80  ND2       -0.0210   -0.2060   25.4830 N.am  185  ASN185     -0.0877
     81  N          3.9020   -3.5410   14.1270 N.3   331  TRP331     -0.1241
     82  CA         3.6840   -2.5840   15.2130 C.3   331  TRP331      0.1605
     83  C          4.9250   -1.7820   15.5850 C.2   331  TRP331      0.2264
     84  O          4.7840   -0.6860   16.1420 O.2   331  TRP331     -0.2867
     85  CB         3.1780   -3.2920   16.4850 C.3   331  TRP331      0.0550
     86  CG         1.7190   -3.6330   16.3920 C.ar  331  TRP331      0.0003
     87  CD1        1.1770   -4.8340   16.0340 C.ar  331  TRP331      0.0946
     88  CD2        0.6260   -2.7500   16.6590 C.ar  331  TRP331      0.0152
     89  NE1       -0.2050   -4.7450   16.0470 N.ar  331  TRP331     -0.2442
     90  CE2       -0.5640   -3.4730   16.4240 C.ar  331  TRP331      0.0810
     91  CE3        0.5370   -1.4020   17.0490 C.ar  331  TRP331      0.0012
     92  CZ2       -1.8320   -2.9070   16.5990 C.ar  331  TRP331      0.0191
     93  CZ3       -0.7300   -0.8290   17.2070 C.ar  331  TRP331      0.0001
     94  CH2       -1.8960   -1.5790   16.9720 C.ar  331  TRP331      0.0015
     95  N          5.3380    2.1970   14.4890 N.3   334  LEU334     -0.1231
     96  CA         4.5720    3.1560   15.2760 C.3   334  LEU334      0.1693
     97  C          5.2140    3.3820   16.6470 C.2   334  LEU334      0.2592
     98  O          5.3490    4.5290   17.1050 O.2   334  LEU334     -0.2718
     99  CB         3.1300    2.6600   15.4080 C.3   334  LEU334      0.0284
    100  CG         2.0000    3.5910   15.8680 C.3   334  LEU334      0.0019
    101  CD1        2.0340    4.9440   15.1680 C.3   334  LEU334      0.0001
    102  CD2        0.6350    2.8900   15.6900 C.3   334  LEU334      0.0001
    103  N          5.6200    2.2980   17.3200 N.am  335  HIS335     -0.1976
    104  CA         6.2710    2.4500   18.6220 C.3   335  HIS335      0.1656
    105  C          7.5870    3.1990   18.5050 C.2   335  HIS335      0.2291
    106  O          7.9520    3.9780   19.3900 O.2   335  HIS335     -0.2864
    107  CB         6.5460    1.0910   19.2580 C.3   335  HIS335      0.0771
    108  CG         5.3250    0.3810   19.7360 C.ar  335  HIS335      0.0820
    109  ND1        4.5820    0.8190   20.8110 N.ar  335  HIS335     -0.2267
    110  CD2        4.7330   -0.7570   19.3020 C.ar  335  HIS335      0.1154
    111  CE1        3.5790   -0.0190   21.0160 C.ar  335  HIS335      0.1986
    112  NE2        3.6410   -0.9770   20.1050 N.ar  335  HIS335     -0.2212
    113  N          6.9800    6.8710   18.2430 N.3   338  ASN338     -0.1240
    114  CA         6.7060    7.4210   19.5670 C.3   338  ASN338      0.1653
    115  C          7.9950    7.6140   20.3600 C.2   338  ASN338      0.2266
    116  O          8.1440    8.6140   21.0810 O.2   338  ASN338     -0.2867
    117  CB         5.7210    6.5160   20.3260 C.3   338  ASN338      0.1155
    118  CG         4.2810    6.6010   19.7590 C.2   338  ASN338      0.2627
    119  OD1        3.9160    7.5770   19.1040 O.2   338  ASN338     -0.2716
    120  ND2        3.4740    5.5840   20.0250 N.am  338  ASN338     -0.0877
    121  N          8.8910   16.5830   14.6950 N.3   349  HIS349     -0.1226
    122  CA         7.9570   15.4690   14.8210 C.3   349  HIS349      0.1752
    123  C          7.8610   14.7210   13.4910 C.2   349  HIS349      0.2596
    124  O          7.8630   15.3370   12.4220 O.2   349  HIS349     -0.2718
    125  CB         6.5810   15.9990   15.2360 C.3   349  HIS349      0.0759
    126  CG         5.6660   14.9590   15.7970 C.ar  349  HIS349      0.0818
    127  ND1        5.2180   13.8830   15.0590 N.ar  349  HIS349     -0.2268
    128  CD2        5.1000   14.8390   17.0250 C.ar  349  HIS349      0.1154
    129  CE1        4.4270   13.1370   15.8130 C.ar  349  HIS349      0.1986
    130  NE2        4.3430   13.6940   17.0100 N.ar  349  HIS349     -0.2212
    131  N          7.8440   13.3910   13.5540 N.am  350  ALA350     -0.1966
    132  CA         7.5530   12.6120   12.3560 C.3   350  ALA350      0.1713
    133  C          6.3260   13.1930   11.6510 C.2   350  ALA350      0.2458
    134  O          5.3500   13.5640   12.3170 O.2   350  ALA350     -0.2730
    135  CB         7.2970   11.1460   12.7110 C.3   350  ALA350      0.0333
    136  N          6.3430   13.3040   10.3280 N.am  351  PRO351     -0.2716
    137  CA         5.2680   14.0210    9.6390 C.3   351  PRO351      0.1536
    138  C          3.9660   13.2320    9.6350 C.2   351  PRO351      0.2598
    139  O          3.9280   12.0150    9.8430 O.2   351  PRO351     -0.2715
    140  CB         5.8080   14.2240    8.2140 C.3   351  PRO351      0.0310
    141  CG         6.8570   13.1740    8.0240 C.3   351  PRO351      0.0237
    142  CD         7.4180   12.8630    9.4140 C.3   351  PRO351      0.0939
    143  N          2.8820   13.9740    9.4050 N.am  352  LEU352     -0.1978
    144  CA         1.5430   13.3980    9.4160 C.3   352  LEU352      0.1596
    145  C          1.4290   12.1930    8.4830 C.2   352  LEU352      0.2287
    146  O          0.8390   11.1710    8.8510 O.2   352  LEU352     -0.2864
    147  CB         0.5230   14.4780    9.0280 C.3   352  LEU352      0.0297
    148  CG        -0.9520   14.0830    8.9670 C.3   352  LEU352      0.0022
    149  CD1       -1.5700   14.3730   10.2890 C.3   352  LEU352      0.0001
    150  CD2       -1.6830   14.8550    7.8830 C.3   352  LEU352      0.0001
    151  N          3.0330    9.0970   10.0610 N.3   355  MET355     -0.1230
    152  CA         2.2360    8.5410   11.1460 C.3   355  MET355      0.1702
    153  C          1.0990    7.7130   10.5950 C.2   355  MET355      0.2592
    154  O          0.8090    6.6250   11.0990 O.2   355  MET355     -0.2718
    155  CB         1.6500    9.6390   12.0340 C.3   355  MET355      0.0401
    156  CG         2.6180   10.6720   12.4840 C.3   355  MET355      0.0596
    157  SD         3.5480   10.1500   13.9140 S.3   355  MET355     -0.1393
    158  CE         2.4520    9.0920   14.8590 C.3   355  MET355      0.0692
    159  N          0.3970    8.2410    9.5900 N.am  356  TYR356     -0.1976
    160  CA        -0.7450    7.4980    9.0850 C.3   356  TYR356      0.1639
    161  C         -0.2840    6.2330    8.3730 C.2   356  TYR356      0.2290
    162  O         -0.9600    5.2020    8.4620 O.2   356  TYR356     -0.2864
    163  CB        -1.6280    8.4180    8.2340 C.3   356  TYR356      0.0560
    164  CG        -2.4220    9.2930    9.1900 C.ar  356  TYR356     -0.0198
    165  CD1       -3.6210    8.8600    9.7160 C.ar  356  TYR356     -0.0009
    166  CD2       -1.9060   10.4790    9.6730 C.ar  356  TYR356     -0.0009
    167  CE1       -4.3310    9.6120   10.6300 C.ar  356  TYR356      0.0417
    168  CE2       -2.6090   11.2470   10.5960 C.ar  356  TYR356      0.0417
    169  CZ        -3.8220   10.8070   11.0680 C.ar  356  TYR356      0.1957
    170  OH        -4.5210   11.5610   11.9850 O.3   356  TYR356     -0.2866
    171  N          0.2700    3.8540   11.1900 N.3   359  ILE359     -0.1245
    172  CA        -0.9970    3.3940   11.7460 C.3   359  ILE359      0.1561
    173  C         -1.6290    2.3470   10.8380 C.2   359  ILE359      0.2260
    174  O         -2.1140    1.3110   11.3020 O.2   359  ILE359     -0.2867
    175  CB        -1.9380    4.5900   11.9810 C.3   359  ILE359      0.0252
    176  CG1       -1.3830    5.4830   13.1150 C.3   359  ILE359      0.0019
    177  CG2       -3.3880    4.1020   12.2740 C.3   359  ILE359      0.0019
    178  CD1       -2.0510    6.8630   13.2020 C.3   359  ILE359      0.0001
@<TRIPOS>BOND
     1   150   148    1
     2   141   140    1
     3   141   142    1
     4   140   137    1
     5   163   160    1
     6   163   164    1
     7   161   162    2
     8   161   160    1
     9   145   146    2
    10   145   144    1
    11   148   147    1
    12   148   149    1
    13   147   144    1
    14   160   159    1
    15   164   166   ar
    16   164   165   ar
    17   143   144    1
    18   143   138   am
    19   142   136    1
    20   159   153   am
    21   138   137    1
    22   138   139    2
    23   137   136    1
    24   166   168   ar
    25   165   167   ar
    26   151   152    1
    27   136   133   am
    28   153   154    2
    29   153   152    1
    30   168   169   ar
    31   167   169   ar
    32   173   174    2
    33   173   172    1
    34   169   170    1
    35   152   155    1
    36   171   172    1
    37   133   134    2
    38   133   132    1
    39   172   175    1
    40   175   177    1
    41   175   176    1
    42   155   156    1
    43   132   135    1
    44   132   131    1
    45   124   123    2
    46   156   157    1
    47   176   178    1
    48   123   131   am
    49   123   122    1
    50   157   158    1
    51    81    82    1
    52    95    96    1
    53   121   122    1
    54   122   125    1
    55   127   126   ar
    56   127   129   ar
    57     3     4    2
    58     3     2    1
    59   101   100    1
    60    82    83    1
    61    82    85    1
    62   125   126    1
    63    96    99    1
    64    96    97    1
    65    99   100    1
    66     1     2    1
    67    83    84    2
    68   102   100    1
    69   126   128   ar
    70   129   130   ar
    71    87    89   ar
    72    87    86   ar
    73    89    90   ar
    74     2     5    1
    75    36    34    1
    76     7     5    1
    77    86    85    1
    78    86    88   ar
    79    90    92   ar
    80    90    88   ar
    81    92    94   ar
    82    97    98    2
    83    97   103   am
    84    88    91   ar
    85    94    93   ar
    86   130   128   ar
    87    91    93   ar
    88     5     6    1
    89   103   104    1
    90    35    34    1
    91    34    33    1
    92    15    13    1
    93    56    54   ar
    94     6     8    1
    95   113   114    1
    96   105   104    1
    97   105   106    2
    98   104   107    1
    99    33    30    1
   100    54    55   ar
   101    54    53    1
   102    13    14    1
   103    13    10    1
   104   119   118    2
   105    30    29    1
   106    30    31    1
   107    41    42    1
   108    41    38    1
   109   107   108    1
   110   110   108   ar
   111   110   112   ar
   112    37    31   am
   113    37    38    1
   114   114   117    1
   115   114   115    1
   116    53    52    1
   117   108   109   ar
   118   118   120   am
   119   118   117    1
   120    42    43   ar
   121    42    44   ar
   122    31    32    2
   123   112   111   ar
   124    10    11    1
   125    10     9    1
   126    38    39    1
   127    43    45   ar
   128   115   116    2
   129    52    49    1
   130    44    46   ar
   131    48    39   am
   132    48    49    1
   133    28    25    1
   134    12    11    2
   135    25    24    1
   136    25    26    1
   137   109   111   ar
   138    45    47   ar
   139    11    16   am
   140    39    40    2
   141    46    47   ar
   142    64    63    1
   143    49    50    1
   144    27    26    2
   145    16    17    1
   146    23    21    1
   147    50    51    2
   148    72    71    1
   149    63    62    1
   150    17    18    1
   151    17    20    1
   152    21    20    1
   153    21    22    1
   154    18    19    2
   155    62    61    1
   156    79    78    2
   157    71    70    1
   158    70    69    1
   159    69    66    1
   160    68    67    2
   161    61    58    1
   162    78    80   am
   163    78    77    1
   164    67    66    1
   165    66    65    1
   166    58    57    1
   167    58    59    1
   168    76    75    2
   169    77    74    1
   170    75    74    1
   171    60    59    2
   172    74    73    1
