@<TRIPOS>MOLECULE
tmp/5iu7A25.pdb
 80 74 0 0 0
SMALL
GASTEIGER

@<TRIPOS>ATOM
      1  N         -6.3100  -20.2450   21.4840 N.3    48  PHE48      -0.1241
      2  CA        -5.5930  -18.9740   21.4740 C.3    48  PHE48       0.1605
      3  C         -5.5610  -18.3550   20.0800 C.2    48  PHE48       0.2264
      4  O         -5.6220  -17.1270   19.9470 O.2    48  PHE48      -0.2867
      5  CB        -4.1800  -19.1720   22.0150 C.3    48  PHE48       0.0534
      6  CG        -4.1460  -19.5930   23.4720 C.ar   48  PHE48      -0.0203
      7  CD1       -3.8410  -20.8880   23.8250 C.ar   48  PHE48      -0.0042
      8  CD2       -4.4450  -18.6800   24.4800 C.ar   48  PHE48      -0.0042
      9  CE1       -3.8210  -21.2780   25.1630 C.ar   48  PHE48      -0.0003
     10  CE2       -4.4240  -19.0630   25.8200 C.ar   48  PHE48      -0.0003
     11  CZ        -4.1160  -20.3610   26.1540 C.ar   48  PHE48      -0.0000
     12  N         -0.7950  -11.3280   24.4880 N.3    97  PHE97      -0.1241
     13  CA        -1.0480  -12.4460   25.3990 C.3    97  PHE97       0.1605
     14  C         -1.3320  -13.7380   24.6310 C.2    97  PHE97       0.2264
     15  O         -0.8360  -14.8100   25.0020 O.2    97  PHE97      -0.2867
     16  CB        -2.2220  -12.1280   26.3360 C.3    97  PHE97       0.0534
     17  CG        -1.8720  -11.1880   27.4740 C.ar   97  PHE97      -0.0203
     18  CD1       -2.6810  -10.1070   27.7740 C.ar   97  PHE97      -0.0042
     19  CD2       -0.7510  -11.4150   28.2650 C.ar   97  PHE97      -0.0042
     20  CE1       -2.3740   -9.2440   28.8080 C.ar   97  PHE97      -0.0003
     21  CE2       -0.4340  -10.5480   29.3280 C.ar   97  PHE97      -0.0003
     22  CZ        -1.2560   -9.4550   29.5860 C.ar   97  PHE97      -0.0000
     23  N          1.9550  -15.0400   23.1170 N.3   100  LEU100     -0.1231
     24  CA         2.8090  -15.6220   24.1460 C.3   100  LEU100      0.1693
     25  C          2.2700  -16.9720   24.6080 C.2   100  LEU100      0.2591
     26  O          3.0410  -17.9000   24.8690 O.2   100  LEU100     -0.2718
     27  CB         2.9370  -14.6490   25.3270 C.3   100  LEU100      0.0284
     28  CG         3.8220  -15.0600   26.5150 C.3   100  LEU100      0.0019
     29  CD1        5.2420  -15.3890   26.0570 C.3   100  LEU100      0.0001
     30  CD2        3.8370  -13.9680   27.6370 C.3   100  LEU100      0.0001
     31  N          0.9480  -17.0990   24.7090 N.am  101  ALA101     -0.1980
     32  CA         0.3570  -18.3760   25.0940 C.3   101  ALA101      0.1597
     33  C          0.6310  -19.4440   24.0470 C.2   101  ALA101      0.2287
     34  O          0.9100  -20.5960   24.3830 O.2   101  ALA101     -0.2864
     35  CB        -1.1460  -18.2130   25.3030 C.3   101  ALA101      0.0319
     36  N          4.2810  -20.6300   24.4280 N.3   104  ILE104     -0.1231
     37  CA         4.4260  -21.4790   25.6050 C.3   104  ILE104      0.1692
     38  C          3.7610  -22.8270   25.3730 C.2   104  ILE104      0.2592
     39  O          4.3210  -23.8750   25.7120 O.2   104  ILE104     -0.2718
     40  CB         3.8590  -20.7650   26.8500 C.3   104  ILE104      0.0266
     41  CG1        4.7140  -19.5340   27.1750 C.3   104  ILE104      0.0019
     42  CG2        3.8130  -21.7160   28.0630 C.3   104  ILE104      0.0020
     43  CD1        4.1340  -18.6340   28.2690 C.3   104  ILE104      0.0001
     44  N          2.5600  -22.8230   24.7860 N.am  105  ASP105     -0.1974
     45  CA         1.8830  -24.0800   24.4880 C.3   105  ASP105      0.1709
     46  C          2.7520  -24.9960   23.6300 C.2   105  ASP105      0.2293
     47  O          2.8390  -26.2060   23.8850 O.2   105  ASP105     -0.2864
     48  CB         0.5520  -23.8020   23.7900 C.3   105  ASP105      0.1436
     49  CG        -0.1400  -25.0710   23.3610 C.2   105  ASP105      0.3671
     50  OD1       -0.7340  -25.7410   24.2330 O.co2 105  ASP105     -0.2456
     51  OD2       -0.0690  -25.4150   22.1570 O.co2 105  ASP105     -0.2456
     52  N          5.6820  -26.4370   25.7950 N.3   108  ILE108     -0.1245
     53  CA         5.2680  -27.5670   26.6280 C.3   108  ILE108      0.1561
     54  C          5.1070  -28.8240   25.7790 C.2   108  ILE108      0.2260
     55  O          5.4690  -29.9320   26.2010 O.2   108  ILE108     -0.2867
     56  CB         3.9710  -27.2290   27.3810 C.3   108  ILE108      0.0252
     57  CG1        4.1860  -26.0350   28.3150 C.3   108  ILE108      0.0019
     58  CG2        3.4810  -28.4520   28.1640 C.3   108  ILE108      0.0019
     59  CD1        2.8930  -25.3990   28.8050 C.3   108  ILE108      0.0001
     60  N         -2.2310  -29.1420   29.8120 N.3   120  VAL120     -0.1245
     61  CA        -2.8170  -28.0920   28.9970 C.3   120  VAL120      0.1561
     62  C         -4.1650  -28.6110   28.5120 C.2   120  VAL120      0.2260
     63  O         -4.2360  -29.3850   27.5540 O.2   120  VAL120     -0.2867
     64  CB        -1.8960  -27.7120   27.8330 C.3   120  VAL120      0.0252
     65  CG1       -2.4010  -26.4760   27.1190 C.3   120  VAL120      0.0019
     66  CG2       -0.4700  -27.4870   28.3340 C.3   120  VAL120      0.0019
     67  N         -7.5230  -19.0620   31.0540 N.3   128  ILE128     -0.1245
     68  CA        -6.3930  -18.1870   30.7550 C.3   128  ILE128      0.1561
     69  C         -6.8050  -17.0990   29.7690 C.2   128  ILE128      0.2260
     70  O         -6.4510  -15.9230   29.9350 O.2   128  ILE128     -0.2867
     71  CB        -5.2120  -19.0130   30.2140 C.3   128  ILE128      0.0252
     72  CG1       -4.6370  -19.9030   31.3300 C.3   128  ILE128      0.0019
     73  CG2       -4.1510  -18.0980   29.6030 C.3   128  ILE128      0.0019
     74  CD1       -3.7970  -21.0550   30.7950 C.3   128  ILE128      0.0001
     75  N         -6.6350  -13.1270   30.4240 N.3   132  CYS132     -0.1235
     76  CA        -5.8150  -12.2760   29.5780 C.3   132  CYS132      0.1677
     77  C         -6.6220  -11.1320   28.9680 C.2   132  CYS132      0.2270
     78  O         -6.0870  -10.0290   28.8060 O.2   132  CYS132     -0.2867
     79  CB        -5.1520  -13.1200   28.4890 C.3   132  CYS132      0.0956
     80  SG        -3.8370  -14.1680   29.1740 S.3   132  CYS132     -0.0801
@<TRIPOS>BOND
     1     4     3    2
     2     3     2    1
     3     2     1    1
     4     2     5    1
     5     5     6    1
     6    51    49   ar
     7    23    24    1
     8    49    48    1
     9    49    50   ar
    10     6     7   ar
    11     6     8   ar
    12    46    47    2
    13    46    45    1
    14    48    45    1
    15     7     9   ar
    16    33    34    2
    17    33    32    1
    18    24    25    1
    19    24    27    1
    20    36    37    1
    21     8    10   ar
    22    12    13    1
    23    45    44    1
    24    25    31   am
    25    25    26    2
    26    14    15    2
    27    14    13    1
    28    31    32    1
    29    44    38   am
    30    32    35    1
    31     9    11   ar
    32    27    28    1
    33    38    37    1
    34    38    39    2
    35    13    16    1
    36    37    40    1
    37    54    55    2
    38    54    53    1
    39    52    53    1
    40    10    11   ar
    41    29    28    1
    42    16    17    1
    43    28    30    1
    44    53    56    1
    45    40    41    1
    46    40    42    1
    47    65    64    1
    48    41    43    1
    49    56    58    1
    50    56    57    1
    51    17    18   ar
    52    17    19   ar
    53    63    62    2
    54    18    20   ar
    55    64    66    1
    56    64    61    1
    57    19    21   ar
    58    57    59    1
    59    79    80    1
    60    79    76    1
    61    62    61    1
    62    78    77    2
    63    20    22   ar
    64    77    76    1
    65    61    60    1
    66    21    22   ar
    67    76    75    1
    68    73    71    1
    69    69    70    2
    70    69    68    1
    71    71    68    1
    72    71    72    1
    73    68    67    1
    74    74    72    1
