@<TRIPOS>MOLECULE
tmp/5iu7A09.pdb
 98 91 0 0 0
SMALL
GASTEIGER

@<TRIPOS>ATOM
      1  N          7.4150   -4.8030   24.2930 N.3   191  LEU191     -0.1245
      2  CA         8.7730   -5.2420   23.9900 C.3   191  LEU191      0.1561
      3  C          9.1980   -6.4090   24.8810 C.2   191  LEU191      0.2260
      4  O          9.7380   -7.4100   24.3920 O.2   191  LEU191     -0.2867
      5  CB         9.7340   -4.0610   24.1230 C.3   191  LEU191      0.0270
      6  CG        11.1090   -4.1590   23.4820 C.3   191  LEU191      0.0019
      7  CD1       11.0270   -4.7620   22.0560 C.3   191  LEU191      0.0001
      8  CD2       11.7290   -2.7650   23.4510 C.3   191  LEU191      0.0001
      9  N          7.4790   -9.6280   23.7640 N.3   194  LEU194     -0.1231
     10  CA         8.0190  -10.0980   22.4900 C.3   194  LEU194      0.1693
     11  C          9.4030  -10.7280   22.6800 C.2   194  LEU194      0.2591
     12  O          9.7030  -11.7730   22.0950 O.2   194  LEU194     -0.2718
     13  CB         8.0680   -8.9430   21.4900 C.3   194  LEU194      0.0284
     14  CG         6.7190   -8.4410   20.9410 C.3   194  LEU194      0.0019
     15  CD1        6.9500   -7.1700   20.0770 C.3   194  LEU194      0.0001
     16  CD2        6.0200   -9.5220   20.1080 C.3   194  LEU194      0.0001
     17  N         10.2500  -10.1210   23.5180 N.am  195  LEU195     -0.1980
     18  CA        11.5620  -10.7140   23.7920 C.3   195  LEU195      0.1596
     19  C         11.4220  -12.0440   24.5250 C.2   195  LEU195      0.2287
     20  O         12.1750  -12.9950   24.2570 O.2   195  LEU195     -0.2864
     21  CB        12.4170   -9.7330   24.5920 C.3   195  LEU195      0.0297
     22  CG        12.9030   -8.4720   23.8460 C.3   195  LEU195      0.0022
     23  CD1       13.5760   -7.4600   24.7820 C.3   195  LEU195      0.0001
     24  CD2       13.8610   -8.8410   22.7010 C.3   195  LEU195      0.0001
     25  N          8.8380  -14.0890   24.1110 N.3   197  MET197     -0.1230
     26  CA         8.4380  -15.0120   23.0510 C.3   197  MET197      0.1702
     27  C          9.6470  -15.4980   22.2710 C.2   197  MET197      0.2592
     28  O          9.7510  -16.6830   21.9340 O.2   197  MET197     -0.2718
     29  CB         7.4730  -14.3400   22.0690 C.3   197  MET197      0.0401
     30  CG         6.0760  -14.1920   22.5140 C.3   197  MET197      0.0596
     31  SD         5.1760  -13.2550   21.2560 S.3   197  MET197     -0.1393
     32  CE         4.3150  -12.1200   22.3770 C.3   197  MET197      0.0692
     33  N         10.5370  -14.5740   21.9160 N.am  198  LEU198     -0.1980
     34  CA        11.7520  -14.9430   21.2010 C.3   198  LEU198      0.1596
     35  C         12.5400  -15.9840   21.9840 C.2   198  LEU198      0.2287
     36  O         12.9980  -16.9790   21.4200 O.2   198  LEU198     -0.2864
     37  CB        12.5950  -13.6930   20.9380 C.3   198  LEU198      0.0297
     38  CG        13.9790  -13.9420   20.3550 C.3   198  LEU198      0.0022
     39  CD1       13.8430  -14.6260   18.9930 C.3   198  LEU198      0.0001
     40  CD2       14.7580  -12.6360   20.2480 C.3   198  LEU198      0.0001
     41  N         10.7190  -19.3390   21.6950 N.3   201  TYR201     -0.1227
     42  CA        10.9340  -19.9770   20.3930 C.3   201  TYR201      0.1736
     43  C         12.3550  -20.5130   20.2520 C.2   201  TYR201      0.2595
     44  O         12.5580  -21.5940   19.6870 O.2   201  TYR201     -0.2718
     45  CB        10.6010  -19.0170   19.2380 C.3   201  TYR201      0.0548
     46  CG         9.1050  -18.9930   19.0070 C.ar  201  TYR201     -0.0200
     47  CD1        8.4360  -20.1530   18.6260 C.ar  201  TYR201     -0.0009
     48  CD2        8.3520  -17.8430   19.2420 C.ar  201  TYR201     -0.0009
     49  CE1        7.0700  -20.1720   18.4610 C.ar  201  TYR201      0.0417
     50  CE2        6.9680  -17.8480   19.0650 C.ar  201  TYR201      0.0417
     51  CZ         6.3390  -19.0170   18.6800 C.ar  201  TYR201      0.1957
     52  OH         4.9720  -19.0480   18.5150 O.3   201  TYR201     -0.2866
     53  N         13.3500  -19.7740   20.7420 N.am  202  LEU202     -0.1980
     54  CA        14.7160  -20.2990   20.7540 C.3   202  LEU202      0.1596
     55  C         14.7960  -21.6160   21.5130 C.2   202  LEU202      0.2287
     56  O         15.4740  -22.5530   21.0760 O.2   202  LEU202     -0.2864
     57  CB        15.6760  -19.2770   21.3760 C.3   202  LEU202      0.0297
     58  CG        15.8970  -18.0110   20.5410 C.3   202  LEU202      0.0022
     59  CD1       16.8750  -17.0300   21.2210 C.3   202  LEU202      0.0001
     60  CD2       16.3850  -18.3780   19.1130 C.3   202  LEU202      0.0001
     61  N         13.1110  -24.5080   19.3590 N.3   205  PHE205     -0.1241
     62  CA        13.9470  -25.0110   18.2760 C.3   205  PHE205      0.1605
     63  C         15.1830  -25.7280   18.8070 C.2   205  PHE205      0.2264
     64  O         15.5990  -26.7450   18.2320 O.2   205  PHE205     -0.2867
     65  CB        14.2980  -23.8570   17.3260 C.3   205  PHE205      0.0534
     66  CG        13.0950  -23.3160   16.5850 C.ar  205  PHE205     -0.0203
     67  CD1       12.7290  -21.9850   16.6840 C.ar  205  PHE205     -0.0042
     68  CD2       12.3110  -24.1640   15.8070 C.ar  205  PHE205     -0.0042
     69  CE1       11.6030  -21.5020   16.0080 C.ar  205  PHE205     -0.0003
     70  CE2       11.1920  -23.6930   15.1310 C.ar  205  PHE205     -0.0003
     71  CZ        10.8300  -22.3610   15.2380 C.ar  205  PHE205     -0.0000
     72  N          5.8620  -18.7950   15.0110 N.3   321  ALA321     -0.1245
     73  CA         6.8730  -17.7490   15.1620 C.3   321  ALA321      0.1562
     74  C          6.7660  -16.7010   14.0560 C.2   321  ALA321      0.2260
     75  O          7.0270  -15.5150   14.2920 O.2   321  ALA321     -0.2867
     76  CB         8.2780  -18.3590   15.1830 C.3   321  ALA321      0.0290
     77  N          4.0960  -14.2870   15.1560 N.3   324  ALA324     -0.1231
     78  CA         4.6000  -13.3850   16.1900 C.3   324  ALA324      0.1694
     79  C          5.5840  -12.3700   15.6110 C.2   324  ALA324      0.2592
     80  O          5.5600  -11.1930   15.9850 O.2   324  ALA324     -0.2718
     81  CB         5.2640  -14.1850   17.3190 C.3   324  ALA324      0.0304
     82  N          6.4470  -12.8030   14.6880 N.am  325  GLY325     -0.1957
     83  CA         7.3790  -11.8690   14.0700 C.3   325  GLY325      0.1869
     84  C          6.6790  -10.8210   13.2210 C.2   325  GLY325      0.2309
     85  O          7.0980   -9.6610   13.1750 O.2   325  GLY325     -0.2863
     86  N          5.3200   -8.1060   15.3950 N.3   328  ALA328     -0.1245
     87  CA         6.3900   -7.1700   15.7460 C.3   328  ALA328      0.1562
     88  C          6.7370   -6.2430   14.5740 C.2   328  ALA328      0.2260
     89  O          6.9000   -5.0310   14.7570 O.2   328  ALA328     -0.2867
     90  CB         7.6290   -7.9530   16.1970 C.3   328  ALA328      0.0290
     91  N          6.1190   -2.3060   15.3270 N.3   332  LEU332     -0.1245
     92  CA         7.3270   -1.6000   15.7460 C.3   332  LEU332      0.1561
     93  C          7.4610   -0.2060   15.1480 C.2   332  LEU332      0.2260
     94  O          7.8880    0.7030   15.8840 O.2   332  LEU332     -0.2867
     95  CB         8.5730   -2.4440   15.4240 C.3   332  LEU332      0.0270
     96  CG         8.9740   -3.4490   16.5150 C.3   332  LEU332      0.0019
     97  CD1       10.1420   -4.3700   16.0190 C.3   332  LEU332      0.0001
     98  CD2        9.3600   -2.7290   17.8170 C.3   332  LEU332      0.0001
@<TRIPOS>BOND
     1    85    84    2
     2    84    83    1
     3    74    75    2
     4    74    73    1
     5    83    82    1
     6    88    89    2
     7    88    87    1
     8    82    79   am
     9    72    73    1
    10    70    71   ar
    11    70    68   ar
    12    93    92    1
    13    93    94    2
    14    77    78    1
    15    73    76    1
    16    71    69   ar
    17    91    92    1
    18    86    87    1
    19    95    92    1
    20    95    96    1
    21    79    80    2
    22    79    78    1
    23    87    90    1
    24    68    66   ar
    25    69    67   ar
    26    97    96    1
    27    78    81    1
    28    96    98    1
    29    66    67   ar
    30    66    65    1
    31    65    62    1
    32    64    63    2
    33    62    63    1
    34    62    61    1
    35    49    47   ar
    36    49    51   ar
    37    52    51    1
    38    47    46   ar
    39    51    50   ar
    40    39    38    1
    41    46    45    1
    42    46    48   ar
    43    50    48   ar
    44    60    58    1
    45    45    42    1
    46    44    43    2
    47    15    14    1
    48    16    14    1
    49    40    38    1
    50    43    42    1
    51    43    53   am
    52    38    37    1
    53    42    41    1
    54    58    59    1
    55    58    57    1
    56    53    54    1
    57    54    57    1
    58    54    55    1
    59    37    34    1
    60    14    13    1
    61    56    55    2
    62    34    33    1
    63    34    35    1
    64    31    32    1
    65    31    30    1
    66    36    35    2
    67    13    10    1
    68    33    27   am
    69    28    27    2
    70     7     6    1
    71    29    30    1
    72    29    26    1
    73    12    11    2
    74    27    26    1
    75    10    11    1
    76    10     9    1
    77    11    17   am
    78    24    22    1
    79    26    25    1
    80     8     6    1
    81     6     5    1
    82    17    18    1
    83    18    19    1
    84    18    21    1
    85    22    21    1
    86    22    23    1
    87     2     5    1
    88     2     1    1
    89     2     3    1
    90    20    19    2
    91     4     3    2
