@<TRIPOS>MOLECULE
tmp/5iu8A11.pdb
 98 91 0 0 0
SMALL
GASTEIGER

@<TRIPOS>ATOM
      1  N        -12.2670   -4.7370   24.3160 N.3   189  LEU189     -0.1245
      2  CA       -10.9040   -5.1510   24.0050 C.3   189  LEU189      0.1561
      3  C        -10.4660   -6.3250   24.8740 C.2   189  LEU189      0.2260
      4  O         -9.9100   -7.3060   24.3680 O.2   189  LEU189     -0.2867
      5  CB        -9.9540   -3.9650   24.1670 C.3   189  LEU189      0.0270
      6  CG        -8.5210   -4.1590   23.6720 C.3   189  LEU189      0.0019
      7  CD1       -8.5180   -4.7270   22.2610 C.3   189  LEU189      0.0001
      8  CD2       -7.7760   -2.8390   23.7170 C.3   189  LEU189      0.0001
      9  N        -12.1850   -9.6000   23.8520 N.3   192  LEU192     -0.1231
     10  CA       -11.6440  -10.0460   22.5690 C.3   192  LEU192      0.1693
     11  C        -10.2550  -10.6510   22.7370 C.2   192  LEU192      0.2591
     12  O         -9.9210  -11.6450   22.0810 O.2   192  LEU192     -0.2718
     13  CB       -11.6090   -8.8830   21.5750 C.3   192  LEU192      0.0284
     14  CG       -12.9470   -8.4460   20.9720 C.3   192  LEU192      0.0019
     15  CD1      -12.7740   -7.1830   20.1390 C.3   192  LEU192      0.0001
     16  CD2      -13.5560   -9.5610   20.1330 C.3   192  LEU192      0.0001
     17  N         -9.4320  -10.0680   23.6130 N.am  193  LEU193     -0.1980
     18  CA        -8.1210  -10.6480   23.8880 C.3   193  LEU193      0.1596
     19  C         -8.2520  -11.9780   24.6180 C.2   193  LEU193      0.2287
     20  O         -7.4550  -12.8980   24.3960 O.2   193  LEU193     -0.2864
     21  CB        -7.2710   -9.6680   24.6960 C.3   193  LEU193      0.0297
     22  CG        -6.8930   -8.3620   23.9910 C.3   193  LEU193      0.0022
     23  CD1       -6.1610   -7.4220   24.9400 C.3   193  LEU193      0.0001
     24  CD2       -6.0550   -8.6410   22.7510 C.3   193  LEU193      0.0001
     25  N        -10.7650  -14.0400   24.1390 N.3   195  MET195     -0.1230
     26  CA       -11.1350  -14.9600   23.0670 C.3   195  MET195      0.1702
     27  C         -9.9050  -15.4350   22.3090 C.2   195  MET195      0.2592
     28  O         -9.7660  -16.6270   22.0100 O.2   195  MET195     -0.2718
     29  CB       -12.1170  -14.2920   22.1060 C.3   195  MET195      0.0401
     30  CG       -13.4670  -13.9590   22.6980 C.3   195  MET195      0.0596
     31  SD       -14.5260  -13.1950   21.4550 S.3   195  MET195     -0.1393
     32  CE       -15.4710  -12.0660   22.4800 C.3   195  MET195      0.0692
     33  N         -9.0050  -14.5060   21.9750 N.am  196  LEU196     -0.1980
     34  CA        -7.7610  -14.8790   21.3130 C.3   196  LEU196      0.1596
     35  C         -6.9910  -15.9040   22.1340 C.2   196  LEU196      0.2287
     36  O         -6.4710  -16.8840   21.5880 O.2   196  LEU196     -0.2864
     37  CB        -6.9070  -13.6350   21.0660 C.3   196  LEU196      0.0297
     38  CG        -5.5170  -13.8630   20.4680 C.3   196  LEU196      0.0022
     39  CD1       -5.6230  -14.5160   19.0990 C.3   196  LEU196      0.0001
     40  CD2       -4.7510  -12.5500   20.3840 C.3   196  LEU196      0.0001
     41  N         -8.7780  -19.3160   21.8500 N.3   199  TYR199     -0.1227
     42  CA        -8.5710  -19.9730   20.5620 C.3   199  TYR199      0.1736
     43  C         -7.1410  -20.4710   20.4010 C.2   199  TYR199      0.2595
     44  O         -6.9210  -21.5100   19.7700 O.2   199  TYR199     -0.2718
     45  CB        -8.9490  -19.0330   19.4160 C.3   199  TYR199      0.0548
     46  CG       -10.4440  -18.9170   19.2330 C.ar  199  TYR199     -0.0200
     47  CD1      -11.2000  -20.0210   18.8580 C.ar  199  TYR199     -0.0009
     48  CD2      -11.1020  -17.7130   19.4480 C.ar  199  TYR199     -0.0009
     49  CE1      -12.5670  -19.9290   18.6990 C.ar  199  TYR199      0.0417
     50  CE2      -12.4710  -17.6120   19.2910 C.ar  199  TYR199      0.0417
     51  CZ       -13.1980  -18.7230   18.9160 C.ar  199  TYR199      0.1957
     52  OH       -14.5610  -18.6300   18.7590 O.3   199  TYR199     -0.2866
     53  N         -6.1610  -19.7550   20.9590 N.am  200  LEU200     -0.1980
     54  CA        -4.7950  -20.2700   20.9660 C.3   200  LEU200      0.1596
     55  C         -4.7120  -21.5860   21.7290 C.2   200  LEU200      0.2287
     56  O         -4.0060  -22.5110   21.3120 O.2   200  LEU200     -0.2864
     57  CB        -3.8410  -19.2380   21.5710 C.3   200  LEU200      0.0297
     58  CG        -3.5490  -17.9890   20.7350 C.3   200  LEU200      0.0022
     59  CD1       -2.6750  -17.0120   21.5100 C.3   200  LEU200      0.0001
     60  CD2       -2.8940  -18.3660   19.4130 C.3   200  LEU200      0.0001
     61  N         -6.4740  -24.4950   19.4630 N.3   203  PHE203     -0.1241
     62  CA        -5.6680  -25.0100   18.3620 C.3   203  PHE203      0.1605
     63  C         -4.4080  -25.7060   18.8610 C.2   203  PHE203      0.2264
     64  O         -3.9490  -26.6700   18.2380 O.2   203  PHE203     -0.2867
     65  CB        -5.3210  -23.8730   17.4000 C.3   203  PHE203      0.0534
     66  CG        -6.5210  -23.2760   16.7180 C.ar  203  PHE203     -0.0203
     67  CD1       -7.4640  -24.0900   16.1100 C.ar  203  PHE203     -0.0042
     68  CD2       -6.7150  -21.9060   16.6990 C.ar  203  PHE203     -0.0042
     69  CE1       -8.5720  -23.5470   15.4870 C.ar  203  PHE203     -0.0003
     70  CE2       -7.8230  -21.3560   16.0800 C.ar  203  PHE203     -0.0003
     71  CZ        -8.7530  -22.1780   15.4730 C.ar  203  PHE203     -0.0000
     72  N        -13.7750  -18.7980   15.2670 N.3   318  ALA318     -0.1245
     73  CA       -12.7560  -17.7570   15.3500 C.3   318  ALA318      0.1562
     74  C        -12.9200  -16.7160   14.2490 C.2   318  ALA318      0.2260
     75  O        -12.6230  -15.5350   14.4660 O.2   318  ALA318     -0.2867
     76  CB       -11.3610  -18.3770   15.2910 C.3   318  ALA318      0.0290
     77  N        -15.5500  -14.2250   15.3730 N.3   321  ALA321     -0.1231
     78  CA       -15.0190  -13.2900   16.3600 C.3   321  ALA321      0.1694
     79  C        -14.0530  -12.2990   15.7220 C.2   321  ALA321      0.2592
     80  O        -14.0440  -11.1160   16.0800 O.2   321  ALA321     -0.2718
     81  CB       -14.3360  -14.0550   17.4930 C.3   321  ALA321      0.0304
     82  N        -13.2340  -12.7610   14.7750 N.am  322  GLY322     -0.1957
     83  CA       -12.3150  -11.8570   14.1030 C.3   322  GLY322      0.1869
     84  C        -13.0300  -10.8290   13.2460 C.2   322  GLY322      0.2309
     85  O        -12.6130   -9.6700   13.1740 O.2   322  GLY322     -0.2863
     86  N        -14.3260   -8.0870   15.4340 N.3   325  ALA325     -0.1245
     87  CA       -13.2590   -7.1500   15.7650 C.3   325  ALA325      0.1562
     88  C        -12.9360   -6.2390   14.5870 C.2   325  ALA325      0.2260
     89  O        -12.7570   -5.0290   14.7610 O.2   325  ALA325     -0.2867
     90  CB       -12.0120   -7.9130   16.2170 C.3   325  ALA325      0.0290
     91  N        -13.5410   -2.3310   15.3570 N.3   329  LEU329     -0.1245
     92  CA       -12.3200   -1.6390   15.7690 C.3   329  LEU329      0.1561
     93  C        -12.1580   -0.2480   15.1640 C.2   329  LEU329      0.2260
     94  O        -11.7310    0.6590   15.9010 O.2   329  LEU329     -0.2867
     95  CB       -11.0930   -2.5040   15.4550 C.3   329  LEU329      0.0270
     96  CG       -10.6890   -3.5110   16.5350 C.3   329  LEU329      0.0019
     97  CD1       -9.5640   -4.4110   16.0400 C.3   329  LEU329      0.0001
     98  CD2      -10.2870   -2.7930   17.8160 C.3   329  LEU329      0.0001
@<TRIPOS>BOND
     1    85    84    2
     2    84    83    1
     3    83    82    1
     4    74    75    2
     5    74    73    1
     6    88    89    2
     7    88    87    1
     8    82    79   am
     9    93    92    1
    10    93    94    2
    11    72    73    1
    12    76    73    1
    13    91    92    1
    14    77    78    1
    15    86    87    1
    16    95    92    1
    17    95    96    1
    18    71    69   ar
    19    71    70   ar
    20    69    67   ar
    21    79    80    2
    22    79    78    1
    23    87    90    1
    24    97    96    1
    25    70    68   ar
    26    67    66   ar
    27    78    81    1
    28    96    98    1
    29    68    66   ar
    30    66    65    1
    31    65    62    1
    32    64    63    2
    33    62    63    1
    34    62    61    1
    35    49    47   ar
    36    49    51   ar
    37    52    51    1
    38    47    46   ar
    39    51    50   ar
    40    39    38    1
    41    46    45    1
    42    46    48   ar
    43    50    48   ar
    44    60    58    1
    45    45    42    1
    46    44    43    2
    47    16    14    1
    48    15    14    1
    49    40    38    1
    50    43    42    1
    51    43    53   am
    52    38    37    1
    53    42    41    1
    54    58    59    1
    55    58    57    1
    56    53    54    1
    57    54    57    1
    58    54    55    1
    59    14    13    1
    60    37    34    1
    61    56    55    2
    62    34    33    1
    63    34    35    1
    64    31    32    1
    65    31    30    1
    66    13    10    1
    67    36    35    2
    68    33    27   am
    69    28    27    2
    70    12    11    2
    71    29    30    1
    72    29    26    1
    73     7     6    1
    74    27    26    1
    75    10    11    1
    76    10     9    1
    77    11    17   am
    78    24    22    1
    79    26    25    1
    80    17    18    1
    81     6     8    1
    82     6     5    1
    83    18    19    1
    84    18    21    1
    85    22    21    1
    86    22    23    1
    87     2     5    1
    88     2     1    1
    89     2     3    1
    90     4     3    2
    91    20    19    2
