@<TRIPOS>MOLECULE
tmp/5iu8A08.pdb
 79 73 0 0 0
SMALL
GASTEIGER

@<TRIPOS>ATOM
      1  N        -27.9330    3.6260    2.8180 N.3    14  VAL14      -0.1245
      2  CA       -27.0150    2.5250    3.0970 C.3    14  VAL14       0.1561
      3  C        -27.4040    1.8190    4.3910 C.2    14  VAL14       0.2260
      4  O        -27.4070    0.5840    4.4640 O.2    14  VAL14      -0.2867
      5  CB       -25.5640    3.0410    3.1430 C.3    14  VAL14       0.0252
      6  CG1      -24.6230    1.9590    3.6560 C.3    14  VAL14       0.0019
      7  CG2      -25.1310    3.5240    1.7640 C.3    14  VAL14       0.0019
      8  N        -30.3850   -0.3880    3.7830 N.3    17  ALA17      -0.1231
      9  CA       -29.9690   -1.5780    3.0460 C.3    17  ALA17       0.1694
     10  C        -29.2920   -2.5850    3.9680 C.2    17  ALA17       0.2591
     11  O        -29.5230   -3.7950    3.8550 O.2    17  ALA17      -0.2718
     12  CB       -29.0380   -1.1840    1.9000 C.3    17  ALA17       0.0304
     13  N        -28.4540   -2.1050    4.8880 N.am   18  ILE18      -0.1980
     14  CA       -27.8150   -2.9970    5.8510 C.3    18  ILE18       0.1595
     15  C        -28.8540   -3.6200    6.7730 C.2    18  ILE18       0.2287
     16  O        -28.7780   -4.8110    7.1030 O.2    18  ILE18      -0.2864
     17  CB       -26.7410   -2.2350    6.6460 C.3    18  ILE18       0.0276
     18  CG1      -25.6150   -1.7830    5.7190 C.3    18  ILE18       0.0022
     19  CG2      -26.1940   -3.0920    7.7870 C.3    18  ILE18       0.0022
     20  CD1      -24.6740   -0.8180    6.3740 C.3    18  ILE18       0.0001
     21  N        -30.7210   -6.5410    5.1060 N.3    21  LEU21      -0.1245
     22  CA       -29.8740   -7.7190    4.9540 C.3    21  LEU21       0.1561
     23  C        -29.5570   -8.3670    6.2970 C.2    21  LEU21       0.2260
     24  O        -29.4480   -9.5950    6.3790 O.2    21  LEU21      -0.2867
     25  CB       -28.5810   -7.3470    4.2290 C.3    21  LEU21       0.0270
     26  CG       -28.7390   -6.8350    2.7940 C.3    21  LEU21       0.0019
     27  CD1      -27.4100   -6.3150    2.2640 C.3    21  LEU21       0.0001
     28  CD2      -29.2920   -7.9290    1.8880 C.3    21  LEU21       0.0001
     29  N        -21.3330    2.6100    9.5370 N.3   357  VAL357     -0.1245
     30  CA       -21.8800    1.6530    8.5800 C.3   357  VAL357      0.1561
     31  C        -21.1190    0.3360    8.6450 C.2   357  VAL357      0.2260
     32  O        -21.7160   -0.7480    8.6150 O.2   357  VAL357     -0.2867
     33  CB       -21.8530    2.2630    7.1640 C.3   357  VAL357      0.0252
     34  CG1      -21.7980    1.1810    6.0990 C.3   357  VAL357      0.0019
     35  CG2      -23.0580    3.1720    6.9550 C.3   357  VAL357      0.0019
     36  N        -22.4660   -3.4030    9.3520 N.3   361  THR361     -0.1218
     37  CA       -22.3090   -4.4680    8.3680 C.3   361  THR361      0.1862
     38  C        -21.9870   -5.8080    9.0200 C.2   361  THR361      0.2287
     39  O        -22.2970   -6.8570    8.4450 O.2   361  THR361     -0.2866
     40  CB       -21.2170   -4.0800    7.3660 C.3   361  THR361      0.1770
     41  OG1      -21.5330   -2.8070    6.7870 O.3   361  THR361     -0.2211
     42  CG2      -21.0950   -5.1090    6.2560 C.3   361  THR361      0.0375
     43  N        -24.5120   -8.5050    9.1400 N.3   364  VAL364     -0.1231
     44  CA       -24.8760   -9.1770    7.8970 C.3   364  VAL364      0.1692
     45  C        -23.9960  -10.3920    7.6100 C.2   364  VAL364      0.2591
     46  O        -24.4460  -11.3160    6.9150 O.2   364  VAL364     -0.2718
     47  CB       -24.8180   -8.1850    6.7110 C.3   364  VAL364      0.0266
     48  CG1      -25.3240   -8.8250    5.4160 C.3   364  VAL364      0.0020
     49  CG2      -25.6120   -6.9270    7.0280 C.3   364  VAL364      0.0020
     50  N        -22.7740  -10.4360    8.1470 N.am  365  VAL365     -0.1980
     51  CA       -21.7750  -11.3710    7.6330 C.3   365  VAL365      0.1595
     52  C        -21.9340  -12.7830    8.1960 C.2   365  VAL365      0.2287
     53  O        -21.6280  -13.7570    7.5010 O.2   365  VAL365     -0.2864
     54  CB       -20.3590  -10.8290    7.8980 C.3   365  VAL365      0.0276
     55  CG1      -20.1600   -9.4960    7.1940 C.3   365  VAL365      0.0022
     56  CG2      -20.1000  -10.6970    9.3910 C.3   365  VAL365      0.0022
     57  N        -23.4730  -15.6870    6.2430 N.3   368  PHE368     -0.1241
     58  CA       -22.6520  -16.1240    5.1180 C.3   368  PHE368      0.1605
     59  C        -21.5470  -17.0670    5.5710 C.2   368  PHE368      0.2264
     60  O        -21.2220  -18.0320    4.8690 O.2   368  PHE368     -0.2867
     61  CB       -22.0650  -14.9140    4.3940 C.3   368  PHE368      0.0534
     62  CG       -23.0620  -14.1680    3.5610 C.ar  368  PHE368     -0.0203
     63  CD1      -23.8300  -13.1560    4.1130 C.ar  368  PHE368     -0.0042
     64  CD2      -23.2380  -14.4860    2.2250 C.ar  368  PHE368     -0.0042
     65  CE1      -24.7530  -12.4720    3.3450 C.ar  368  PHE368     -0.0003
     66  CE2      -24.1590  -13.8070    1.4520 C.ar  368  PHE368     -0.0003
     67  CZ       -24.9170  -12.7990    2.0130 C.ar  368  PHE368     -0.0000
     68  N        -21.1080  -20.8840    4.1770 N.3   372  TYR372     -0.1241
     69  CA       -19.9200  -21.3210    3.4530 C.3   372  TYR372      0.1605
     70  C        -19.1210  -22.3770    4.2090 C.2   372  TYR372      0.2264
     71  O        -18.4150  -23.1720    3.5800 O.2   372  TYR372     -0.2867
     72  CB       -19.0230  -20.1210    3.1390 C.3   372  TYR372      0.0534
     73  CG       -19.4130  -19.3790    1.8810 C.ar  372  TYR372     -0.0201
     74  CD1      -19.1060  -19.8930    0.6270 C.ar  372  TYR372     -0.0009
     75  CD2      -20.0830  -18.1640    1.9440 C.ar  372  TYR372     -0.0009
     76  CE1      -19.4590  -19.2220   -0.5270 C.ar  372  TYR372      0.0417
     77  CE2      -20.4390  -17.4830    0.7940 C.ar  372  TYR372      0.0417
     78  CZ       -20.1240  -18.0180   -0.4390 C.ar  372  TYR372      0.1957
     79  OH       -20.4760  -17.3470   -1.5880 O.3   372  TYR372     -0.2866
@<TRIPOS>BOND
     1    79    78    1
     2    76    78   ar
     3    76    74   ar
     4    78    77   ar
     5    74    73   ar
     6    77    75   ar
     7    66    67   ar
     8    66    64   ar
     9     7     5    1
    10    73    75   ar
    11    73    72    1
    12    28    26    1
    13    12     9    1
    14    67    65   ar
    15    64    62   ar
    16    27    26    1
    17    26    25    1
    18     1     2    1
    19     9     8    1
    20     9    10    1
    21     2     5    1
    22     2     3    1
    23    72    69    1
    24     5     6    1
    25    65    63   ar
    26    69    68    1
    27    69    70    1
    28    62    63   ar
    29    62    61    1
    30    71    70    2
    31    11    10    2
    32    10    13   am
    33    25    22    1
    34     3     4    2
    35    61    58    1
    36    60    59    2
    37    13    14    1
    38    22    21    1
    39    22    23    1
    40    58    59    1
    41    58    57    1
    42    48    47    1
    43    18    20    1
    44    18    17    1
    45    14    17    1
    46    14    15    1
    47    34    33    1
    48    42    40    1
    49    23    24    2
    50    17    19    1
    51    47    49    1
    52    47    44    1
    53    15    16    2
    54    41    40    1
    55    46    45    2
    56    35    33    1
    57    33    30    1
    58    55    54    1
    59    40    37    1
    60    53    52    2
    61    45    44    1
    62    45    50   am
    63    51    54    1
    64    51    50    1
    65    51    52    1
    66    44    43    1
    67    54    56    1
    68    37    38    1
    69    37    36    1
    70    39    38    2
    71    30    31    1
    72    30    29    1
    73    32    31    2
