@<TRIPOS>MOLECULE
tmp/5iu8A16.pdb
 128 122 0 0 0
SMALL
GASTEIGER

@<TRIPOS>ATOM
      1  N        -27.0150  -22.4210   20.2980 N.3    45  TYR45      -0.1241
      2  CA       -27.8940  -21.5830   21.1060 C.3    45  TYR45       0.1605
      3  C        -27.2920  -20.1960   21.2940 C.2    45  TYR45       0.2264
      4  O        -28.0120  -19.1910   21.2710 O.2    45  TYR45      -0.2867
      5  CB       -28.1700  -22.2550   22.4490 C.3    45  TYR45       0.0534
      6  CG       -28.8560  -23.5960   22.3090 C.ar   45  TYR45      -0.0201
      7  CD1      -29.6990  -23.8570   21.2350 C.ar   45  TYR45      -0.0009
      8  CD2      -28.6520  -24.6040   23.2410 C.ar   45  TYR45      -0.0009
      9  CE1      -30.3240  -25.0820   21.0980 C.ar   45  TYR45       0.0417
     10  CE2      -29.2720  -25.8320   23.1120 C.ar   45  TYR45       0.0417
     11  CZ       -30.1070  -26.0660   22.0390 C.ar   45  TYR45       0.1957
     12  OH       -30.7270  -27.2870   21.9060 O.3    45  TYR45      -0.2866
     13  N        -27.7640  -18.4700   18.0390 N.3    48  VAL48      -0.1231
     14  CA       -29.0910  -17.8670   17.9420 C.3    48  VAL48       0.1692
     15  C        -29.1460  -16.5590   18.7240 C.2    48  VAL48       0.2592
     16  O        -29.6970  -15.5590   18.2470 O.2    48  VAL48      -0.2718
     17  CB       -30.1640  -18.8620   18.4170 C.3    48  VAL48       0.0266
     18  CG1      -31.4970  -18.1560   18.6030 C.3    48  VAL48       0.0020
     19  CG2      -30.3010  -20.0030   17.4170 C.3    48  VAL48       0.0020
     20  N        -28.5850  -16.5430   19.9370 N.am   49  SER49      -0.1952
     21  CA       -28.5270  -15.3010   20.7030 C.3    49  SER49       0.1924
     22  C        -27.7540  -14.2310   19.9440 C.2    49  SER49       0.2314
     23  O        -28.1270  -13.0520   19.9610 O.2    49  SER49      -0.2863
     24  CB       -27.8920  -15.5580   22.0720 C.3    49  SER49       0.2116
     25  OG       -27.8340  -14.3710   22.8450 O.3    49  SER49      -0.2180
     26  N        -29.9970  -13.0520   17.1750 N.3    52  ALA52      -0.1245
     27  CA       -31.0460  -12.1890   17.7090 C.3    52  ALA52       0.1562
     28  C        -30.5300  -10.7740   17.9370 C.2    52  ALA52       0.2260
     29  O        -31.2460   -9.7970   17.6890 O.2    52  ALA52      -0.2867
     30  CB       -31.5990  -12.7740   19.0100 C.3    52  ALA52       0.0290
     31  N        -31.8410   -7.3370   16.0150 N.3    56  LEU56      -0.1245
     32  CA       -32.1940   -6.1050   16.7130 C.3    56  LEU56       0.1561
     33  C        -31.3680   -4.9220   16.2220 C.2    56  LEU56       0.2260
     34  O        -31.8080   -3.7730   16.3410 O.2    56  LEU56      -0.2867
     35  CB       -32.0330   -6.2890   18.2230 C.3    56  LEU56       0.0270
     36  CG       -33.0310   -7.2600   18.8650 C.3    56  LEU56       0.0019
     37  CD1      -32.7180   -7.4660   20.3380 C.3    56  LEU56       0.0001
     38  CD2      -34.4610   -6.7680   18.6810 C.3    56  LEU56       0.0001
     39  N        -33.8910   -2.0480   15.4210 N.3    60  LEU60      -0.1245
     40  CA       -33.8640   -0.9460   16.3770 C.3    60  LEU60       0.1561
     41  C        -32.6100   -0.0910   16.2830 C.2    60  LEU60       0.2260
     42  O        -32.7130    1.1390   16.2020 O.2    60  LEU60      -0.2867
     43  CB       -34.0120   -1.4880   17.8100 C.3    60  LEU60       0.0270
     44  CG       -35.3740   -2.0740   18.1840 C.3    60  LEU60       0.0019
     45  CD1      -35.3410   -2.6440   19.5930 C.3    60  LEU60       0.0001
     46  CD2      -36.4680   -1.0210   18.0540 C.3    60  LEU60       0.0001
     47  N        -32.3510    3.7680   15.2120 N.3    64  PHE64      -0.1241
     48  CA       -31.8500    4.6890   16.2300 C.3    64  PHE64       0.1605
     49  C        -30.6690    5.4990   15.7080 C.2    64  PHE64       0.2264
     50  O        -30.5760    6.7060   15.9640 O.2    64  PHE64      -0.2867
     51  CB       -31.4450    3.9240   17.4940 C.3    64  PHE64       0.0534
     52  CG       -32.6050    3.3780   18.2880 C.ar   64  PHE64      -0.0203
     53  CD1      -33.9140    3.6030   17.8940 C.ar   64  PHE64      -0.0042
     54  CD2      -32.3770    2.6410   19.4400 C.ar   64  PHE64      -0.0042
     55  CE1      -34.9730    3.0980   18.6300 C.ar   64  PHE64      -0.0003
     56  CE2      -33.4300    2.1350   20.1820 C.ar   64  PHE64      -0.0003
     57  CZ       -34.7300    2.3630   19.7760 C.ar   64  PHE64      -0.0000
     58  N        -30.7620    6.8060   25.5720 N.3    81  PHE81      -0.1241
     59  CA       -31.1820    5.4440   25.2580 C.3    81  PHE81       0.1605
     60  C        -31.0210    5.1440   23.7730 C.2    81  PHE81       0.2264
     61  O        -30.5410    4.0660   23.4010 O.2    81  PHE81      -0.2867
     62  CB       -32.6270    5.2130   25.6970 C.3    81  PHE81       0.0534
     63  CG       -33.1140    3.8160   25.4380 C.ar   81  PHE81      -0.0203
     64  CD1      -32.8160    2.7910   26.3210 C.ar   81  PHE81      -0.0042
     65  CD2      -33.8580    3.5250   24.3060 C.ar   81  PHE81      -0.0042
     66  CE1      -33.2580    1.5030   26.0830 C.ar   81  PHE81      -0.0003
     67  CE2      -34.3020    2.2410   24.0630 C.ar   81  PHE81      -0.0003
     68  CZ       -34.0010    1.2280   24.9530 C.ar   81  PHE81      -0.0000
     69  N        -28.3550    2.0320   23.0850 N.3    85  PHE85      -0.1241
     70  CA       -28.9450    0.7050   22.9310 C.3    85  PHE85       0.1605
     71  C        -28.0880   -0.1950   22.0500 C.2    85  PHE85       0.2264
     72  O        -28.0270   -1.4080   22.2800 O.2    85  PHE85      -0.2867
     73  CB       -30.3600    0.7980   22.3620 C.3    85  PHE85       0.0534
     74  CG       -31.0440   -0.5370   22.2390 C.ar   85  PHE85      -0.0203
     75  CD1      -31.4800   -1.2120   23.3710 C.ar   85  PHE85      -0.0042
     76  CD2      -31.2420   -1.1220   20.9980 C.ar   85  PHE85      -0.0042
     77  CE1      -32.1040   -2.4440   23.2670 C.ar   85  PHE85      -0.0003
     78  CE2      -31.8650   -2.3530   20.8870 C.ar   85  PHE85      -0.0003
     79  CZ       -32.2970   -3.0160   22.0230 C.ar   85  PHE85      -0.0000
     80  N        -28.0660  -27.6670   27.5360 N.3   120  GLY120     -0.1210
     81  CA       -28.9030  -26.6180   26.9760 C.3   120  GLY120      0.1956
     82  C        -29.5770  -25.7710   28.0390 C.2   120  GLY120      0.2612
     83  O        -29.7430  -24.5610   27.8650 O.2   120  GLY120     -0.2717
     84  N        -29.9780  -26.3930   29.1500 N.am  121  THR121     -0.1952
     85  CA       -30.6120  -25.6430   30.2300 C.3   121  THR121      0.1897
     86  C        -29.6450  -24.6390   30.8440 C.2   121  THR121      0.2313
     87  O        -30.0140  -23.4870   31.1030 O.2   121  THR121     -0.2863
     88  CB       -31.1410  -26.6020   31.2970 C.3   121  THR121      0.1794
     89  OG1      -32.1740  -27.4200   30.7340 O.3   121  THR121     -0.2208
     90  CG2      -31.7040  -25.8310   32.4820 C.3   121  THR121      0.0378
     91  N        -29.0610  -21.7460   28.3050 N.3   124  ALA124     -0.1245
     92  CA       -30.1390  -20.7630   28.2790 C.3   124  ALA124      0.1562
     93  C        -30.0520  -19.8170   29.4710 C.2   124  ALA124      0.2260
     94  O        -30.3410  -18.6210   29.3460 O.2   124  ALA124     -0.2867
     95  CB       -31.4950  -21.4690   28.2480 C.3   124  ALA124      0.0290
     96  N        -27.2490  -17.3890   28.7470 N.3   127  ILE127     -0.1245
     97  CA       -27.7080  -16.4080   27.7670 C.3   127  ILE127      0.1561
     98  C        -28.5560  -15.3350   28.4400 C.2   127  ILE127      0.2260
     99  O        -28.3830  -14.1370   28.1860 O.2   127  ILE127     -0.2867
    100  CB       -28.4770  -17.1090   26.6310 C.3   127  ILE127      0.0252
    101  CG1      -27.5190  -17.9440   25.7780 C.3   127  ILE127      0.0019
    102  CG2      -29.2260  -16.0920   25.7780 C.3   127  ILE127      0.0019
    103  CD1      -28.2120  -18.8300   24.7600 C.3   127  ILE127      0.0001
    104  N        -27.5540  -11.3100   28.7300 N.3   131  TRP131     -0.1241
    105  CA       -28.4000  -10.2370   28.2190 C.3   131  TRP131      0.1605
    106  C        -28.6660   -9.1860   29.2900 C.2   131  TRP131      0.2264
    107  O        -28.6680   -7.9840   28.9990 O.2   131  TRP131     -0.2867
    108  CB       -29.7110  -10.8060   27.6810 C.3   131  TRP131      0.0550
    109  CG       -29.6400  -11.2020   26.2400 C.ar  131  TRP131      0.0003
    110  CD1      -29.5520  -12.4680   25.7380 C.ar  131  TRP131      0.0946
    111  CD2      -29.6430  -10.3220   25.1090 C.ar  131  TRP131      0.0152
    112  NE1      -29.5050  -12.4300   24.3650 N.ar  131  TRP131     -0.2442
    113  CE2      -29.5590  -11.1240   23.9540 C.ar  131  TRP131      0.0810
    114  CE3      -29.7100   -8.9320   24.9630 C.ar  131  TRP131      0.0012
    115  CZ2      -29.5400  -10.5840   22.6690 C.ar  131  TRP131      0.0191
    116  CZ3      -29.6940   -8.3970   23.6860 C.ar  131  TRP131      0.0001
    117  CH2      -29.6090   -9.2220   22.5560 C.ar  131  TRP131      0.0015
    118  N        -27.3560   -5.1410   29.1120 N.3   135  PHE135     -0.1241
    119  CA       -28.1380   -3.9300   29.3440 C.3   135  PHE135      0.1605
    120  C        -27.4840   -3.0480   30.4000 C.2   135  PHE135      0.2264
    121  O        -27.4570   -1.8200   30.2590 O.2   135  PHE135     -0.2867
    122  CB       -29.5670   -4.2890   29.7550 C.3   135  PHE135      0.0534
    123  CG       -30.5020   -4.4760   28.5960 C.ar  135  PHE135     -0.0203
    124  CD1      -31.2190   -3.4030   28.0880 C.ar  135  PHE135     -0.0042
    125  CD2      -30.6610   -5.7210   28.0080 C.ar  135  PHE135     -0.0042
    126  CE1      -32.0800   -3.5700   27.0180 C.ar  135  PHE135     -0.0003
    127  CE2      -31.5180   -5.8930   26.9380 C.ar  135  PHE135     -0.0003
    128  CZ       -32.2290   -4.8160   26.4410 C.ar  135  PHE135     -0.0000
@<TRIPOS>BOND
     1    47    48    1
     2    39    40    1
     3    49    50    2
     4    49    48    1
     5    31    32    1
     6    42    41    2
     7    33    34    2
     8    33    32    1
     9    48    51    1
    10    41    40    1
    11    40    43    1
    12    32    35    1
    13    26    27    1
    14    19    17    1
    15    51    52    1
    16    29    28    2
    17    27    28    1
    18    27    30    1
    19    43    44    1
    20    53    52   ar
    21    53    55   ar
    22    14    13    1
    23    14    17    1
    24    14    15    1
    25    46    44    1
    26    44    45    1
    27    35    36    1
    28    16    15    2
    29    52    54   ar
    30    17    18    1
    31    55    57   ar
    32    38    36    1
    33    15    20   am
    34    36    37    1
    35    54    56   ar
    36    57    56   ar
    37    20    21    1
    38    22    23    2
    39    22    21    1
    40     1     2    1
    41    21    24    1
    42    78    76   ar
    43    78    79   ar
    44    76    74   ar
    45     9     7   ar
    46     9    11   ar
    47     2     3    1
    48     2     5    1
    49     7     6   ar
    50     4     3    2
    51    12    11    1
    52    79    77   ar
    53    11    10   ar
    54    71    72    2
    55    71    70    1
    56    24    25    1
    57    74    73    1
    58    74    75   ar
    59     6     5    1
    60     6     8   ar
    61    73    70    1
    62   117   115   ar
    63   117   116   ar
    64   115   113   ar
    65    70    69    1
    66    10     8   ar
    67    77    75   ar
    68    61    60    2
    69   116   114   ar
    70    60    59    1
    71   113   112   ar
    72   113   111   ar
    73    67    65   ar
    74    67    68   ar
    75    65    63   ar
    76   112   110   ar
    77   103   101    1
    78    68    66   ar
    79   114   111   ar
    80   111   109   ar
    81    59    58    1
    82    59    62    1
    83    63    62    1
    84    63    64   ar
    85   110   109   ar
    86   102   100    1
    87   101   100    1
    88    66    64   ar
    89   109   108    1
    90   128   127   ar
    91   128   126   ar
    92   100    97    1
    93   127   125   ar
    94    81    80    1
    95    81    82    1
    96   126   124   ar
    97   108   105    1
    98    97    98    1
    99    97    96    1
   100    83    82    2
   101   125   123   ar
   102    82    84   am
   103   124   123   ar
   104    99    98    2
   105   105   104    1
   106   105   106    1
   107    95    92    1
   108    92    91    1
   109    92    93    1
   110   123   122    1
   111   107   106    2
   112   118   119    1
   113    84    85    1
   114   119   122    1
   115   119   120    1
   116    94    93    2
   117    85    86    1
   118    85    88    1
   119   121   120    2
   120    89    88    1
   121    86    87    2
   122    88    90    1
