@<TRIPOS>MOLECULE
tmp/5iu8A14.pdb
 79 76 0 0 0
SMALL
GASTEIGER

@<TRIPOS>ATOM
      1  N        -33.5730   -3.9060   13.3390 N.3    59  VAL59      -0.1231
      2  CA       -34.9170   -3.4650   13.7060 C.3    59  VAL59       0.1692
      3  C        -34.8730   -2.1810   14.5280 C.2    59  VAL59       0.2591
      4  O        -35.7200   -1.2960   14.3610 O.2    59  VAL59      -0.2718
      5  CB       -35.6590   -4.5900   14.4550 C.3    59  VAL59       0.0266
      6  CG1      -36.9950   -4.0980   14.9960 C.3    59  VAL59       0.0020
      7  CG2      -35.8680   -5.7860   13.5360 C.3    59  VAL59       0.0020
      8  N        -33.8910   -2.0480   15.4210 N.am   60  LEU60      -0.1980
      9  CA       -33.8640   -0.9460   16.3770 C.3    60  LEU60       0.1596
     10  C        -32.6100   -0.0910   16.2830 C.2    60  LEU60       0.2287
     11  O        -32.7130    1.1390   16.2020 O.2    60  LEU60      -0.2864
     12  CB       -34.0120   -1.4880   17.8100 C.3    60  LEU60       0.0297
     13  CG       -35.3740   -2.0740   18.1840 C.3    60  LEU60       0.0022
     14  CD1      -35.3410   -2.6440   19.5930 C.3    60  LEU60       0.0001
     15  CD2      -36.4680   -1.0210   18.0540 C.3    60  LEU60       0.0001
     16  N        -32.4090    2.0900   12.9110 N.3    63  PRO63      -0.2102
     17  CA       -33.3260    3.2390   13.0250 C.3    63  PRO63       0.1504
     18  C        -32.9100    4.2380   14.0910 C.2    63  PRO63       0.2575
     19  O        -33.0920    5.4470   13.9010 O.2    63  PRO63      -0.2718
     20  CB       -34.6710    2.5750   13.3510 C.3    63  PRO63       0.0282
     21  CG       -34.5810    1.2500   12.7010 C.3    63  PRO63       0.0208
     22  CD       -33.1540    0.8150   12.8990 C.3    63  PRO63       0.0893
     23  N        -32.3510    3.7680   15.2120 N.am   64  PHE64      -0.1977
     24  CA       -31.8500    4.6890   16.2300 C.3    64  PHE64       0.1639
     25  C        -30.6690    5.4990   15.7080 C.2    64  PHE64       0.2290
     26  O        -30.5760    6.7060   15.9640 O.2    64  PHE64      -0.2864
     27  CB       -31.4450    3.9240   17.4940 C.3    64  PHE64       0.0560
     28  CG       -32.6050    3.3780   18.2880 C.ar   64  PHE64      -0.0200
     29  CD1      -33.9140    3.6030   17.8940 C.ar   64  PHE64      -0.0042
     30  CD2      -32.3770    2.6410   19.4400 C.ar   64  PHE64      -0.0042
     31  CE1      -34.9730    3.0980   18.6300 C.ar   64  PHE64      -0.0003
     32  CE2      -33.4300    2.1350   20.1820 C.ar   64  PHE64      -0.0003
     33  CZ       -34.7300    2.3630   19.7760 C.ar   64  PHE64      -0.0000
     34  N        -31.8370    8.1690   13.4300 N.3    67  THR67      -0.1218
     35  CA       -32.4820    9.2430   14.1780 C.3    67  THR67       0.1862
     36  C        -31.4580   10.1630   14.8340 C.2    67  THR67       0.2287
     37  O        -31.5920   11.3910   14.7750 O.2    67  THR67      -0.2866
     38  CB       -33.4220    8.6500   15.2290 C.3    67  THR67       0.1770
     39  OG1      -34.3770    7.7950   14.5870 O.3    67  THR67      -0.2211
     40  CG2      -34.1640    9.7510   15.9670 C.3    67  THR67       0.0375
     41  N        -31.8870   15.7750   16.3280 N.3    72  PHE72      -0.1227
     42  CA       -33.2090   16.2550   16.7050 C.3    72  PHE72       0.1736
     43  C        -33.2670   16.5870   18.1930 C.2    72  PHE72       0.2596
     44  O        -32.5370   16.0200   19.0100 O.2    72  PHE72      -0.2718
     45  CB       -34.2650   15.2020   16.3700 C.3    72  PHE72       0.0547
     46  CG       -34.2970   14.0570   17.3400 C.ar   72  PHE72      -0.0202
     47  CD1      -33.2370   13.1710   17.4200 C.ar   72  PHE72      -0.0042
     48  CD2      -35.3830   13.8710   18.1780 C.ar   72  PHE72      -0.0042
     49  CE1      -33.2580   12.1250   18.3170 C.ar   72  PHE72      -0.0003
     50  CE2      -35.4100   12.8230   19.0760 C.ar   72  PHE72      -0.0003
     51  CZ       -34.3470   11.9480   19.1450 C.ar   72  PHE72      -0.0000
     52  N        -34.1540   17.5170   18.5390 N.am   73  CYS73      -0.1956
     53  CA       -34.3370   17.9020   19.9320 C.3    73  CYS73       0.1843
     54  C        -34.9690   16.7630   20.7220 C.2    73  CYS73       0.2625
     55  O        -35.9350   16.1380   20.2760 O.2    73  CYS73      -0.2714
     56  CB       -35.2150   19.1500   20.0280 C.3    73  CYS73       0.0997
     57  SG       -34.5330   20.6280   19.2420 S.3    73  CYS73      -0.0797
     58  N        -34.4270   16.5010   21.9090 N.am   74  ALA74      -0.1977
     59  CA       -34.9440   15.4250   22.7410 C.3    74  ALA74       0.1597
     60  C        -34.5200   15.6460   24.1840 C.2    74  ALA74       0.2287
     61  O        -33.5130   16.3060   24.4550 O.2    74  ALA74      -0.2864
     62  CB       -34.4530   14.0560   22.2550 C.3    74  ALA74       0.0319
     63  N        -31.4460    6.0810   22.9190 N.3    82  ILE82      -0.1245
     64  CA       -31.2360    5.9660   21.4770 C.3    82  ILE82       0.1561
     65  C        -29.7610    5.7660   21.1710 C.2    82  ILE82       0.2260
     66  O        -29.3900    4.9750   20.2940 O.2    82  ILE82      -0.2867
     67  CB       -31.7900    7.2140   20.7630 C.3    82  ILE82       0.0252
     68  CG1      -33.3090    7.3020   20.9170 C.3    82  ILE82       0.0019
     69  CG2      -31.3890    7.2240   19.2910 C.3    82  ILE82       0.0019
     70  CD1      -34.0630    6.3510   20.0240 C.3    82  ILE82       0.0001
     71  N        -34.3900   20.1740   26.8700 N.3   165  GLN165     -0.1245
     72  CA       -34.0340   19.3700   25.7120 C.3   165  GLN165      0.1566
     73  C        -32.6450   19.7400   25.2100 C.2   165  GLN165      0.2260
     74  O        -32.1480   20.8470   25.4330 O.2   165  GLN165     -0.2867
     75  CB       -35.0540   19.5460   24.5810 C.3   165  GLN165      0.0367
     76  CG       -36.3930   18.8780   24.8310 C.3   165  GLN165      0.0905
     77  CD       -37.3510   19.0580   23.6700 C.2   165  GLN165      0.2608
     78  OE1      -37.1620   19.9320   22.8240 O.2   165  GLN165     -0.2717
     79  NE2      -38.3860   18.2280   23.6230 N.am  165  GLN165     -0.0878
@<TRIPOS>BOND
     1    21    22    1
     2    21    20    1
     3    22    16    1
     4    16    17    1
     5    17    20    1
     6    17    18    1
     7     1     2    1
     8    34    35    1
     9     7     5    1
    10     2     5    1
    11     2     3    1
    12    19    18    2
    13    18    23   am
    14    35    36    1
    15    35    38    1
    16     4     3    2
    17     5     6    1
    18     3     8   am
    19    39    38    1
    20    37    36    2
    21    23    24    1
    22    38    40    1
    23     8     9    1
    24    25    26    2
    25    25    24    1
    26    11    10    2
    27    24    27    1
    28    10     9    1
    29    41    42    1
    30    45    42    1
    31    45    46    1
    32     9    12    1
    33    42    43    1
    34    46    47   ar
    35    46    48   ar
    36    47    49   ar
    37    27    28    1
    38    12    13    1
    39    29    28   ar
    40    29    31   ar
    41    15    13    1
    42    48    50   ar
    43    13    14    1
    44    43    52   am
    45    43    44    2
    46    28    30   ar
    47    49    51   ar
    48    52    53    1
    49    31    33   ar
    50    50    51   ar
    51    57    56    1
    52    69    67    1
    53    30    32   ar
    54    33    32   ar
    55    53    56    1
    56    53    54    1
    57    70    68    1
    58    55    54    2
    59    66    65    2
    60    54    58   am
    61    67    68    1
    62    67    64    1
    63    65    64    1
    64    64    63    1
    65    58    59    1
    66    62    59    1
    67    59    60    1
    68    78    77    2
    69    79    77   am
    70    77    76    1
    71    60    61    2
    72    75    76    1
    73    75    72    1
    74    73    74    2
    75    73    72    1
    76    72    71    1
