@<TRIPOS>MOLECULE
tmp/5iu8A00.pdb
 90 87 0 0 0
SMALL
GASTEIGER

@<TRIPOS>ATOM
      1  N        -30.7210   -6.5410    5.1060 N.3    21  LEU21      -0.1245
      2  CA       -29.8740   -7.7190    4.9540 C.3    21  LEU21       0.1561
      3  C        -29.5570   -8.3670    6.2970 C.2    21  LEU21       0.2260
      4  O        -29.4480   -9.5950    6.3790 O.2    21  LEU21      -0.2867
      5  CB       -28.5810   -7.3470    4.2290 C.3    21  LEU21       0.0270
      6  CG       -28.7390   -6.8350    2.7940 C.3    21  LEU21       0.0019
      7  CD1      -27.4100   -6.3150    2.2640 C.3    21  LEU21       0.0001
      8  CD2      -29.2920   -7.9290    1.8880 C.3    21  LEU21       0.0001
      9  N        -32.8920  -10.2840    7.2660 N.3    24  LEU24      -0.1231
     10  CA       -33.1770  -11.4530    6.4370 C.3    24  LEU24       0.1693
     11  C        -32.2080  -12.5930    6.7290 C.2    24  LEU24       0.2592
     12  O        -32.6180  -13.7510    6.8700 O.2    24  LEU24      -0.2718
     13  CB       -33.1240  -11.0740    4.9570 C.3    24  LEU24       0.0284
     14  CG       -34.2710  -10.2260    4.4050 C.3    24  LEU24       0.0019
     15  CD1      -34.0390   -9.9240    2.9330 C.3    24  LEU24       0.0001
     16  CD2      -35.6060  -10.9250    4.6100 C.3    24  LEU24       0.0001
     17  N        -30.9140  -12.2830    6.8210 N.am   25  GLY25      -0.1957
     18  CA       -29.9280  -13.3340    7.0050 C.3    25  GLY25       0.1869
     19  C        -30.0090  -13.9940    8.3680 C.2    25  GLY25       0.2309
     20  O        -29.8880  -15.2170    8.4830 O.2    25  GLY25      -0.2863
     21  N        -32.6440  -13.9360   10.5480 N.3    27  VAL27      -0.1231
     22  CA       -33.8980  -14.6770   10.6660 C.3    27  VAL27       0.1692
     23  C        -33.7440  -16.0580   10.0430 C.2    27  VAL27       0.2591
     24  O        -34.2400  -17.0590   10.5750 O.2    27  VAL27      -0.2718
     25  CB       -35.0560  -13.8850   10.0280 C.3    27  VAL27       0.0266
     26  CG1      -36.2330  -14.8000    9.7170 C.3    27  VAL27       0.0020
     27  CG2      -35.4970  -12.7540   10.9490 C.3    27  VAL27       0.0020
     28  N        -33.0310  -16.1350    8.9160 N.am   28  LEU28      -0.1980
     29  CA       -32.7550  -17.4240    8.2900 C.3    28  LEU28       0.1596
     30  C        -31.9240  -18.3150    9.2060 C.2    28  LEU28       0.2287
     31  O        -32.1030  -19.5390    9.2250 O.2    28  LEU28      -0.2864
     32  CB       -32.0430  -17.2030    6.9550 C.3    28  LEU28       0.0297
     33  CG       -31.7450  -18.4180    6.0770 C.3    28  LEU28       0.0022
     34  CD1      -33.0340  -19.0790    5.6080 C.3    28  LEU28       0.0001
     35  CD2      -30.8830  -18.0060    4.8920 C.3    28  LEU28       0.0001
     36  N        -34.3140  -19.5120   11.9530 N.3    31  TRP31      -0.1241
     37  CA       -35.2390  -20.4620   11.3430 C.3    31  TRP31       0.1605
     38  C        -34.5710  -21.8150   11.1230 C.2    31  TRP31       0.2264
     39  O        -35.1940  -22.8640   11.3270 O.2    31  TRP31      -0.2867
     40  CB       -35.7610  -19.8890   10.0250 C.3    31  TRP31       0.0550
     41  CG       -37.0230  -20.5160    9.5190 C.ar   31  TRP31       0.0003
     42  CD1      -37.6650  -21.6030   10.0320 C.ar   31  TRP31       0.0946
     43  CD2      -37.8020  -20.0820    8.3970 C.ar   31  TRP31       0.0152
     44  NE1      -38.7940  -21.8770    9.2970 N.ar   31  TRP31      -0.2442
     45  CE2      -38.9000  -20.9570    8.2870 C.ar   31  TRP31       0.0810
     46  CE3      -37.6760  -19.0390    7.4740 C.ar   31  TRP31       0.0012
     47  CZ2      -39.8670  -20.8220    7.2920 C.ar   31  TRP31       0.0191
     48  CZ3      -38.6360  -18.9060    6.4860 C.ar   31  TRP31       0.0001
     49  CH2      -39.7170  -19.7930    6.4030 C.ar   31  TRP31       0.0015
     50  N        -24.5120   -8.5050    9.1400 N.3   364  VAL364     -0.1245
     51  CA       -24.8760   -9.1770    7.8970 C.3   364  VAL364      0.1561
     52  C        -23.9960  -10.3920    7.6100 C.2   364  VAL364      0.2260
     53  O        -24.4460  -11.3160    6.9150 O.2   364  VAL364     -0.2867
     54  CB       -24.8180   -8.1850    6.7110 C.3   364  VAL364      0.0252
     55  CG1      -25.3240   -8.8250    5.4160 C.3   364  VAL364      0.0019
     56  CG2      -25.6120   -6.9270    7.0280 C.3   364  VAL364      0.0019
     57  N        -24.4240  -15.0150    8.8070 N.3   367  PRO367     -0.2102
     58  CA       -25.1300  -16.0380    8.0150 C.3   367  PRO367      0.1504
     59  C        -24.3360  -16.5290    6.8170 C.2   367  PRO367      0.2575
     60  O        -24.5020  -17.6860    6.4100 O.2   367  PRO367     -0.2718
     61  CB       -26.4170  -15.3220    7.5850 C.3   367  PRO367      0.0282
     62  CG       -26.6400  -14.3030    8.6460 C.3   367  PRO367      0.0208
     63  CD       -25.2730  -13.8300    9.0370 C.3   367  PRO367      0.0893
     64  N        -23.4730  -15.6870    6.2430 N.am  368  PHE368     -0.1977
     65  CA       -22.6520  -16.1240    5.1180 C.3   368  PHE368      0.1639
     66  C        -21.5470  -17.0670    5.5710 C.2   368  PHE368      0.2290
     67  O        -21.2220  -18.0320    4.8690 O.2   368  PHE368     -0.2864
     68  CB       -22.0650  -14.9140    4.3940 C.3   368  PHE368      0.0560
     69  CG       -23.0620  -14.1680    3.5610 C.ar  368  PHE368     -0.0200
     70  CD1      -23.8300  -13.1560    4.1130 C.ar  368  PHE368     -0.0042
     71  CD2      -23.2380  -14.4860    2.2250 C.ar  368  PHE368     -0.0042
     72  CE1      -24.7530  -12.4720    3.3450 C.ar  368  PHE368     -0.0003
     73  CE2      -24.1590  -13.8070    1.4520 C.ar  368  PHE368     -0.0003
     74  CZ       -24.9170  -12.7990    2.0130 C.ar  368  PHE368     -0.0000
     75  N        -35.0390  -24.2360    3.2500 N.3   384  ILE384     -0.1231
     76  CA       -35.9380  -23.1400    3.6020 C.3   384  ILE384      0.1692
     77  C        -36.2390  -22.2840    2.3780 C.2   384  ILE384      0.2591
     78  O        -37.3840  -21.8720    2.1540 O.2   384  ILE384     -0.2718
     79  CB       -35.3310  -22.3020    4.7430 C.3   384  ILE384      0.0266
     80  CG1      -35.2130  -23.1400    6.0180 C.3   384  ILE384      0.0019
     81  CG2      -36.1610  -21.0540    4.9900 C.3   384  ILE384      0.0020
     82  CD1      -34.5090  -22.4300    7.1500 C.3   384  ILE384      0.0001
     83  N        -35.2190  -22.0130    1.5630 N.am  385  ILE385     -0.1980
     84  CA       -35.3970  -21.1420    0.4050 C.3   385  ILE385      0.1595
     85  C        -36.2260  -21.8390   -0.6690 C.2   385  ILE385      0.2287
     86  O        -37.1440  -21.2460   -1.2470 O.2   385  ILE385     -0.2864
     87  CB       -34.0280  -20.6920   -0.1350 C.3   385  ILE385      0.0276
     88  CG1      -33.3020  -19.8490    0.9160 C.3   385  ILE385      0.0022
     89  CG2      -34.1910  -19.9160   -1.4340 C.3   385  ILE385      0.0022
     90  CD1      -31.7980  -19.8450    0.7660 C.3   385  ILE385      0.0001
@<TRIPOS>BOND
     1    89    87    1
     2    86    85    2
     3    85    84    1
     4    87    84    1
     5    87    88    1
     6    84    83    1
     7    90    88    1
     8    73    74   ar
     9    73    71   ar
    10    83    77   am
    11     8     6    1
    12    74    72   ar
    13    78    77    2
    14    71    69   ar
    15     7     6    1
    16    77    76    1
    17     6     5    1
    18    15    14    1
    19    75    76    1
    20    72    70   ar
    21    69    70   ar
    22    69    68    1
    23    76    79    1
    24     5     2    1
    25    68    65    1
    26    14    16    1
    27    14    13    1
    28    79    81    1
    29    79    80    1
    30    67    66    2
    31    35    33    1
    32     2     1    1
    33     2     3    1
    34    13    10    1
    35    65    66    1
    36    65    64    1
    37    55    54    1
    38    34    33    1
    39    80    82    1
    40    33    32    1
    41    64    59   am
    42     3     4    2
    43    49    48   ar
    44    49    47   ar
    45    60    59    2
    46    10    11    1
    47    10     9    1
    48    48    46   ar
    49    54    56    1
    50    54    51    1
    51    11    17   am
    52    11    12    2
    53    59    58    1
    54    17    18    1
    55    53    52    2
    56    32    29    1
    57    18    19    1
    58    47    45   ar
    59    46    43   ar
    60    61    58    1
    61    61    62    1
    62    52    51    1
    63    51    50    1
    64    58    57    1
    65    45    43   ar
    66    45    44   ar
    67    29    28    1
    68    29    30    1
    69    19    20    2
    70    43    41   ar
    71    62    63    1
    72    57    63    1
    73    28    23   am
    74    30    31    2
    75    44    42   ar
    76    41    40    1
    77    41    42   ar
    78    26    25    1
    79    40    37    1
    80    25    22    1
    81    25    27    1
    82    23    24    2
    83    23    22    1
    84    21    22    1
    85    38    39    2
    86    38    37    1
    87    37    36    1
