@<TRIPOS>MOLECULE
tmp/5iu8A18.pdb
 166 158 0 0 0
SMALL
GASTEIGER

@<TRIPOS>ATOM
      1  N        -30.4230    9.5940   15.4560 N.3    68  ILE68      -0.1245
      2  CA       -29.4630   10.4200   16.1770 C.3    68  ILE68       0.1561
      3  C        -28.5460   11.1850   15.2290 C.2    68  ILE68       0.2260
      4  O        -27.9300   12.1760   15.6380 O.2    68  ILE68      -0.2867
      5  CB       -28.6460    9.5620   17.1640 C.3    68  ILE68       0.0252
      6  CG1      -28.0410   10.4450   18.2570 C.3    68  ILE68       0.0019
      7  CG2      -27.5550    8.7880   16.4360 C.3    68  ILE68       0.0019
      8  CD1      -27.3230    9.6740   19.3350 C.3    68  ILE68       0.0001
      9  N        -27.4140    0.3750   21.0470 N.3    86  VAL86      -0.1231
     10  CA       -26.5340   -0.4280   20.2020 C.3    86  VAL86       0.1692
     11  C        -25.3720   -0.9880   21.0140 C.2    86  VAL86       0.2591
     12  O        -24.8330   -2.0530   20.6890 O.2    86  VAL86      -0.2718
     13  CB       -26.0420    0.4030   18.9980 C.3    86  VAL86       0.0266
     14  CG1      -25.1770    1.5680   19.4630 C.3    86  VAL86       0.0020
     15  CG2      -25.2910   -0.4790   18.0020 C.3    86  VAL86       0.0020
     16  N        -24.9740   -0.2940   22.0850 N.am   87  LEU87      -0.1980
     17  CA       -23.9270   -0.8200   22.9560 C.3    87  LEU87       0.1596
     18  C        -24.4010   -2.0580   23.7050 C.2    87  LEU87       0.2287
     19  O        -23.5910   -2.9350   24.0260 O.2    87  LEU87      -0.2864
     20  CB       -23.4710    0.2550   23.9410 C.3    87  LEU87       0.0297
     21  CG       -23.0420    1.5900   23.3310 C.3    87  LEU87       0.0022
     22  CD1      -22.6430    2.5730   24.4220 C.3    87  LEU87       0.0001
     23  CD2      -21.9010    1.3840   22.3430 C.3    87  LEU87       0.0001
     24  N        -24.0760   -4.8100   21.0590 N.3    90  ALA90      -0.1245
     25  CA       -22.6710   -5.1480   20.8660 C.3    90  ALA90       0.1562
     26  C        -22.1290   -5.9440   22.0460 C.2    90  ALA90       0.2260
     27  O        -21.3590   -6.8940   21.8610 O.2    90  ALA90      -0.2867
     28  CB       -21.8480   -3.8780   20.6500 C.3    90  ALA90       0.0290
     29  N        -27.1120   14.3350   19.9080 N.3   169  LEU169     -0.1231
     30  CA       -25.9170   13.9650   19.1650 C.3   169  LEU169      0.1693
     31  C        -25.0570   13.0690   20.0410 C.2   169  LEU169      0.2592
     32  O        -24.8880   13.3380   21.2340 O.2   169  LEU169     -0.2718
     33  CB       -25.1290   15.2060   18.7300 C.3   169  LEU169      0.0284
     34  CG       -25.8570   16.1110   17.7350 C.3   169  LEU169      0.0019
     35  CD1      -25.1640   17.4570   17.6160 C.3   169  LEU169      0.0001
     36  CD2      -25.9380   15.4310   16.3780 C.3   169  LEU169      0.0001
     37  N        -24.5100   12.0090   19.4380 N.am  170  PHE170     -0.1962
     38  CA       -23.8420   10.9600   20.2050 C.3   170  PHE170      0.1771
     39  C        -22.7440   11.5310   21.0970 C.2   170  PHE170      0.2619
     40  O        -22.7590   11.3430   22.3190 O.2   170  PHE170     -0.2715
     41  CB       -23.2690    9.9000   19.2600 C.3   170  PHE170      0.0574
     42  CG       -22.6960    8.7010   19.9700 C.ar  170  PHE170     -0.0200
     43  CD1      -21.3850    8.7030   20.4240 C.ar  170  PHE170     -0.0042
     44  CD2      -23.4720    7.5750   20.1890 C.ar  170  PHE170     -0.0042
     45  CE1      -20.8600    7.6050   21.0820 C.ar  170  PHE170     -0.0003
     46  CE2      -22.9520    6.4720   20.8450 C.ar  170  PHE170     -0.0003
     47  CZ       -21.6450    6.4880   21.2920 C.ar  170  PHE170     -0.0000
     48  N        -21.7760   12.2300   20.5010 N.am  171  GLU171     -0.1977
     49  CA       -20.6360   12.7090   21.2730 C.3   171  GLU171      0.1602
     50  C        -20.9870   13.8720   22.1920 C.2   171  GLU171      0.2287
     51  O        -20.1440   14.2720   23.0020 O.2   171  GLU171     -0.2864
     52  CB       -19.4930   13.0970   20.3310 C.3   171  GLU171      0.0415
     53  CG       -18.9460   11.9160   19.5310 C.3   171  GLU171      0.1163
     54  CD       -17.7130   12.2620   18.7150 C.2   171  GLU171      0.3649
     55  OE1      -17.1800   13.3810   18.8740 O.co2 171  GLU171     -0.2457
     56  OE2      -17.2750   11.4100   17.9140 O.co2 171  GLU171     -0.2457
     57  N        -16.8120   10.4570   26.3380 N.3   176  MET176     -0.1245
     58  CA       -15.8010    9.6980   25.6160 C.3   176  MET176      0.1570
     59  C        -14.9100    8.8780   26.5410 C.2   176  MET176      0.2261
     60  O        -14.3430    7.8740   26.0970 O.2   176  MET176     -0.2867
     61  CB       -14.9470   10.6310   24.7560 C.3   176  MET176      0.0387
     62  CG       -14.2470    9.9190   23.6100 C.3   176  MET176      0.0595
     63  SD       -15.3950    9.1250   22.4630 S.3   176  MET176     -0.1393
     64  CE       -15.8790   10.5200   21.4470 C.3   176  MET176      0.0692
     65  N        -16.6870    5.7330   26.6820 N.3   179  MET179     -0.1245
     66  CA       -16.5810    4.9970   25.4270 C.3   179  MET179      0.1570
     67  C        -15.2130    4.3500   25.2610 C.2   179  MET179      0.2261
     68  O        -15.1110    3.2580   24.6900 O.2   179  MET179     -0.2867
     69  CB       -16.8730    5.9260   24.2470 C.3   179  MET179      0.0387
     70  CG       -18.3390    6.3110   24.1160 C.3   179  MET179      0.0595
     71  SD       -19.4070    4.8670   23.9440 S.3   179  MET179     -0.1393
     72  CE       -18.8290    4.1980   22.3850 C.3   179  MET179      0.0692
     73  N        -16.2460    1.1100   27.8520 N.3   183  ASN183     -0.1240
     74  CA       -16.8260    0.3050   26.7840 C.3   183  ASN183      0.1653
     75  C        -15.7410   -0.3950   25.9720 C.2   183  ASN183      0.2266
     76  O        -15.7310   -1.6260   25.8610 O.2   183  ASN183     -0.2867
     77  CB       -17.7070    1.1730   25.8840 C.3   183  ASN183      0.1155
     78  CG       -18.5580    0.3460   24.9370 C.2   183  ASN183      0.2627
     79  OD1      -18.1740    0.0970   23.7940 O.2   183  ASN183     -0.2716
     80  ND2      -19.7160   -0.0940   25.4140 N.am  183  ASN183     -0.0877
     81  N        -15.7790   -3.5320   14.1490 N.3   328  TRP328     -0.1241
     82  CA       -15.9850   -2.5720   15.2280 C.3   328  TRP328      0.1605
     83  C        -14.7340   -1.7930   15.6120 C.2   328  TRP328      0.2264
     84  O        -14.8600   -0.6900   16.1560 O.2   328  TRP328     -0.2867
     85  CB       -16.5290   -3.2780   16.4770 C.3   328  TRP328      0.0550
     86  CG       -17.9890   -3.6100   16.3920 C.ar  328  TRP328      0.0003
     87  CD1      -18.5390   -4.8040   16.0230 C.ar  328  TRP328      0.0946
     88  CD2      -19.0860   -2.7340   16.6800 C.ar  328  TRP328      0.0152
     89  NE1      -19.9120   -4.7240   16.0640 N.ar  328  TRP328     -0.2442
     90  CE2      -20.2720   -3.4640   16.4630 C.ar  328  TRP328      0.0810
     91  CE3      -19.1810   -1.4020   17.0990 C.ar  328  TRP328      0.0012
     92  CZ2      -21.5360   -2.9080   16.6540 C.ar  328  TRP328      0.0191
     93  CZ3      -20.4370   -0.8510   17.2870 C.ar  328  TRP328      0.0001
     94  CH2      -21.5980   -1.6040   17.0650 C.ar  328  TRP328      0.0015
     95  N        -14.2980    2.1520   14.4780 N.3   331  LEU331     -0.1231
     96  CA       -15.0800    3.1150   15.2470 C.3   331  LEU331      0.1693
     97  C        -14.4760    3.3410   16.6300 C.2   331  LEU331      0.2592
     98  O        -14.4180    4.4780   17.1110 O.2   331  LEU331     -0.2718
     99  CB       -16.5280    2.6350   15.3520 C.3   331  LEU331      0.0284
    100  CG       -17.5880    3.6040   15.8730 C.3   331  LEU331      0.0019
    101  CD1      -17.5000    4.9460   15.1590 C.3   331  LEU331      0.0001
    102  CD2      -18.9710    2.9950   15.6940 C.3   331  LEU331      0.0001
    103  N        -14.0130    2.2690   17.2810 N.am  332  HIS332     -0.1976
    104  CA       -13.3720    2.4180   18.5850 C.3   332  HIS332      0.1656
    105  C        -12.0540    3.1740   18.4750 C.2   332  HIS332      0.2291
    106  O        -11.7260    3.9920   19.3420 O.2   332  HIS332     -0.2864
    107  CB       -13.1330    1.0480   19.2190 C.3   332  HIS332      0.0771
    108  CG       -14.3730    0.3870   19.7320 C.ar  332  HIS332      0.0820
    109  ND1      -15.0530    0.8400   20.8420 N.ar  332  HIS332     -0.2267
    110  CD2      -15.0440   -0.7070   19.3000 C.ar  332  HIS332      0.1154
    111  CE1      -16.0950    0.0590   21.0660 C.ar  332  HIS332      0.1986
    112  NE2      -16.1130   -0.8870   20.1430 N.ar  332  HIS332     -0.2212
    113  N        -12.6440    6.8300   18.2200 N.3   335  ASN335     -0.1240
    114  CA       -12.9500    7.3830   19.5360 C.3   335  ASN335      0.1653
    115  C        -11.6840    7.5810   20.3590 C.2   335  ASN335      0.2266
    116  O        -11.5780    8.5460   21.1260 O.2   335  ASN335     -0.2867
    117  CB       -13.9350    6.4770   20.2770 C.3   335  ASN335      0.1155
    118  CG       -15.3500    6.5870   19.7370 C.2   335  ASN335      0.2627
    119  OD1      -15.7020    7.5670   19.0840 O.2   335  ASN335     -0.2716
    120  ND2      -16.1720    5.5810   20.0180 N.am  335  ASN335     -0.0877
    121  N        -10.7950   16.5320   14.5020 N.3   346  HIS346     -0.1241
    122  CA       -11.7650   15.4500   14.6120 C.3   346  HIS346      0.1621
    123  C        -11.8880   14.7160   13.2820 C.2   346  HIS346      0.2264
    124  O        -11.8340   15.3290   12.2120 O.2   346  HIS346     -0.2867
    125  CB       -13.1270   15.9980   15.0440 C.3   346  HIS346      0.0745
    126  CG       -14.0590   14.9540   15.5780 C.ar  346  HIS346      0.0817
    127  ND1      -14.5370   13.9150   14.8080 N.ar  346  HIS346     -0.2268
    128  CD2      -14.6070   14.7930   16.8070 C.ar  346  HIS346      0.1154
    129  CE1      -15.3340   13.1570   15.5400 C.ar  346  HIS346      0.1986
    130  NE2      -15.3940   13.6680   16.7560 N.ar  346  HIS346     -0.2212
    131  N        -16.6850   13.9260    8.8520 N.3   349  LEU349     -0.1245
    132  CA       -18.0470   13.4050    8.9220 C.3   349  LEU349      0.1561
    133  C        -18.1990   12.1320    8.1000 C.2   349  LEU349      0.2260
    134  O        -18.8040   11.1560    8.5610 O.2   349  LEU349     -0.2867
    135  CB       -19.0340   14.4700    8.4450 C.3   349  LEU349      0.0270
    136  CG       -20.5230   14.1820    8.6370 C.3   349  LEU349      0.0019
    137  CD1      -20.9060   14.3520   10.0950 C.3   349  LEU349      0.0001
    138  CD2      -21.3660   15.0820    7.7490 C.3   349  LEU349      0.0001
    139  N        -16.5990    9.1410    9.9360 N.3   352  MET352     -0.1230
    140  CA       -17.4140    8.7070   11.0660 C.3   352  MET352      0.1702
    141  C        -18.5220    7.7730   10.6060 C.2   352  MET352      0.2592
    142  O        -18.7060    6.6830   11.1570 O.2   352  MET352     -0.2718
    143  CB       -18.0160    9.9170   11.7840 C.3   352  MET352      0.0401
    144  CG       -17.0060   10.8410   12.4310 C.3   352  MET352      0.0596
    145  SD       -16.0100    9.9990   13.6670 S.3   352  MET352     -0.1393
    146  CE       -17.2720    9.2550   14.6980 C.3   352  MET352      0.0692
    147  N        -19.2660    8.1830    9.5830 N.am  353  TYR353     -0.1976
    148  CA       -20.4060    7.3880    9.1590 C.3   353  TYR353      0.1639
    149  C        -19.9790    6.1610    8.3660 C.2   353  TYR353      0.2290
    150  O        -20.7110    5.1670    8.3510 O.2   353  TYR353     -0.2864
    151  CB       -21.3820    8.2730    8.3880 C.3   353  TYR353      0.0560
    152  CG       -22.1060    9.2340    9.3130 C.ar  353  TYR353     -0.0198
    153  CD1      -21.4530   10.3290    9.8620 C.ar  353  TYR353     -0.0009
    154  CD2      -23.4280    9.0230    9.6680 C.ar  353  TYR353     -0.0009
    155  CE1      -22.1030   11.1930   10.7220 C.ar  353  TYR353      0.0417
    156  CE2      -24.0880    9.8820   10.5230 C.ar  353  TYR353      0.0417
    157  CZ       -23.4220   10.9660   11.0480 C.ar  353  TYR353      0.1957
    158  OH       -24.0810   11.8220   11.9000 O.3   353  TYR353     -0.2866
    159  N        -19.3870    3.8480   11.1680 N.3   356  ILE356     -0.1245
    160  CA       -20.6630    3.4190   11.7340 C.3   356  ILE356      0.1561
    161  C        -21.3090    2.3600   10.8490 C.2   356  ILE356      0.2260
    162  O        -21.7950    1.3310   11.3370 O.2   356  ILE356     -0.2867
    163  CB       -21.5930    4.6290   11.9390 C.3   356  ILE356      0.0252
    164  CG1      -21.0510    5.5440   13.0400 C.3   356  ILE356      0.0019
    165  CG2      -23.0100    4.1730   12.2650 C.3   356  ILE356      0.0019
    166  CD1      -21.8090    6.8540   13.1700 C.3   356  ILE356      0.0001
@<TRIPOS>BOND
     1   138   136    1
     2   133   134    2
     3   133   132    1
     4   150   149    2
     5   149   148    1
     6   151   148    1
     7   151   152    1
     8   135   136    1
     9   135   132    1
    10   136   137    1
    11   131   132    1
    12   148   147    1
    13   152   154   ar
    14   152   153   ar
    15   147   141   am
    16   154   156   ar
    17   153   155   ar
    18   139   140    1
    19   156   157   ar
    20   141   140    1
    21   141   142    2
    22   155   157   ar
    23   161   162    2
    24   161   160    1
    25   157   158    1
    26   140   143    1
    27   159   160    1
    28   160   163    1
    29   143   144    1
    30   163   165    1
    31   163   164    1
    32   124   123    2
    33   144   145    1
    34   164   166    1
    35   123   122    1
    36   145   146    1
    37    81    82    1
    38    95    96    1
    39   121   122    1
    40   122   125    1
    41   127   129   ar
    42   127   126   ar
    43   125   126    1
    44   101   100    1
    45    82    83    1
    46    82    85    1
    47     3     4    2
    48     3     2    1
    49    96    99    1
    50    96    97    1
    51    99   100    1
    52     1     2    1
    53   129   130   ar
    54   126   128   ar
    55    83    84    2
    56   102   100    1
    57    87    89   ar
    58    87    86   ar
    59    89    90   ar
    60     2     5    1
    61    36    34    1
    62    86    85    1
    63    86    88   ar
    64     7     5    1
    65    90    92   ar
    66    90    88   ar
    67    97    98    2
    68    97   103   am
    69    92    94   ar
    70    88    91   ar
    71   130   128   ar
    72    94    93   ar
    73    91    93   ar
    74     5     6    1
    75   103   104    1
    76    35    34    1
    77    34    33    1
    78    56    54   ar
    79    15    13    1
    80   113   114    1
    81     6     8    1
    82   105   104    1
    83   105   106    2
    84   104   107    1
    85    54    55   ar
    86    54    53    1
    87    33    30    1
    88    13    14    1
    89    13    10    1
    90   119   118    2
    91    30    29    1
    92    30    31    1
    93   107   108    1
    94    41    42    1
    95    41    38    1
    96   110   108   ar
    97   110   112   ar
    98    37    31   am
    99    37    38    1
   100    53    52    1
   101   114   117    1
   102   114   115    1
   103   108   109   ar
   104   118   120   am
   105   118   117    1
   106    42    44   ar
   107    42    43   ar
   108    31    32    2
   109   112   111   ar
   110    44    46   ar
   111    10    11    1
   112    10     9    1
   113    38    39    1
   114    52    49    1
   115   115   116    2
   116    43    45   ar
   117    48    39   am
   118    48    49    1
   119    28    25    1
   120    12    11    2
   121   109   111   ar
   122    46    47   ar
   123    25    24    1
   124    25    26    1
   125    11    16   am
   126    45    47   ar
   127    39    40    2
   128    49    50    1
   129    64    63    1
   130    27    26    2
   131    16    17    1
   132    50    51    2
   133    23    21    1
   134    72    71    1
   135    63    62    1
   136    17    18    1
   137    17    20    1
   138    21    20    1
   139    21    22    1
   140    62    61    1
   141    18    19    2
   142    79    78    2
   143    71    70    1
   144    70    69    1
   145    69    66    1
   146    68    67    2
   147    61    58    1
   148    78    80   am
   149    78    77    1
   150    67    66    1
   151    66    65    1
   152    58    57    1
   153    58    59    1
   154    76    75    2
   155    77    74    1
   156    75    74    1
   157    60    59    2
   158    74    73    1
