@<TRIPOS>MOLECULE
tmp/5iu8A19.pdb
 139 130 0 0 0
SMALL
GASTEIGER

@<TRIPOS>ATOM
      1  N        -30.3670  -31.4380   13.9580 N.3    38  ASN38      -0.1225
      2  CA       -28.9160  -31.5760   13.9220 C.3    38  ASN38       0.1785
      3  C        -28.2040  -30.2600   14.2070 C.2    38  ASN38       0.2597
      4  O        -27.0070  -30.2710   14.5140 O.2    38  ASN38      -0.2718
      5  CB       -28.4710  -32.1270   12.5670 C.3    38  ASN38       0.1169
      6  CG       -29.0870  -33.4780   12.2570 C.2    38  ASN38       0.2627
      7  OD1      -29.3440  -34.2780   13.1560 O.2    38  ASN38      -0.2716
      8  ND2      -29.3300  -33.7370   10.9770 N.am   38  ASN38      -0.0877
      9  N        -28.9060  -29.1330   14.1070 N.am   39  LEU39      -0.1980
     10  CA       -28.3590  -27.8280   14.4500 C.3    39  LEU39       0.1596
     11  C        -28.6780  -27.4110   15.8790 C.2    39  LEU39       0.2287
     12  O        -28.2730  -26.3230   16.2960 O.2    39  LEU39      -0.2864
     13  CB       -28.8850  -26.7610   13.4820 C.3    39  LEU39       0.0297
     14  CG       -28.3990  -26.8400   12.0350 C.3    39  LEU39       0.0022
     15  CD1      -29.1460  -25.8430   11.1630 C.3    39  LEU39       0.0001
     16  CD2      -26.9020  -26.5890   11.9750 C.3    39  LEU39       0.0001
     17  N        -27.6690  -27.7790   19.0610 N.3    41  ASN41      -0.1240
     18  CA       -26.6550  -28.0310   20.0720 C.3    41  ASN41       0.1653
     19  C        -26.4350  -26.7610   20.8840 C.2    41  ASN41       0.2266
     20  O        -26.9640  -25.6920   20.5640 O.2    41  ASN41      -0.2867
     21  CB       -25.3390  -28.5060   19.4400 C.3    41  ASN41       0.1155
     22  CG       -24.8820  -27.6160   18.2970 C.2    41  ASN41       0.2627
     23  OD1      -24.5340  -26.4530   18.5010 O.2    41  ASN41      -0.2716
     24  ND2      -24.8680  -28.1660   17.0880 N.am   41  ASN41      -0.0877
     25  N        -23.7100  -24.9790   21.2810 N.3    43  THR43      -0.1203
     26  CA       -22.9620  -23.9610   20.5490 C.3    43  THR43       0.1994
     27  C        -23.8940  -23.0710   19.7360 C.2    43  THR43       0.2617
     28  O        -23.7390  -21.8440   19.7210 O.2    43  THR43      -0.2717
     29  CB       -21.9310  -24.6250   19.6370 C.3    43  THR43       0.1784
     30  OG1      -21.3220  -25.7290   20.3200 O.3    43  THR43      -0.2211
     31  CG2      -20.8540  -23.6290   19.2420 C.3    43  THR43       0.0376
     32  N        -24.8840  -23.6680   19.0740 N.am   44  ASN44      -0.1974
     33  CA       -25.7940  -22.9150   18.2230 C.3    44  ASN44       0.1688
     34  C        -26.8490  -22.1460   19.0040 C.2    44  ASN44       0.2292
     35  O        -27.5230  -21.2900   18.4200 O.2    44  ASN44      -0.2864
     36  CB       -26.4650  -23.8530   17.2210 C.3    44  ASN44       0.1181
     37  CG       -25.4820  -24.4220   16.2210 C.2    44  ASN44       0.2629
     38  OD1      -24.3480  -23.9510   16.1180 O.2    44  ASN44      -0.2716
     39  ND2      -25.9110  -25.4320   15.4710 N.am   44  ASN44      -0.0877
     40  N        -25.2170  -19.0580   19.0290 N.3    47  VAL47      -0.1245
     41  CA       -25.3540  -18.5640   17.6610 C.3    47  VAL47       0.1561
     42  C        -26.7040  -17.8820   17.4770 C.2    47  VAL47       0.2260
     43  O        -26.8020  -16.8220   16.8460 O.2    47  VAL47      -0.2867
     44  CB       -25.1580  -19.7170   16.6560 C.3    47  VAL47       0.0252
     45  CG1      -25.5840  -19.2940   15.2550 C.3    47  VAL47       0.0019
     46  CG2      -23.7080  -20.1850   16.6580 C.3    47  VAL47       0.0019
     47  N        -19.1130  -19.0160   22.8950 N.3   100  ILE100     -0.1245
     48  CA       -18.8500  -19.9710   21.8210 C.3   100  ILE100      0.1561
     49  C        -17.4120  -20.4700   21.8930 C.2   100  ILE100      0.2260
     50  O        -17.1500  -21.6720   21.7680 O.2   100  ILE100     -0.2867
     51  CB       -19.1640  -19.3370   20.4530 C.3   100  ILE100      0.0252
     52  CG1      -20.6710  -19.1120   20.3030 C.3   100  ILE100      0.0019
     53  CG2      -18.6300  -20.2060   19.3220 C.3   100  ILE100      0.0019
     54  CD1      -21.0630  -18.3600   19.0460 C.3   100  ILE100      0.0001
     55  N        -16.2250  -24.3200   22.5980 N.3   104  ARG104     -0.1245
     56  CA       -15.3530  -25.0930   21.7220 C.3   104  ARG104      0.1563
     57  C        -14.1190  -25.5970   22.4590 C.2   104  ARG104      0.2260
     58  O        -13.6140  -26.6820   22.1470 O.2   104  ARG104     -0.2867
     59  CB       -14.9540  -24.2550   20.5050 C.3   104  ARG104      0.0307
     60  CG       -16.1180  -23.8770   19.5820 C.3   104  ARG104      0.0489
     61  CD       -16.7190  -25.0980   18.8880 C.3   104  ARG104      0.2205
     62  NE       -17.6700  -25.8130   19.7360 N.pl3 104  ARG104     -0.0865
     63  CZ       -17.8630  -27.1280   19.7010 C.cat 104  ARG104      0.5346
     64  NH1      -17.1650  -27.8810   18.8630 N.pl3 104  ARG104      0.1354
     65  NH2      -18.7470  -27.6920   20.5140 N.pl3 104  ARG104      0.1354
     66  N        -11.9260  -27.4390   12.2800 N.3   312  HIS312     -0.1226
     67  CA       -12.7130  -26.6930   11.3040 C.3   312  HIS312      0.1752
     68  C        -13.8210  -25.8940   11.9800 C.2   312  HIS312      0.2595
     69  O        -14.0750  -24.7400   11.6160 O.2   312  HIS312     -0.2718
     70  CB       -13.2990  -27.6510   10.2660 C.3   312  HIS312      0.0759
     71  CG       -14.1860  -26.9860    9.2600 C.ar  312  HIS312      0.0818
     72  ND1      -13.7100  -26.4640    8.0760 N.ar  312  HIS312     -0.2268
     73  CD2      -15.5220  -26.7620    9.2590 C.ar  312  HIS312      0.1154
     74  CE1      -14.7140  -25.9460    7.3910 C.ar  312  HIS312      0.1986
     75  NE2      -15.8240  -26.1130    8.0870 N.ar  312  HIS312     -0.2212
     76  N        -14.4900  -26.4920   12.9700 N.am  313  ALA313     -0.1980
     77  CA       -15.5510  -25.7820   13.6770 C.3   313  ALA313      0.1597
     78  C        -14.9870  -24.6500   14.5250 C.2   313  ALA313      0.2287
     79  O        -15.5810  -23.5680   14.5990 O.2   313  ALA313     -0.2864
     80  CB       -16.3520  -26.7570   14.5400 C.3   313  ALA313      0.0319
     81  N        -14.2480  -21.7530   12.2770 N.3   316  SER316     -0.1202
     82  CA       -15.4660  -21.0280   11.9290 C.3   316  SER316      0.2020
     83  C        -15.8760  -20.0810   13.0480 C.2   316  SER316      0.2618
     84  O        -16.2910  -18.9450   12.7910 O.2   316  SER316     -0.2717
     85  CB       -16.5950  -22.0110   11.6180 C.3   316  SER316      0.2103
     86  OG       -16.2720  -22.8190   10.5000 O.3   316  SER316     -0.2182
     87  N        -15.7580  -20.5290   14.2990 N.am  317  ALA317     -0.1979
     88  CA       -16.0620  -19.6570   15.4270 C.3   317  ALA317      0.1597
     89  C        -15.0540  -18.5170   15.5330 C.2   317  ALA317      0.2287
     90  O        -15.4260  -17.3810   15.8470 O.2   317  ALA317     -0.2864
     91  CB       -16.0990  -20.4740   16.7180 C.3   317  ALA317      0.0319
     92  N        -15.7830  -15.7010   12.9890 N.3   320  ILE320     -0.1245
     93  CA       -16.8790  -14.8350   13.4180 C.3   320  ILE320      0.1561
     94  C        -16.3830  -13.7990   14.4190 C.2   320  ILE320      0.2260
     95  O        -16.7440  -12.6190   14.3450 O.2   320  ILE320     -0.2867
     96  CB       -18.0270  -15.6770   14.0060 C.3   320  ILE320      0.0252
     97  CG1      -18.5380  -16.6840   12.9760 C.3   320  ILE320      0.0019
     98  CG2      -19.1620  -14.7780   14.4660 C.3   320  ILE320      0.0019
     99  CD1      -19.3870  -16.0660   11.9010 C.3   320  ILE320      0.0001
    100  N        -21.6960  -19.1140    8.1580 N.3   370  TYR370     -0.1241
    101  CA       -22.3450  -20.3940    8.4260 C.3   370  TYR370      0.1605
    102  C        -22.6540  -21.1340    7.1310 C.2   370  TYR370      0.2264
    103  O        -22.4930  -22.3580    7.0520 O.2   370  TYR370     -0.2867
    104  CB       -23.6280  -20.1820    9.2300 C.3   370  TYR370      0.0534
    105  CG       -23.4570  -19.3980   10.5140 C.ar  370  TYR370     -0.0201
    106  CD1      -22.3030  -19.5100   11.2790 C.ar  370  TYR370     -0.0009
    107  CD2      -24.4560  -18.5410   10.9590 C.ar  370  TYR370     -0.0009
    108  CE1      -22.1510  -18.7890   12.4540 C.ar  370  TYR370      0.0417
    109  CE2      -24.3120  -17.8160   12.1270 C.ar  370  TYR370      0.0417
    110  CZ       -23.1600  -17.9440   12.8700 C.ar  370  TYR370      0.1957
    111  OH       -23.0220  -17.2210   14.0340 O.3   370  TYR370     -0.2866
    112  N        -20.3880  -24.3760    7.1580 N.3   374  ILE374     -0.1245
    113  CA       -21.1400  -25.3800    7.9040 C.3   374  ILE374      0.1561
    114  C        -22.1490  -26.0090    6.9550 C.2   374  ILE374      0.2260
    115  O        -23.1320  -25.3660    6.5650 O.2   374  ILE374     -0.2867
    116  CB       -21.8310  -24.7830    9.1370 C.3   374  ILE374      0.0252
    117  CG1      -20.8210  -23.9960    9.9770 C.3   374  ILE374      0.0019
    118  CG2      -22.4680  -25.8840    9.9730 C.3   374  ILE374      0.0019
    119  CD1      -21.4300  -23.2870   11.1660 C.3   374  ILE374      0.0001
    120  N        -24.3690  -28.3250    7.4420 N.3   376  GLU376     -0.1231
    121  CA       -25.7100  -28.5030    7.9890 C.3   376  GLU376      0.1699
    122  C        -26.5230  -27.2160    7.8980 C.2   376  GLU376      0.2592
    123  O        -27.7320  -27.2570    7.6390 O.2   376  GLU376     -0.2718
    124  CB       -25.6270  -28.9920    9.4350 C.3   376  GLU376      0.0402
    125  CG       -26.9210  -29.5990    9.9540 C.3   376  GLU376      0.1161
    126  CD       -27.2880  -30.8860    9.2430 C.2   376  GLU376      0.3649
    127  OE1      -26.3670  -31.6110    8.8120 O.co2 376  GLU376     -0.2457
    128  OE2      -28.4970  -31.1710    9.1110 O.co2 376  GLU376     -0.2457
    129  N        -25.8810  -26.0640    8.1080 N.am  377  PHE377     -0.1976
    130  CA       -26.5640  -24.7900    7.9010 C.3   377  PHE377      0.1639
    131  C        -26.8540  -24.5610    6.4230 C.2   377  PHE377      0.2290
    132  O        -27.9670  -24.1710    6.0500 O.2   377  PHE377     -0.2864
    133  CB       -25.7230  -23.6390    8.4580 C.3   377  PHE377      0.0560
    134  CG       -26.0360  -23.2880    9.8830 C.ar  377  PHE377     -0.0200
    135  CD1      -27.1960  -22.6000   10.2010 C.ar  377  PHE377     -0.0042
    136  CD2      -25.1630  -23.6280   10.9030 C.ar  377  PHE377     -0.0042
    137  CE1      -27.4860  -22.2700   11.5130 C.ar  377  PHE377     -0.0003
    138  CE2      -25.4460  -23.3000   12.2160 C.ar  377  PHE377     -0.0003
    139  CZ       -26.6100  -22.6190   12.5210 C.ar  377  PHE377     -0.0000
@<TRIPOS>BOND
     1   132   131    2
     2   131   130    1
     3   115   114    2
     4   114   113    1
     5   103   102    2
     6   102   101    1
     7   112   113    1
     8    74    72   ar
     9    74    75   ar
    10   120   121    1
    11   123   122    2
    12   122   121    1
    13   122   129   am
    14   130   129    1
    15   130   133    1
    16   113   116    1
    17   121   124    1
    18    72    71   ar
    19    75    73   ar
    20   100   101    1
    21   101   104    1
    22   133   134    1
    23   127   126   ar
    24   128   126   ar
    25   116   118    1
    26   116   117    1
    27   104   105    1
    28   126   125    1
    29    73    71   ar
    30    71    70    1
    31   124   125    1
    32   134   135   ar
    33   134   136   ar
    34   117   119    1
    35   135   137   ar
    36    70    67    1
    37    86    85    1
    38   105   107   ar
    39   105   106   ar
    40   136   138   ar
    41   107   109   ar
    42     8     6   am
    43    15    14    1
    44   106   108   ar
    45    67    68    1
    46    67    66    1
    47   137   139   ar
    48    69    68    2
    49    85    82    1
    50    99    97    1
    51    82    81    1
    52    82    83    1
    53    16    14    1
    54    68    76   am
    55    14    13    1
    56   109   110   ar
    57   138   139   ar
    58     6     5    1
    59     6     7    2
    60   108   110   ar
    61     5     2    1
    62    84    83    2
    63   110   111    1
    64    76    77    1
    65    97    96    1
    66    92    93    1
    67    83    87   am
    68    93    96    1
    69    93    94    1
    70    13    10    1
    71    77    78    1
    72    77    80    1
    73     2     1    1
    74     2     3    1
    75    96    98    1
    76     9     3   am
    77     9    10    1
    78     3     4    2
    79    87    88    1
    80    95    94    2
    81    10    11    1
    82    78    79    2
    83    45    44    1
    84    88    89    1
    85    88    91    1
    86    39    37   am
    87    89    90    2
    88    11    12    2
    89    38    37    2
    90    37    36    1
    91    44    46    1
    92    44    41    1
    93    43    42    2
    94    24    22   am
    95    36    33    1
    96    42    41    1
    97    41    40    1
    98    33    34    1
    99    33    32    1
   100    22    23    2
   101    22    21    1
   102    35    34    2
   103    64    63    1
   104    61    60    1
   105    61    62    1
   106    54    52    1
   107    17    18    1
   108    32    27   am
   109    31    29    1
   110    53    51    1
   111    21    18    1
   112    60    59    1
   113    29    30    1
   114    29    26    1
   115    63    62    2
   116    63    65    1
   117    28    27    2
   118    27    26    1
   119    18    19    1
   120    52    51    1
   121    51    48    1
   122    59    56    1
   123    26    25    1
   124    20    19    2
   125    56    57    1
   126    56    55    1
   127    50    49    2
   128    48    49    1
   129    48    47    1
   130    58    57    2
