@<TRIPOS>MOLECULE
tmp/5iuaA17.pdb
 193 186 0 0 0
SMALL
GASTEIGER

@<TRIPOS>ATOM
      1  N        -30.6720    9.6930   15.5160 N.3    68  ILE68      -0.1231
      2  CA       -29.6880   10.5250   16.1990 C.3    68  ILE68       0.1692
      3  C        -28.8110   11.2930   15.2150 C.2    68  ILE68       0.2592
      4  O        -28.2200   12.3150   15.5840 O.2    68  ILE68      -0.2718
      5  CB       -28.8340    9.6610   17.1470 C.3    68  ILE68       0.0266
      6  CG1      -28.1040   10.5350   18.1680 C.3    68  ILE68       0.0019
      7  CG2      -27.8440    8.8150   16.3630 C.3    68  ILE68       0.0020
      8  CD1      -27.3030    9.7420   19.1730 C.3    68  ILE68       0.0001
      9  N        -28.7160   10.8350   13.9650 N.am   69  SER69      -0.1952
     10  CA       -27.9430   11.5620   12.9630 C.3    69  SER69       0.1924
     11  C        -28.5980   12.8870   12.5880 C.2    69  SER69       0.2314
     12  O        -27.9350   13.7480   12.0010 O.2    69  SER69      -0.2863
     13  CB       -27.7480   10.7020   11.7100 C.3    69  SER69       0.2116
     14  OG       -28.9640   10.5490   10.9960 O.3    69  SER69      -0.2180
     15  N        -27.5010    0.3920   21.0320 N.3    86  VAL86      -0.1231
     16  CA       -26.6160   -0.4040   20.1840 C.3    86  VAL86       0.1692
     17  C        -25.4760   -0.9990   21.0010 C.2    86  VAL86       0.2591
     18  O        -24.9750   -2.0860   20.6830 O.2    86  VAL86      -0.2718
     19  CB       -26.0930    0.4440   19.0040 C.3    86  VAL86       0.0266
     20  CG1      -25.2130    1.5820   19.5000 C.3    86  VAL86       0.0020
     21  CG2      -25.3430   -0.4290   18.0000 C.3    86  VAL86       0.0020
     22  N        -25.0580   -0.3140   22.0720 N.am   87  LEU87      -0.1980
     23  CA       -24.0160   -0.8520   22.9410 C.3    87  LEU87       0.1596
     24  C        -24.4940   -2.0900   23.6880 C.2    87  LEU87       0.2287
     25  O        -23.6830   -2.9600   24.0280 O.2    87  LEU87      -0.2864
     26  CB       -23.5560    0.2150   23.9330 C.3    87  LEU87       0.0297
     27  CG       -23.1440    1.5490   23.3170 C.3    87  LEU87       0.0022
     28  CD1      -22.7210    2.5270   24.4010 C.3    87  LEU87       0.0001
     29  CD2      -22.0300    1.3370   22.3060 C.3    87  LEU87       0.0001
     30  N        -24.1960   -4.8760   21.0520 N.3    90  ALA90      -0.1245
     31  CA       -22.7890   -5.2000   20.8420 C.3    90  ALA90       0.1562
     32  C        -22.2280   -5.9920   22.0170 C.2    90  ALA90       0.2260
     33  O        -21.4560   -6.9390   21.8220 O.2    90  ALA90      -0.2867
     34  CB       -21.9820   -3.9220   20.6120 C.3    90  ALA90       0.0290
     35  N        -26.3400   25.2280   21.4540 N.3   155  LYS155     -0.1245
     36  CA       -26.7840   24.3640   20.3670 C.3   155  LYS155      0.1561
     37  C        -28.2810   24.0930   20.4570 C.2   155  LYS155      0.2260
     38  O        -28.9720   24.0590   19.4320 O.2   155  LYS155     -0.2867
     39  CB       -25.9910   23.0580   20.3800 C.3   155  LYS155      0.0271
     40  CG       -26.3020   22.1240   19.2220 C.3   155  LYS155      0.0035
     41  CD       -25.3390   20.9510   19.1990 C.3   155  LYS155      0.0206
     42  CE       -23.9060   21.4250   19.0220 C.3   155  LYS155      0.1093
     43  NZ       -22.9400   20.2940   19.0410 N.3   155  LYS155     -0.1314
     44  N        -27.2500   14.4660   19.9090 N.3   169  LEU169     -0.1231
     45  CA       -26.0450   14.0840   19.1850 C.3   169  LEU169      0.1693
     46  C        -25.2060   13.1730   20.0680 C.2   169  LEU169      0.2592
     47  O        -25.0840   13.4100   21.2740 O.2   169  LEU169     -0.2718
     48  CB       -25.2440   15.3190   18.7640 C.3   169  LEU169      0.0284
     49  CG       -25.9520   16.2250   17.7550 C.3   169  LEU169      0.0019
     50  CD1      -25.2270   17.5520   17.6000 C.3   169  LEU169      0.0001
     51  CD2      -26.0690   15.5170   16.4140 C.3   169  LEU169      0.0001
     52  N        -24.6240   12.1380   19.4570 N.am  170  PHE170     -0.1962
     53  CA       -23.9590   11.0870   20.2240 C.3   170  PHE170      0.1771
     54  C        -22.8480   11.6490   21.1030 C.2   170  PHE170      0.2619
     55  O        -22.8320   11.4340   22.3200 O.2   170  PHE170     -0.2715
     56  CB       -23.4030   10.0150   19.2820 C.3   170  PHE170      0.0574
     57  CG       -22.7920    8.8380   19.9980 C.ar  170  PHE170     -0.0200
     58  CD1      -23.5520    7.7180   20.2880 C.ar  170  PHE170     -0.0042
     59  CD2      -21.4620    8.8600   20.3940 C.ar  170  PHE170     -0.0042
     60  CE1      -22.9940    6.6370   20.9510 C.ar  170  PHE170     -0.0003
     61  CE2      -20.9020    7.7870   21.0620 C.ar  170  PHE170     -0.0003
     62  CZ       -21.6690    6.6730   21.3380 C.ar  170  PHE170     -0.0000
     63  N        -21.8950   12.3580   20.5000 N.am  171  GLU171     -0.1977
     64  CA       -20.7470   12.8320   21.2630 C.3   171  GLU171      0.1602
     65  C        -21.0810   14.0030   22.1760 C.2   171  GLU171      0.2287
     66  O        -20.2030   14.4510   22.9200 O.2   171  GLU171     -0.2864
     67  CB       -19.6020   13.2030   20.3150 C.3   171  GLU171      0.0415
     68  CG       -19.0960   12.0260   19.4780 C.3   171  GLU171      0.1163
     69  CD       -17.7890   12.3200   18.7570 C.2   171  GLU171      0.3649
     70  OE1      -17.1520   13.3550   19.0530 O.co2 171  GLU171     -0.2457
     71  OE2      -17.3980   11.5080   17.8930 O.co2 171  GLU171     -0.2457
     72  N        -16.9520   10.5280   26.3450 N.3   176  MET176     -0.1245
     73  CA       -15.9560    9.7820   25.5850 C.3   176  MET176      0.1570
     74  C        -15.0890    8.9150   26.4900 C.2   176  MET176      0.2261
     75  O        -14.5780    7.8820   26.0430 O.2   176  MET176     -0.2867
     76  CB       -15.0940   10.7370   24.7600 C.3   176  MET176      0.0387
     77  CG       -14.3550   10.0530   23.6240 C.3   176  MET176      0.0595
     78  SD       -15.4650    9.2470   22.4500 S.3   176  MET176     -0.1393
     79  CE       -15.9440   10.6310   21.4210 C.3   176  MET176      0.0692
     80  N        -16.7630    5.7180   26.6680 N.3   179  MET179     -0.1245
     81  CA       -16.6420    4.9830   25.4130 C.3   179  MET179      0.1570
     82  C        -15.2690    4.3450   25.2500 C.2   179  MET179      0.2261
     83  O        -15.1580    3.2730   24.6460 O.2   179  MET179     -0.2867
     84  CB       -16.9230    5.9110   24.2300 C.3   179  MET179      0.0387
     85  CG       -18.3650    6.3580   24.1180 C.3   179  MET179      0.0595
     86  SD       -19.4800    4.9570   23.9390 S.3   179  MET179     -0.1393
     87  CE       -18.8720    4.2270   22.4200 C.3   179  MET179      0.0692
     88  N        -16.2850    1.1090   27.8320 N.3   183  ASN183     -0.1240
     89  CA       -16.8820    0.3060   26.7720 C.3   183  ASN183      0.1653
     90  C        -15.8120   -0.3960   25.9430 C.2   183  ASN183      0.2266
     91  O        -15.8230   -1.6250   25.8130 O.2   183  ASN183     -0.2867
     92  CB       -17.7780    1.1790   25.8900 C.3   183  ASN183      0.1155
     93  CG       -18.6380    0.3610   24.9430 C.2   183  ASN183      0.2627
     94  OD1      -18.2600    0.1160   23.7990 O.2   183  ASN183     -0.2716
     95  ND2      -19.7980   -0.0780   25.4230 N.am  183  ASN183     -0.0877
     96  N        -15.9050   -3.5020   14.1190 N.3   328  TRP328     -0.1241
     97  CA       -16.1130   -2.5610   15.2160 C.3   328  TRP328      0.1605
     98  C        -14.8680   -1.7680   15.5970 C.2   328  TRP328      0.2264
     99  O        -15.0060   -0.6650   16.1370 O.2   328  TRP328     -0.2867
    100  CB       -16.6350   -3.2930   16.4560 C.3   328  TRP328      0.0550
    101  CG       -18.0900   -3.6160   16.3750 C.ar  328  TRP328      0.0003
    102  CD1      -18.6480   -4.8070   16.0120 C.ar  328  TRP328      0.0946
    103  CD2      -19.1810   -2.7280   16.6510 C.ar  328  TRP328      0.0152
    104  NE1      -20.0180   -4.7170   16.0510 N.ar  328  TRP328     -0.2442
    105  CE2      -20.3710   -3.4510   16.4380 C.ar  328  TRP328      0.0810
    106  CE3      -19.2670   -1.3920   17.0560 C.ar  328  TRP328      0.0012
    107  CZ2      -21.6310   -2.8850   16.6210 C.ar  328  TRP328      0.0191
    108  CZ3      -20.5210   -0.8310   17.2340 C.ar  328  TRP328      0.0001
    109  CH2      -21.6840   -1.5760   17.0160 C.ar  328  TRP328      0.0015
    110  N        -14.4090    2.1920   14.4860 N.3   331  LEU331     -0.1231
    111  CA       -15.1970    3.1490   15.2570 C.3   331  LEU331      0.1693
    112  C        -14.5990    3.3620   16.6450 C.2   331  LEU331      0.2592
    113  O        -14.5320    4.4960   17.1340 O.2   331  LEU331     -0.2718
    114  CB       -16.6480    2.6690   15.3510 C.3   331  LEU331      0.0284
    115  CG       -17.7230    3.6600   15.8110 C.3   331  LEU331      0.0019
    116  CD1      -17.6080    4.9830   15.0690 C.3   331  LEU331      0.0001
    117  CD2      -19.1120    3.0660   15.6140 C.3   331  LEU331      0.0001
    118  N        -14.1450    2.2830   17.2900 N.am  332  HIS332     -0.1976
    119  CA       -13.5080    2.4140   18.5970 C.3   332  HIS332      0.1656
    120  C        -12.1940    3.1790   18.5020 C.2   332  HIS332      0.2291
    121  O        -11.8760    3.9900   19.3790 O.2   332  HIS332     -0.2864
    122  CB       -13.2670    1.0340   19.2030 C.3   332  HIS332      0.0771
    123  CG       -14.5110    0.3510   19.6800 C.ar  332  HIS332      0.0820
    124  ND1      -15.1920    0.7500   20.8090 N.ar  332  HIS332     -0.2267
    125  CD2      -15.1840   -0.7180   19.1920 C.ar  332  HIS332      0.1154
    126  CE1      -16.2380   -0.0370   20.9900 C.ar  332  HIS332      0.1986
    127  NE2      -16.2560   -0.9350   20.0220 N.ar  332  HIS332     -0.2212
    128  N        -12.7850    6.8780   18.2650 N.3   335  ASN335     -0.1240
    129  CA       -13.0750    7.4350   19.5830 C.3   335  ASN335      0.1653
    130  C        -11.8030    7.6240   20.4020 C.2   335  ASN335      0.2266
    131  O        -11.6990    8.5880   21.1700 O.2   335  ASN335     -0.2867
    132  CB       -14.0720    6.5400   20.3270 C.3   335  ASN335      0.1155
    133  CG       -15.4840    6.6180   19.7460 C.2   335  ASN335      0.2627
    134  OD1      -15.8500    7.6000   19.1000 O.2   335  ASN335     -0.2716
    135  ND2      -16.2800    5.5830   19.9830 N.am  335  ASN335     -0.0877
    136  N        -10.8390   16.6340   14.6120 N.3   346  HIS346     -0.1226
    137  CA       -11.7810   15.5290   14.7150 C.3   346  HIS346      0.1752
    138  C        -11.8740   14.7930   13.3850 C.2   346  HIS346      0.2596
    139  O        -11.7920   15.4050   12.3170 O.2   346  HIS346     -0.2718
    140  CB       -13.1610   16.0420   15.1300 C.3   346  HIS346      0.0759
    141  CG       -14.0630   14.9750   15.6700 C.ar  346  HIS346      0.0818
    142  ND1      -14.5440   13.9420   14.8950 N.ar  346  HIS346     -0.2268
    143  CD2      -14.5710   14.7830   16.9100 C.ar  346  HIS346      0.1154
    144  CE1      -15.3080   13.1580   15.6340 C.ar  346  HIS346      0.1986
    145  NE2      -15.3400   13.6450   16.8610 N.ar  346  HIS346     -0.2212
    146  N        -12.0130   13.4710   13.4550 N.am  347  ALA347     -0.1966
    147  CA       -12.2040   12.6870   12.2450 C.3   347  ALA347      0.1713
    148  C        -13.3750   13.2590   11.4500 C.2   347  ALA347      0.2458
    149  O        -14.3960   13.6350   12.0390 O.2   347  ALA347     -0.2730
    150  CB       -12.4600   11.2170   12.5850 C.3   347  ALA347      0.0333
    151  N        -13.2590   13.3620   10.1270 N.am  348  PRO348     -0.2716
    152  CA       -14.3000   14.0370    9.3460 C.3   348  PRO348      0.1536
    153  C        -15.6330   13.3080    9.4310 C.2   348  PRO348      0.2598
    154  O        -15.7110   12.1240    9.7680 O.2   348  PRO348     -0.2715
    155  CB       -13.7440   14.0250    7.9170 C.3   348  PRO348      0.0310
    156  CG       -12.7500   12.9180    7.9010 C.3   348  PRO348      0.0237
    157  CD       -12.1660   12.8580    9.2800 C.3   348  PRO348      0.0939
    158  N        -16.6950   14.0520    9.1140 N.am  349  LEU349     -0.1978
    159  CA       -18.0490   13.5310    9.2590 C.3   349  LEU349      0.1596
    160  C        -18.2790   12.3070    8.3790 C.2   349  LEU349      0.2287
    161  O        -18.9090   11.3350    8.8130 O.2   349  LEU349     -0.2864
    162  CB       -19.0620   14.6260    8.9280 C.3   349  LEU349      0.0297
    163  CG       -20.5370   14.2910    9.1380 C.3   349  LEU349      0.0022
    164  CD1      -20.9090   14.4510   10.6020 C.3   349  LEU349      0.0001
    165  CD2      -21.4130   15.1600    8.2500 C.3   349  LEU349      0.0001
    166  N        -16.8150    9.2710   10.0650 N.3   352  MET352     -0.1230
    167  CA       -17.6170    8.8120   11.1940 C.3   352  MET352      0.1702
    168  C        -18.7220    7.8780   10.7230 C.2   352  MET352      0.2592
    169  O        -18.9080    6.7860   11.2720 O.2   352  MET352     -0.2718
    170  CB       -18.2140   10.0040   11.9450 C.3   352  MET352      0.0401
    171  CG       -17.1960   10.9720   12.5230 C.3   352  MET352      0.0596
    172  SD       -16.0850   10.1790   13.6960 S.3   352  MET352     -0.1393
    173  CE       -17.2560    9.4360   14.8290 C.3   352  MET352      0.0692
    174  N        -19.4600    8.2870    9.6930 N.am  353  TYR353     -0.1976
    175  CA       -20.5750    7.4790    9.2250 C.3   353  TYR353      0.1639
    176  C        -20.1220    6.2750    8.4130 C.2   353  TYR353      0.2290
    177  O        -20.8440    5.2730    8.3680 O.2   353  TYR353     -0.2864
    178  CB       -21.5510    8.3540    8.4390 C.3   353  TYR353      0.0560
    179  CG       -22.3380    9.2580    9.3630 C.ar  353  TYR353     -0.0198
    180  CD1      -23.4140    8.7640   10.0880 C.ar  353  TYR353     -0.0009
    181  CD2      -21.9820   10.5860    9.5480 C.ar  353  TYR353     -0.0009
    182  CE1      -24.1290    9.5680   10.9490 C.ar  353  TYR353      0.0417
    183  CE2      -22.6950   11.4010   10.4100 C.ar  353  TYR353      0.0417
    184  CZ       -23.7660   10.8840   11.1080 C.ar  353  TYR353      0.1957
    185  OH       -24.4790   11.6830   11.9690 O.3   353  TYR353     -0.2866
    186  N        -19.5840    3.9220   11.1960 N.3   356  ILE356     -0.1245
    187  CA       -20.8610    3.4840   11.7480 C.3   356  ILE356      0.1561
    188  C        -21.4980    2.4270   10.8520 C.2   356  ILE356      0.2260
    189  O        -21.9920    1.4020   11.3360 O.2   356  ILE356     -0.2867
    190  CB       -21.7930    4.6930   11.9600 C.3   356  ILE356      0.0252
    191  CG1      -21.2620    5.5910   13.0830 C.3   356  ILE356      0.0019
    192  CG2      -23.2150    4.2370   12.2660 C.3   356  ILE356      0.0019
    193  CD1      -22.0230    6.8970   13.2340 C.3   356  ILE356      0.0001
@<TRIPOS>BOND
     1   156   155    1
     2   156   157    1
     3   155   152    1
     4   165   163    1
     5   177   176    2
     6   160   161    2
     7   160   159    1
     8   176   175    1
     9   178   175    1
    10   178   179    1
    11   162   163    1
    12   162   159    1
    13   158   159    1
    14   158   153   am
    15   163   164    1
    16   175   174    1
    17   157   151    1
    18   152   153    1
    19   152   151    1
    20   179   181   ar
    21   179   180   ar
    22   153   154    2
    23   181   183   ar
    24   174   168   am
    25   166   167    1
    26   180   182   ar
    27   151   148   am
    28   183   184   ar
    29   168   167    1
    30   168   169    2
    31   188   189    2
    32   188   187    1
    33   182   184   ar
    34    14    13    1
    35   184   185    1
    36   167   170    1
    37   186   187    1
    38   148   149    2
    39   148   147    1
    40    13    10    1
    41   187   190    1
    42   170   171    1
    43   190   192    1
    44   190   191    1
    45    12    11    2
    46   147   150    1
    47   147   146    1
    48   139   138    2
    49   171   172    1
    50    11    10    1
    51    10     9    1
    52   191   193    1
    53   138   146   am
    54   138   137    1
    55   172   173    1
    56     9     3   am
    57    96    97    1
    58   110   111    1
    59   136   137    1
    60   137   140    1
    61   142   144   ar
    62   142   141   ar
    63   116   115    1
    64   140   141    1
    65     3     4    2
    66     3     2    1
    67    97    98    1
    68    97   100    1
    69   111   114    1
    70   111   112    1
    71   114   115    1
    72     1     2    1
    73    98    99    2
    74   117   115    1
    75   144   145   ar
    76   141   143   ar
    77   102   104   ar
    78   102   101   ar
    79   104   105   ar
    80     2     5    1
    81     7     5    1
    82   101   100    1
    83   101   103   ar
    84    51    49    1
    85   105   107   ar
    86   105   103   ar
    87   107   109   ar
    88   112   113    2
    89   112   118   am
    90   103   106   ar
    91   145   143   ar
    92   109   108   ar
    93   106   108   ar
    94     5     6    1
    95   118   119    1
    96    50    49    1
    97    49    48    1
    98    71    69   ar
    99    21    19    1
   100     6     8    1
   101   128   129    1
   102   120   119    1
   103   120   121    2
   104   119   122    1
   105    69    70   ar
   106    69    68    1
   107    48    45    1
   108    19    20    1
   109    19    16    1
   110    42    43    1
   111    42    41    1
   112   134   133    2
   113    45    44    1
   114    45    46    1
   115   125   123   ar
   116   125   127   ar
   117    41    40    1
   118   122   123    1
   119    40    39    1
   120    56    57    1
   121    56    53    1
   122    38    37    2
   123    52    46   am
   124    52    53    1
   125    68    67    1
   126   129   132    1
   127   129   130    1
   128   123   124   ar
   129   133   135   am
   130   133   132    1
   131    57    58   ar
   132    57    59   ar
   133   127   126   ar
   134    46    47    2
   135    16    17    1
   136    16    15    1
   137    53    54    1
   138    58    60   ar
   139    67    64    1
   140    36    39    1
   141    36    37    1
   142    36    35    1
   143    59    61   ar
   144   130   131    2
   145    63    54   am
   146    63    64    1
   147    34    31    1
   148    18    17    2
   149   124   126   ar
   150    31    30    1
   151    31    32    1
   152    60    62   ar
   153    17    22   am
   154    61    62   ar
   155    54    55    2
   156    64    65    1
   157    79    78    1
   158    33    32    2
   159    22    23    1
   160    65    66    2
   161    29    27    1
   162    87    86    1
   163    78    77    1
   164    23    24    1
   165    23    26    1
   166    27    26    1
   167    27    28    1
   168    77    76    1
   169    24    25    2
   170    94    93    2
   171    86    85    1
   172    85    84    1
   173    84    81    1
   174    83    82    2
   175    76    73    1
   176    93    95   am
   177    93    92    1
   178    82    81    1
   179    81    80    1
   180    73    72    1
   181    73    74    1
   182    91    90    2
   183    92    89    1
   184    90    89    1
   185    75    74    2
   186    89    88    1
