@<TRIPOS>MOLECULE
tmp/5iubA15.pdb
 184 178 0 0 0
SMALL
GASTEIGER

@<TRIPOS>ATOM
      1  N        -30.4700    9.7130   15.4200 N.3    68  ILE68      -0.1231
      2  CA       -29.5070   10.5490   16.1300 C.3    68  ILE68       0.1692
      3  C        -28.5920   11.3160   15.1830 C.2    68  ILE68       0.2592
      4  O        -27.9820   12.3110   15.5940 O.2    68  ILE68      -0.2718
      5  CB       -28.6820    9.7010   17.1130 C.3    68  ILE68       0.0266
      6  CG1      -28.0520   10.5920   18.1870 C.3    68  ILE68       0.0019
      7  CG2      -27.6200    8.8890   16.3740 C.3    68  ILE68       0.0020
      8  CD1      -27.3570    9.8310   19.2880 C.3    68  ILE68       0.0001
      9  N        -28.4860   10.8930   13.9220 N.am   69  SER69      -0.1952
     10  CA       -27.6870   11.6310   12.9500 C.3    69  SER69       0.1924
     11  C        -28.3220   12.9560   12.5480 C.2    69  SER69       0.2314
     12  O        -27.6380   13.7930   11.9500 O.2    69  SER69      -0.2863
     13  CB       -27.4490   10.7770   11.7010 C.3    69  SER69       0.2116
     14  OG       -28.6410   10.6230   10.9490 O.3    69  SER69      -0.2180
     15  N        -27.3920    0.5200   20.9810 N.3    86  VAL86      -0.1231
     16  CA       -26.5120   -0.2760   20.1320 C.3    86  VAL86       0.1692
     17  C        -25.3590   -0.8530   20.9450 C.2    86  VAL86       0.2591
     18  O        -24.8240   -1.9170   20.6110 O.2    86  VAL86      -0.2718
     19  CB       -26.0120    0.5690   18.9420 C.3    86  VAL86       0.0266
     20  CG1      -25.0950    1.6870   19.4190 C.3    86  VAL86       0.0020
     21  CG2      -25.3190   -0.3120   17.9080 C.3    86  VAL86       0.0020
     22  N        -24.9710   -0.1810   22.0320 N.am   87  LEU87      -0.1980
     23  CA       -23.9290   -0.7240   22.8970 C.3    87  LEU87       0.1596
     24  C        -24.4130   -1.9600   23.6440 C.2    87  LEU87       0.2287
     25  O        -23.6090   -2.8400   23.9720 O.2    87  LEU87      -0.2864
     26  CB       -23.4560    0.3410   23.8850 C.3    87  LEU87       0.0297
     27  CG       -23.0020    1.6670   23.2750 C.3    87  LEU87       0.0022
     28  CD1      -22.6120    2.6490   24.3710 C.3    87  LEU87       0.0001
     29  CD2      -21.8500    1.4390   22.3100 C.3    87  LEU87       0.0001
     30  N        -24.1150   -4.6800   20.8960 N.3    90  ALA90      -0.1245
     31  CA       -22.7100   -5.0120   20.6970 C.3    90  ALA90       0.1562
     32  C        -22.1600   -5.7940   21.8830 C.2    90  ALA90       0.2260
     33  O        -21.4080   -6.7600   21.7060 O.2    90  ALA90      -0.2867
     34  CB       -21.8960   -3.7390   20.4640 C.3    90  ALA90       0.0290
     35  N        -27.0900   14.4860   19.8060 N.3   169  LEU169     -0.1231
     36  CA       -25.9020   14.0920   19.0650 C.3   169  LEU169      0.1693
     37  C        -25.0650   13.1700   19.9380 C.2   169  LEU169      0.2592
     38  O        -24.9150   13.4110   21.1390 O.2   169  LEU169     -0.2718
     39  CB       -25.0900   15.3150   18.6270 C.3   169  LEU169      0.0284
     40  CG       -25.8020   16.2060   17.6050 C.3   169  LEU169      0.0019
     41  CD1      -25.1040   17.5480   17.4670 C.3   169  LEU169      0.0001
     42  CD2      -25.8870   15.5030   16.2580 C.3   169  LEU169      0.0001
     43  N        -24.5290   12.1110   19.3250 N.am  170  PHE170     -0.1962
     44  CA       -23.8640   11.0490   20.0800 C.3   170  PHE170      0.1771
     45  C        -22.7360   11.5920   20.9510 C.2   170  PHE170      0.2619
     46  O        -22.7290   11.4010   22.1730 O.2   170  PHE170     -0.2715
     47  CB       -23.3350    9.9770   19.1240 C.3   170  PHE170      0.0574
     48  CG       -22.7650    8.7680   19.8200 C.ar  170  PHE170     -0.0200
     49  CD1      -23.5510    7.6530   20.0570 C.ar  170  PHE170     -0.0042
     50  CD2      -21.4420    8.7500   20.2390 C.ar  170  PHE170     -0.0042
     51  CE1      -23.0300    6.5410   20.6970 C.ar  170  PHE170     -0.0003
     52  CE2      -20.9160    7.6470   20.8800 C.ar  170  PHE170     -0.0003
     53  CZ       -21.7110    6.5390   21.1090 C.ar  170  PHE170     -0.0000
     54  N        -21.7690   12.2740   20.3400 N.am  171  GLU171     -0.1977
     55  CA       -20.6130   12.7390   21.0960 C.3   171  GLU171      0.1602
     56  C        -20.9360   13.9030   22.0230 C.2   171  GLU171      0.2287
     57  O        -20.0850   14.2730   22.8380 O.2   171  GLU171     -0.2864
     58  CB       -19.4830   13.1200   20.1390 C.3   171  GLU171      0.0415
     59  CG       -18.9840   11.9420   19.3150 C.3   171  GLU171      0.1163
     60  CD       -17.6950   12.2360   18.5720 C.2   171  GLU171      0.3649
     61  OE1      -17.0880   13.3010   18.8110 O.co2 171  GLU171     -0.2457
     62  OE2      -17.2870   11.3940   17.7460 O.co2 171  GLU171     -0.2457
     63  N        -16.7650   10.5300   26.1930 N.3   176  MET176     -0.1245
     64  CA       -15.7840    9.7500   25.4530 C.3   176  MET176      0.1570
     65  C        -14.8880    8.9250   26.3710 C.2   176  MET176      0.2261
     66  O        -14.3170    7.9270   25.9210 O.2   176  MET176     -0.2867
     67  CB       -14.9420   10.6690   24.5670 C.3   176  MET176      0.0387
     68  CG       -14.2970    9.9570   23.3890 C.3   176  MET176      0.0595
     69  SD       -15.4850    9.2620   22.2200 S.3   176  MET176     -0.1393
     70  CE       -16.0210   10.7410   21.3650 C.3   176  MET176      0.0692
     71  N        -16.6600    5.7970   26.5520 N.3   179  MET179     -0.1245
     72  CA       -16.5610    5.0550   25.3000 C.3   179  MET179      0.1570
     73  C        -15.2020    4.3890   25.1350 C.2   179  MET179      0.2261
     74  O        -15.1080    3.3260   24.5110 O.2   179  MET179     -0.2867
     75  CB       -16.8400    5.9850   24.1190 C.3   179  MET179      0.0387
     76  CG       -18.2900    6.4290   24.0170 C.3   179  MET179      0.0595
     77  SD       -19.4170    5.0260   23.8810 S.3   179  MET179     -0.1393
     78  CE       -18.8760    4.3150   22.3280 C.3   179  MET179      0.0692
     79  N        -16.2020    1.2210   27.8110 N.3   183  ASN183     -0.1240
     80  CA       -16.8150    0.4030   26.7700 C.3   183  ASN183      0.1653
     81  C        -15.7600   -0.3060   25.9270 C.2   183  ASN183      0.2266
     82  O        -15.7860   -1.5340   25.7910 O.2   183  ASN183     -0.2867
     83  CB       -17.7300    1.2560   25.8890 C.3   183  ASN183      0.1155
     84  CG       -18.5460    0.4190   24.9150 C.2   183  ASN183      0.2627
     85  OD1      -18.1410    0.2010   23.7730 O.2   183  ASN183     -0.2716
     86  ND2      -19.7010   -0.0580   25.3680 N.am  183  ASN183     -0.0877
     87  N        -15.8980   -3.4990   14.0480 N.3   329  TRP329     -0.1241
     88  CA       -16.1160   -2.5490   15.1340 C.3   329  TRP329      0.1605
     89  C        -14.8700   -1.7730   15.5340 C.2   329  TRP329      0.2264
     90  O        -14.9940   -0.6490   16.0320 O.2   329  TRP329     -0.2867
     91  CB       -16.6680   -3.2680   16.3710 C.3   329  TRP329      0.0550
     92  CG       -18.1290   -3.5800   16.2760 C.ar  329  TRP329      0.0003
     93  CD1      -18.6930   -4.7660   15.9050 C.ar  329  TRP329      0.0946
     94  CD2      -19.2160   -2.6870   16.5500 C.ar  329  TRP329      0.0152
     95  NE1      -20.0630   -4.6680   15.9350 N.ar  329  TRP329     -0.2442
     96  CE2      -20.4090   -3.4020   16.3280 C.ar  329  TRP329      0.0810
     97  CE3      -19.2950   -1.3540   16.9640 C.ar  329  TRP329      0.0012
     98  CZ2      -21.6660   -2.8290   16.5050 C.ar  329  TRP329      0.0191
     99  CZ3      -20.5440   -0.7870   17.1390 C.ar  329  TRP329      0.0001
    100  CH2      -21.7120   -1.5230   16.9100 C.ar  329  TRP329      0.0015
    101  N        -14.3380    2.1640   14.4340 N.3   332  LEU332     -0.1231
    102  CA       -15.1020    3.1360   15.2090 C.3   332  LEU332      0.1693
    103  C        -14.5030    3.3250   16.5990 C.2   332  LEU332      0.2592
    104  O        -14.4100    4.4530   17.0960 O.2   332  LEU332     -0.2718
    105  CB       -16.5610    2.6880   15.2970 C.3   332  LEU332      0.0284
    106  CG       -17.6100    3.6720   15.8160 C.3   332  LEU332      0.0019
    107  CD1      -17.4810    5.0230   15.1280 C.3   332  LEU332      0.0001
    108  CD2      -18.9980    3.0910   15.5930 C.3   332  LEU332      0.0001
    109  N        -14.0830    2.2290   17.2380 N.am  333  HIS333     -0.1976
    110  CA       -13.4340    2.3320   18.5410 C.3   333  HIS333      0.1656
    111  C        -12.1160    3.0910   18.4490 C.2   333  HIS333      0.2291
    112  O        -11.7920    3.8990   19.3270 O.2   333  HIS333     -0.2864
    113  CB       -13.1930    0.9400   19.1210 C.3   333  HIS333      0.0771
    114  CG       -14.4320    0.2550   19.6070 C.ar  333  HIS333      0.0820
    115  ND1      -15.1440    0.6940   20.7020 N.ar  333  HIS333     -0.2267
    116  CD2      -15.0670   -0.8570   19.1660 C.ar  333  HIS333      0.1154
    117  CE1      -16.1730   -0.1090   20.9070 C.ar  333  HIS333      0.1986
    118  NE2      -16.1490   -1.0580   19.9880 N.ar  333  HIS333     -0.2212
    119  N        -12.7080    6.8090   18.1060 N.3   336  ASN336     -0.1240
    120  CA       -13.0220    7.3550   19.4230 C.3   336  ASN336      0.1653
    121  C        -11.7670    7.5480   20.2630 C.2   336  ASN336      0.2266
    122  O        -11.6910    8.4960   21.0530 O.2   336  ASN336     -0.2867
    123  CB       -14.0130    6.4460   20.1530 C.3   336  ASN336      0.1155
    124  CG       -15.4170    6.5390   19.5850 C.2   336  ASN336      0.2627
    125  OD1      -15.7610    7.5050   18.9050 O.2   336  ASN336     -0.2716
    126  ND2      -16.2410    5.5390   19.8750 N.am  336  ASN336     -0.0877
    127  N        -10.6550   16.5230   14.4350 N.3   347  HIS347     -0.1226
    128  CA       -11.6240   15.4400   14.5340 C.3   347  HIS347      0.1752
    129  C        -11.7070   14.6850   13.2140 C.2   347  HIS347      0.2596
    130  O        -11.6240   15.2800   12.1360 O.2   347  HIS347     -0.2718
    131  CB       -13.0000   15.9920   14.9130 C.3   347  HIS347      0.0759
    132  CG       -13.9620   14.9510   15.3980 C.ar  347  HIS347      0.0818
    133  ND1      -14.4600   13.9560   14.5830 N.ar  347  HIS347     -0.2268
    134  CD2      -14.5260   14.7580   16.6140 C.ar  347  HIS347      0.1154
    135  CE1      -15.2820   13.1910   15.2790 C.ar  347  HIS347      0.1986
    136  NE2      -15.3400   13.6560   16.5130 N.ar  347  HIS347     -0.2212
    137  N        -11.8320   13.3650   13.3080 N.am  348  ALA348     -0.1966
    138  CA       -12.0250   12.5540   12.1180 C.3   348  ALA348      0.1713
    139  C        -13.1830   13.1200   11.2980 C.2   348  ALA348      0.2458
    140  O        -14.2140   13.5020   11.8680 O.2   348  ALA348     -0.2730
    141  CB       -12.3040   11.0980   12.5000 C.3   348  ALA348      0.0333
    142  N        -13.0440   13.2110    9.9760 N.am  349  PRO349     -0.2716
    143  CA       -14.0590   13.9000    9.1730 C.3   349  PRO349      0.1536
    144  C        -15.4040   13.1930    9.2200 C.2   349  PRO349      0.2598
    145  O        -15.5180   12.0270    9.6080 O.2   349  PRO349     -0.2715
    146  CB       -13.4660   13.8840    7.7570 C.3   349  PRO349      0.0310
    147  CG       -12.4950   12.7520    7.7630 C.3   349  PRO349      0.0237
    148  CD       -11.9390   12.6910    9.1550 C.3   349  PRO349      0.0939
    149  N        -16.4380   13.9330    8.8150 N.am  350  LEU350     -0.1978
    150  CA       -17.8020   13.4190    8.8930 C.3   350  LEU350      0.1596
    151  C        -17.9750   12.1630    8.0490 C.2   350  LEU350      0.2287
    152  O        -18.5980   11.1910    8.4930 O.2   350  LEU350     -0.2864
    153  CB       -18.7890   14.4980    8.4510 C.3   350  LEU350      0.0297
    154  CG       -20.2720   14.1450    8.5580 C.3   350  LEU350      0.0022
    155  CD1      -20.8130   14.5290    9.9250 C.3   350  LEU350      0.0001
    156  CD2      -21.0570   14.8240    7.4500 C.3   350  LEU350      0.0001
    157  N        -16.5440    9.1740    9.8840 N.3   353  MET353     -0.1230
    158  CA       -17.3670    8.7660   11.0170 C.3   353  MET353      0.1702
    159  C        -18.5080    7.8700   10.5630 C.2   353  MET353      0.2592
    160  O        -18.7390    6.7960   11.1310 O.2   353  MET353     -0.2718
    161  CB       -17.9200    9.9940   11.7440 C.3   353  MET353      0.0401
    162  CG       -16.8720   10.8900   12.3660 C.3   353  MET353      0.0596
    163  SD       -15.8310   10.0190   13.5480 S.3   353  MET353     -0.1393
    164  CE       -17.0490    9.3750   14.6940 C.3   353  MET353      0.0692
    165  N        -19.2320    8.2920    9.5260 N.am  354  TYR354     -0.1976
    166  CA       -20.3820    7.5130    9.0920 C.3   354  TYR354      0.1639
    167  C        -19.9620    6.2840    8.2970 C.2   354  TYR354      0.2290
    168  O        -20.7090    5.3020    8.2460 O.2   354  TYR354     -0.2864
    169  CB       -21.3360    8.4010    8.3000 C.3   354  TYR354      0.0560
    170  CG       -22.1070    9.3210    9.2160 C.ar  354  TYR354     -0.0198
    171  CD1      -23.1960    8.8530    9.9350 C.ar  354  TYR354     -0.0009
    172  CD2      -21.7190   10.6390    9.4030 C.ar  354  TYR354     -0.0009
    173  CE1      -23.8990    9.6740   10.7920 C.ar  354  TYR354      0.0417
    174  CE2      -22.4160   11.4730   10.2600 C.ar  354  TYR354      0.0417
    175  CZ       -23.5050   10.9840   10.9530 C.ar  354  TYR354      0.1957
    176  OH       -24.2060   11.8020   11.8090 O.3   354  TYR354     -0.2866
    177  N        -19.4240    3.9440   11.1520 N.3   357  ILE357     -0.1245
    178  CA       -20.7050    3.5300   11.7130 C.3   357  ILE357      0.1561
    179  C        -21.3600    2.4810   10.8230 C.2   357  ILE357      0.2260
    180  O        -21.8650    1.4630   11.3080 O.2   357  ILE357     -0.2867
    181  CB       -21.6200    4.7510   11.9170 C.3   357  ILE357      0.0252
    182  CG1      -21.0530    5.6700   13.0000 C.3   357  ILE357      0.0019
    183  CG2      -23.0310    4.3110   12.2800 C.3   357  ILE357      0.0019
    184  CD1      -21.8060    6.9750   13.1440 C.3   357  ILE357      0.0001
@<TRIPOS>BOND
     1   156   154    1
     2   146   147    1
     3   146   143    1
     4   147   148    1
     5   151   152    2
     6   151   150    1
     7   168   167    2
     8   167   166    1
     9   169   166    1
    10   169   170    1
    11   153   154    1
    12   153   150    1
    13   154   155    1
    14   149   150    1
    15   149   144   am
    16   166   165    1
    17   148   142    1
    18   143   144    1
    19   143   142    1
    20   170   172   ar
    21   170   171   ar
    22   144   145    2
    23   172   174   ar
    24   165   159   am
    25   157   158    1
    26   171   173   ar
    27   142   139   am
    28   174   175   ar
    29   159   158    1
    30   159   160    2
    31   173   175   ar
    32   179   180    2
    33   179   178    1
    34    14    13    1
    35   175   176    1
    36   158   161    1
    37   177   178    1
    38   139   140    2
    39   139   138    1
    40    13    10    1
    41   178   181    1
    42   161   162    1
    43   181   183    1
    44   181   182    1
    45    12    11    2
    46   138   141    1
    47   138   137    1
    48   130   129    2
    49   162   163    1
    50    11    10    1
    51    10     9    1
    52   182   184    1
    53   129   137   am
    54   129   128    1
    55   163   164    1
    56     9     3   am
    57    87    88    1
    58   101   102    1
    59   127   128    1
    60   128   131    1
    61   133   135   ar
    62   133   132   ar
    63   131   132    1
    64   107   106    1
    65    88    89    1
    66    88    91    1
    67     3     4    2
    68     3     2    1
    69   102   105    1
    70   102   103    1
    71   135   136   ar
    72   105   106    1
    73   132   134   ar
    74     1     2    1
    75    89    90    2
    76   108   106    1
    77    93    95   ar
    78    93    92   ar
    79    95    96   ar
    80     2     5    1
    81    42    40    1
    82    92    91    1
    83    92    94   ar
    84    96    98   ar
    85    96    94   ar
    86     7     5    1
    87    98   100   ar
    88   136   134   ar
    89    94    97   ar
    90   103   104    2
    91   103   109   am
    92   100    99   ar
    93    97    99   ar
    94     5     6    1
    95   109   110    1
    96    41    40    1
    97    40    39    1
    98    62    60   ar
    99    21    19    1
   100   119   120    1
   101     6     8    1
   102   111   110    1
   103   111   112    2
   104   110   113    1
   105    60    61   ar
   106    60    59    1
   107    39    36    1
   108   125   124    2
   109    19    20    1
   110    19    16    1
   111    36    35    1
   112    36    37    1
   113   113   114    1
   114    47    48    1
   115    47    44    1
   116   116   114   ar
   117   116   118   ar
   118    59    58    1
   119    43    37   am
   120    43    44    1
   121   120   123    1
   122   120   121    1
   123   124   126   am
   124   124   123    1
   125   114   115   ar
   126    48    49   ar
   127    48    50   ar
   128    37    38    2
   129   118   117   ar
   130    49    51   ar
   131    44    45    1
   132    16    17    1
   133    16    15    1
   134    58    55    1
   135    50    52   ar
   136   121   122    2
   137    54    45   am
   138    54    55    1
   139    34    31    1
   140    18    17    2
   141    31    30    1
   142    31    32    1
   143    51    53   ar
   144   115   117   ar
   145    52    53   ar
   146    17    22   am
   147    45    46    2
   148    55    56    1
   149    70    69    1
   150    33    32    2
   151    56    57    2
   152    22    23    1
   153    69    68    1
   154    29    27    1
   155    78    77    1
   156    23    24    1
   157    23    26    1
   158    27    26    1
   159    27    28    1
   160    68    67    1
   161    24    25    2
   162    85    84    2
   163    77    76    1
   164    76    75    1
   165    75    72    1
   166    74    73    2
   167    67    64    1
   168    84    86   am
   169    84    83    1
   170    73    72    1
   171    72    71    1
   172    64    63    1
   173    64    65    1
   174    82    81    2
   175    83    80    1
   176    66    65    2
   177    81    80    1
   178    80    79    1
