@<TRIPOS>MOLECULE
tmp/5iucB00.pdb
 94 94 0 0 0
SMALL
GASTEIGER

@<TRIPOS>ATOM
      1  N        -13.1170    3.9580   -1.7470 N.3    43  TRP43      -0.1241
      2  CA       -13.3510    5.3540   -1.3760 C.3    43  TRP43       0.1605
      3  C        -12.4340    6.2790   -2.1490 C.2    43  TRP43       0.2264
      4  O        -11.6110    5.8800   -2.9600 O.2    43  TRP43      -0.2867
      5  CB       -13.2030    5.5770    0.1190 C.3    43  TRP43       0.0550
      6  CG       -11.8180    5.5700    0.6780 C.ar   43  TRP43       0.0003
      7  CD1      -10.6970    5.0230    0.1330 C.ar   43  TRP43       0.0946
      8  CD2      -11.4380    6.1040    1.9400 C.ar   43  TRP43       0.0152
      9  NE1       -9.6250    5.1850    0.9950 N.ar   43  TRP43      -0.2442
     10  CE2      -10.0560    5.8450    2.1080 C.ar   43  TRP43       0.0810
     11  CE3      -12.1320    6.7740    2.9490 C.ar   43  TRP43       0.0012
     12  CZ2       -9.3590    6.2420    3.2760 C.ar   43  TRP43       0.0191
     13  CZ3      -11.4270    7.1800    4.0810 C.ar   43  TRP43       0.0001
     14  CH2      -10.0650    6.9100    4.2310 C.ar   43  TRP43       0.0015
     15  N         -9.8100    8.2720   -1.3930 N.3    45  TYR45      -0.1241
     16  CA        -8.4020    8.6460   -1.1780 C.3    45  TYR45       0.1605
     17  C         -7.4090    7.6350   -1.7020 C.2    45  TYR45       0.2264
     18  O         -6.2450    7.9740   -1.9660 O.2    45  TYR45      -0.2867
     19  CB        -8.1500    8.8270    0.3140 C.3    45  TYR45       0.0534
     20  CG        -9.0350    9.8780    0.9330 C.ar   45  TYR45      -0.0201
     21  CD1       -8.8640   11.2280    0.6310 C.ar   45  TYR45      -0.0009
     22  CD2      -10.0540    9.5290    1.7980 C.ar   45  TYR45      -0.0009
     23  CE1       -9.6800   12.1910    1.1960 C.ar   45  TYR45       0.0417
     24  CE2      -10.8780   10.4940    2.3720 C.ar   45  TYR45       0.0417
     25  CZ       -10.6740   11.8100    2.0790 C.ar   45  TYR45       0.1957
     26  OH       -11.5100   12.7570    2.6510 O.3    45  TYR45      -0.2866
     27  N        -12.4030    4.2690    5.5470 N.3    51  ARG51      -0.1245
     28  CA       -12.5350    4.3780    6.9920 C.3    51  ARG51       0.1563
     29  C        -13.9970    4.3180    7.4080 C.2    51  ARG51       0.2260
     30  O        -14.8180    5.0630    6.8870 O.2    51  ARG51      -0.2867
     31  CB       -11.9040    5.7000    7.4410 C.3    51  ARG51       0.0307
     32  CG       -11.4430    5.7410    8.8930 C.3    51  ARG51       0.0489
     33  CD       -11.0310    7.1660    9.3220 C.3    51  ARG51       0.2205
     34  NE        -9.6110    7.4850    9.1230 N.pl3  51  ARG51      -0.0865
     35  CZ        -9.1140    8.3150    8.2040 C.cat  51  ARG51       0.5346
     36  NH1       -9.8950    8.9330    7.3300 N.pl3  51  ARG51       0.1354
     37  NH2       -7.8020    8.5270    8.1560 N.pl3  51  ARG51       0.1354
     38  N        -21.2240    3.2440   12.2970 N.3    80  THR80      -0.1203
     39  CA       -21.8680    4.5550   12.3180 C.3    80  THR80       0.1994
     40  C        -22.8910    4.6640   11.1880 C.2    80  THR80       0.2618
     41  O        -22.5520    4.4520   10.0150 O.2    80  THR80      -0.2717
     42  CB       -20.8070    5.6700   12.2260 C.3    80  THR80       0.1784
     43  OG1      -19.9090    5.5380   13.3380 O.3    80  THR80      -0.2211
     44  CG2      -21.4300    7.0430   12.2480 C.3    80  THR80       0.0376
     45  N        -24.1280    5.0030   11.5110 N.am   81  ILE81      -0.1965
     46  CA       -25.1270    5.1760   10.4720 C.3    81  ILE81       0.1727
     47  C        -24.9100    6.4720    9.7180 C.2    81  ILE81       0.2617
     48  O        -24.3430    7.4310   10.2450 O.2    81  ILE81      -0.2715
     49  CB       -26.5770    5.0880   10.9870 C.3    81  ILE81       0.0290
     50  CG1      -26.9230    6.2670   11.8710 C.3    81  ILE81       0.0022
     51  CG2      -26.8250    3.7240   11.6900 C.3    81  ILE81       0.0023
     52  CD1      -28.3750    6.3180   12.1810 C.3    81  ILE81       0.0001
     53  N        -25.3930    6.5090    8.4920 N.am   82  GLY82      -0.1940
     54  CA       -25.2560    7.6720    7.6550 C.3    82  GLY82       0.2014
     55  C        -24.8260    7.3140    6.2470 C.2    82  GLY82       0.2639
     56  O        -24.9760    6.1720    5.8020 O.2    82  GLY82      -0.2714
     57  N        -24.2920    8.2960    5.5480 N.am   83  ASP83      -0.1957
     58  CA       -24.0010    8.2040    4.1180 C.3    83  ASP83       0.1840
     59  C        -22.5070    8.1650    3.8650 C.2    83  ASP83       0.2622
     60  O        -21.7300    8.8680    4.5360 O.2    83  ASP83      -0.2715
     61  CB       -24.5530    9.4350    3.3600 C.3    83  ASP83       0.1450
     62  CG       -26.0510    9.5660    3.4330 C.2    83  ASP83       0.3671
     63  OD1      -26.7330    8.5810    3.7030 O.co2  83  ASP83      -0.2456
     64  OD2      -26.5500   10.6900    3.1890 O.co2  83  ASP83      -0.2456
     65  N        -22.1060    7.4000    2.8580 N.am   84  TYR84      -0.1960
     66  CA       -20.7050    7.2520    2.5160 C.3    84  TYR84       0.1771
     67  C        -20.5460    7.2010    1.0100 C.2    84  TYR84       0.2620
     68  O        -21.0740    6.2750    0.3610 O.2    84  TYR84      -0.2715
     69  CB       -20.1800    5.9480    3.0780 C.3    84  TYR84       0.0574
     70  CG       -20.2420    5.8400    4.5840 C.ar   84  TYR84      -0.0198
     71  CD1      -21.4170    5.4840    5.2430 C.ar   84  TYR84      -0.0009
     72  CD2      -19.1090    6.1100    5.3630 C.ar   84  TYR84      -0.0009
     73  CE1      -21.4660    5.4050    6.6280 C.ar   84  TYR84       0.0417
     74  CE2      -19.1500    5.9970    6.7400 C.ar   84  TYR84       0.0417
     75  CZ       -20.3210    5.6450    7.3710 C.ar   84  TYR84       0.1957
     76  OH       -20.3320    5.5700    8.7510 O.3    84  TYR84      -0.2866
     77  N        -19.8360    8.1410    0.4320 N.am   85  THR85      -0.1937
     78  CA       -19.6470    8.1880   -1.0060 C.3    85  THR85       0.2028
     79  C        -18.5570    7.2060   -1.3790 C.2    85  THR85       0.2642
     80  O        -17.4560    7.2610   -0.8190 O.2    85  THR85      -0.2714
     81  CB       -19.2660    9.5890   -1.4390 C.3    85  THR85       0.1808
     82  OG1      -20.2860   10.5090   -1.0320 O.3    85  THR85      -0.2208
     83  CG2      -19.1650    9.6690   -2.9620 C.3    85  THR85       0.0379
     84  N        -18.8450    6.3260   -2.3330 N.am   86  ARG86      -0.1977
     85  CA       -17.8850    5.3270   -2.7650 C.3    86  ARG86       0.1597
     86  C        -17.9320    5.2620   -4.2830 C.2    86  ARG86       0.2287
     87  O        -18.7570    5.9130   -4.9280 O.2    86  ARG86      -0.2864
     88  CB       -18.1620    3.9770   -2.1110 C.3    86  ARG86       0.0334
     89  CG       -18.0260    3.9890   -0.5840 C.3    86  ARG86       0.0492
     90  CD       -16.6000    4.2140   -0.1080 C.3    86  ARG86       0.2205
     91  NE       -16.3820    4.1360    1.3390 N.pl3  86  ARG86      -0.0865
     92  CZ       -16.3440    5.1710    2.1700 C.cat  86  ARG86       0.5346
     93  NH1      -16.6140    6.3980    1.7470 N.pl3  86  ARG86       0.1354
     94  NH2      -16.0450    4.9600    3.4460 N.pl3  86  ARG86       0.1354
@<TRIPOS>BOND
     1    87    86    2
     2    86    85    1
     3    83    81    1
     4     4     3    2
     5    85    84    1
     6    85    88    1
     7    84    79   am
     8     3     2    1
     9    88    89    1
    10    18    17    2
    11     1     2    1
    12    17    16    1
    13    81    82    1
    14    81    78    1
    15    15    16    1
    16    79    78    1
    17    79    80    2
    18     2     5    1
    19    16    19    1
    20    78    77    1
    21    89    90    1
    22    90    91    1
    23     5     6    1
    24     7     6   ar
    25     7     9   ar
    26    19    20    1
    27    68    67    2
    28    77    67   am
    29    21    20   ar
    30    21    23   ar
    31     6     8   ar
    32    20    22   ar
    33     9    10   ar
    34    67    66    1
    35    23    25   ar
    36    91    92    2
    37    93    92    1
    38    22    24   ar
    39     8    10   ar
    40     8    11   ar
    41    25    24   ar
    42    25    26    1
    43    10    12   ar
    44    92    94    1
    45    66    65    1
    46    66    69    1
    47    65    59   am
    48    11    13   ar
    49    69    70    1
    50    64    62   ar
    51    12    14   ar
    52    61    62    1
    53    61    58    1
    54    62    63   ar
    55    59    58    1
    56    59    60    2
    57    13    14   ar
    58    58    57    1
    59    70    71   ar
    60    70    72   ar
    61    71    73   ar
    62    72    74   ar
    63    27    28    1
    64    57    55   am
    65    56    55    2
    66    55    54    1
    67    73    75   ar
    68    74    75   ar
    69    30    29    2
    70    28    29    1
    71    28    31    1
    72    36    35    1
    73    75    76    1
    74    31    32    1
    75    54    53    1
    76    37    35    1
    77    35    34    2
    78    53    47   am
    79    32    33    1
    80    34    33    1
    81    47    48    2
    82    47    46    1
    83    41    40    2
    84    46    49    1
    85    46    45    1
    86    49    51    1
    87    49    50    1
    88    40    45   am
    89    40    39    1
    90    50    52    1
    91    42    44    1
    92    42    39    1
    93    42    43    1
    94    38    39    1
