@<TRIPOS>MOLECULE
tmp/5iuiA00.pdb
 187 177 0 0 0
SMALL
GASTEIGER

@<TRIPOS>ATOM
      1  N         76.2520   68.5320    1.2340 N.3    34  LEU34      -0.1231
      2  CA        76.1210   67.6550    2.3930 C.3    34  LEU34       0.1693
      3  C         74.7450   67.0180    2.4570 C.2    34  LEU34       0.2592
      4  O         73.7280   67.6890    2.2800 O.2    34  LEU34      -0.2718
      5  CB        76.3740   68.4240    3.6920 C.3    34  LEU34       0.0284
      6  CG        77.7900   68.4990    4.2610 C.3    34  LEU34       0.0019
      7  CD1       77.7480   69.2730    5.5660 C.3    34  LEU34       0.0001
      8  CD2       78.3960   67.1180    4.4860 C.3    34  LEU34       0.0001
      9  N         74.7250   65.7150    2.7150 N.am   35  GLY35      -0.1957
     10  CA        73.4920   64.9980    2.9830 C.3    35  GLY35       0.1869
     11  C         72.4810   65.0230    1.8540 C.2    35  GLY35       0.2309
     12  O         72.6930   65.6560    0.8200 O.2    35  GLY35      -0.2863
     13  N         67.9260   68.9290    5.7560 N.3    39  PHE39      -0.1241
     14  CA        67.8870   70.2450    6.3770 C.3    39  PHE39       0.1605
     15  C         67.8700   71.3730    5.3450 C.2    39  PHE39       0.2264
     16  O         67.9770   72.5510    5.6940 O.2    39  PHE39      -0.2867
     17  CB        69.0810   70.3940    7.3160 C.3    39  PHE39       0.0534
     18  CG        69.0440   69.4570    8.4830 C.ar   39  PHE39      -0.0203
     19  CD1       69.4260   68.1340    8.3440 C.ar   39  PHE39      -0.0042
     20  CD2       68.6160   69.9020    9.7220 C.ar   39  PHE39      -0.0042
     21  CE1       69.3820   67.2740    9.4190 C.ar   39  PHE39      -0.0003
     22  CE2       68.5690   69.0430   10.8040 C.ar   39  PHE39      -0.0003
     23  CZ        68.9530   67.7260   10.6490 C.ar   39  PHE39      -0.0000
     24  N         72.3670   72.2720    2.0010 N.3    42  VAL42      -0.1245
     25  CA        73.4260   72.3850    2.9970 C.3    42  VAL42       0.1561
     26  C         74.7640   71.9410    2.4340 C.2    42  VAL42       0.2260
     27  O         74.8550   70.9120    1.7650 O.2    42  VAL42      -0.2867
     28  CB        73.1040   71.5450    4.2490 C.3    42  VAL42       0.0252
     29  CG1       74.2520   71.6020    5.2540 C.3    42  VAL42       0.0019
     30  CG2       71.8160   72.0300    4.8870 C.3    42  VAL42       0.0019
     31  N         78.9030   73.8960    8.6540 N.3    56  ALA56      -0.1245
     32  CA        77.8270   73.6220    7.7140 C.3    56  ALA56       0.1562
     33  C         77.2910   74.9570    7.2130 C.2    56  ALA56       0.2260
     34  O         77.1940   75.9150    7.9800 O.2    56  ALA56      -0.2867
     35  CB        76.7180   72.8090    8.3640 C.3    56  ALA56       0.0290
     36  N         74.0300   76.5780    5.3820 N.3    58  LYS58      -0.1245
     37  CA        72.6800   76.5050    4.8430 C.3    58  LYS58       0.1561
     38  C         72.4420   77.6860    3.9410 C.2    58  LYS58       0.2260
     39  O         72.6670   78.8270    4.3420 O.2    58  LYS58      -0.2867
     40  CB        71.6220   76.4980    5.9370 C.3    58  LYS58       0.0271
     41  CG        70.2100   76.5090    5.3520 C.3    58  LYS58       0.0035
     42  CD        69.1590   76.1090    6.3480 C.3    58  LYS58       0.0206
     43  CE        67.7840   76.0850    5.7300 C.3    58  LYS58       0.1093
     44  NZ        66.8130   75.5310    6.7070 N.3    58  LYS58      -0.1314
     45  N         64.8340   81.9110   11.2700 N.3    75  GLU75      -0.1245
     46  CA        65.5180   80.6710   11.6310 C.3    75  GLU75       0.1567
     47  C         66.9080   80.9890   12.1910 C.2    75  GLU75       0.2260
     48  O         67.3100   80.4470   13.2180 O.2    75  GLU75      -0.2867
     49  CB        65.6020   79.7400   10.4140 C.3    75  GLU75       0.0388
     50  CG        66.6090   78.5980   10.5180 C.3    75  GLU75       0.1160
     51  CD        66.7450   77.8280    9.2120 C.2    75  GLU75       0.3649
     52  OE1       65.9180   78.0450    8.3000 O.co2  75  GLU75      -0.2457
     53  OE2       67.6770   77.0030    9.0950 O.co2  75  GLU75      -0.2457
     54  N         68.1360   80.2460   16.2200 N.3    79  ILE79      -0.1245
     55  CA        69.2330   79.3650   16.5830 C.3    79  ILE79       0.1561
     56  C         70.4050   80.1520   17.1790 C.2    79  ILE79       0.2260
     57  O         71.0990   79.6360   18.0520 O.2    79  ILE79      -0.2867
     58  CB        69.7020   78.5060   15.3700 C.3    79  ILE79       0.0252
     59  CG1       70.7460   77.4750   15.8120 C.3    79  ILE79       0.0019
     60  CG2       70.2420   79.3610   14.2210 C.3    79  ILE79       0.0019
     61  CD1       70.1830   76.4310   16.7580 C.3    79  ILE79       0.0001
     62  N         72.7360   72.7580   18.3810 N.3    88  VAL88      -0.1245
     63  CA        73.6860   73.1280   17.3430 C.3    88  VAL88       0.1561
     64  C         73.9950   74.6230   17.3840 C.2    88  VAL88       0.2260
     65  O         73.0870   75.4410   17.4550 O.2    88  VAL88      -0.2867
     66  CB        73.1260   72.7230   15.9610 C.3    88  VAL88       0.0252
     67  CG1       73.9490   73.2930   14.8200 C.3    88  VAL88       0.0019
     68  CG2       73.0530   71.1950   15.8630 C.3    88  VAL88       0.0019
     69  N         76.6430   77.1700   10.3730 N.3   104  LEU104     -0.1231
     70  CA        76.2570   76.3110   11.4820 C.3   104  LEU104      0.1693
     71  C         77.3610   75.3440   11.8890 C.2   104  LEU104      0.2592
     72  O         78.2220   74.9880   11.0790 O.2   104  LEU104     -0.2718
     73  CB        74.9960   75.5480   11.0940 C.3   104  LEU104      0.0284
     74  CG        73.8630   76.5340   10.7900 C.3   104  LEU104      0.0019
     75  CD1       72.9470   76.0410    9.6900 C.3   104  LEU104      0.0001
     76  CD2       73.1090   76.8270   12.0700 C.3   104  LEU104      0.0001
     77  N         77.3470   74.9660   13.1660 N.am  105  GLU105     -0.1966
     78  CA        78.2190   73.9240   13.6860 C.3   105  GLU105      0.1733
     79  C         78.1600   72.7030   12.7800 C.2   105  GLU105      0.2616
     80  O         77.0760   72.2180   12.4420 O.2   105  GLU105     -0.2715
     81  CB        77.8110   73.5530   15.1170 C.3   105  GLU105      0.0429
     82  CG        78.5400   72.3540   15.7030 C.3   105  GLU105      0.1163
     83  CD        78.1510   72.0950   17.1440 C.2   105  GLU105      0.3649
     84  OE1       77.2010   72.7450   17.6360 O.co2 105  GLU105     -0.2457
     85  OE2       78.7800   71.2270   17.7830 O.co2 105  GLU105     -0.2457
     86  N         79.3280   72.2190   12.3810 N.am  106  LEU106     -0.1963
     87  CA        79.4110   71.0650   11.4990 C.3   106  LEU106      0.1728
     88  C         79.2440   69.7880   12.3050 C.2   106  LEU106      0.2616
     89  O         80.0280   69.4850   13.2010 O.2   106  LEU106     -0.2715
     90  CB        80.7370   71.0490   10.7330 C.3   106  LEU106      0.0311
     91  CG        80.9420   69.8750    9.7670 C.3   106  LEU106      0.0022
     92  CD1       79.8860   69.8580    8.6600 C.3   106  LEU106      0.0001
     93  CD2       82.3400   69.9220    9.1720 C.3   106  LEU106      0.0001
     94  N         78.2040   69.0480   11.9500 N.am  107  MET107     -0.1963
     95  CA        77.8210   67.8250   12.6200 C.3   107  MET107      0.1736
     96  C         78.1360   66.6790   11.6710 C.2   107  MET107      0.2616
     97  O         77.3080   66.3010   10.8410 O.2   107  MET107     -0.2715
     98  CB        76.3360   67.8700   12.9910 C.3   107  MET107      0.0427
     99  CG        75.9710   69.0960   13.8300 C.3   107  MET107      0.0599
    100  SD        76.6380   69.0230   15.5090 S.3   107  MET107     -0.1393
    101  CE        75.5510   67.7930   16.2240 C.3   107  MET107      0.0692
    102  N         79.3480   66.1500   11.7990 N.am  108  ALA108     -0.1963
    103  CA        79.8970   65.2020   10.8360 C.3   108  ALA108      0.1728
    104  C         79.2000   63.8520   10.8850 C.2   108  ALA108      0.2617
    105  O         79.3650   63.0380    9.9780 O.2   108  ALA108     -0.2715
    106  CB        81.3880   65.0270   11.0760 C.3   108  ALA108      0.0334
    107  N         78.4300   63.6160   11.9450 N.am  109  GLY109     -0.1940
    108  CA        77.6820   62.3780   12.0900 C.3   109  GLY109      0.2014
    109  C         76.3800   62.3690   11.3070 C.2   109  GLY109      0.2639
    110  O         75.7380   61.3250   11.1770 O.2   109  GLY109     -0.2714
    111  N         75.9860   63.5280   10.7830 N.am  110  GLY110     -0.1939
    112  CA        74.7470   63.6570   10.0380 C.3   110  GLY110      0.2014
    113  C         73.5210   63.6000   10.9380 C.2   110  GLY110      0.2638
    114  O         73.6380   63.6460   12.1640 O.2   110  GLY110     -0.2714
    115  N         72.3400   63.4970   10.3360 N.am  111  ASP111     -0.1971
    116  CA        71.1080   63.4690   11.1210 C.3   111  ASP111      0.1709
    117  C         70.9560   62.1240   11.8220 C.2   111  ASP111      0.2293
    118  O         71.4490   61.0980   11.3480 O.2   111  ASP111     -0.2864
    119  CB        69.8840   63.7640   10.2480 C.3   111  ASP111      0.1436
    120  CG        69.4090   62.5540    9.4640 C.2   111  ASP111      0.3671
    121  OD1       68.5810   61.7830    9.9970 O.co2 111  ASP111     -0.2456
    122  OD2       69.8560   62.3780    8.3110 O.co2 111  ASP111     -0.2456
    123  N         71.7480   58.1820   10.6690 N.3   115  PHE115     -0.1241
    124  CA        72.8030   57.5420   11.4530 C.3   115  PHE115      0.1605
    125  C         72.3760   56.2050   12.0450 C.2   115  PHE115      0.2264
    126  O         73.1250   55.2240   11.9880 O.2   115  PHE115     -0.2867
    127  CB        73.2590   58.4530   12.5900 C.3   115  PHE115      0.0534
    128  CG        74.1960   57.7810   13.5490 C.ar  115  PHE115     -0.0203
    129  CD1       75.5580   57.7310   13.2850 C.ar  115  PHE115     -0.0042
    130  CD2       73.7190   57.1830   14.7060 C.ar  115  PHE115     -0.0042
    131  CE1       76.4240   57.1090   14.1620 C.ar  115  PHE115     -0.0003
    132  CE2       74.5870   56.5580   15.5870 C.ar  115  PHE115     -0.0003
    133  CZ        75.9370   56.5230   15.3130 C.ar  115  PHE115     -0.0000
    134  N         71.9450   53.6550    9.1810 N.3   118  GLU118     -0.1231
    135  CA        73.1830   53.2470    8.5200 C.3   118  GLU118      0.1699
    136  C         74.1770   52.5800    9.4620 C.2   118  GLU118      0.2592
    137  O         75.1010   51.9050    9.0050 O.2   118  GLU118     -0.2718
    138  CB        73.8430   54.4520    7.8430 C.3   118  GLU118      0.0402
    139  CG        73.3430   54.6650    6.4230 C.3   118  GLU118      0.1161
    140  CD        73.5420   56.0830    5.9240 C.2   118  GLU118      0.3649
    141  OE1       74.5080   56.7430    6.3630 O.co2 118  GLU118     -0.2457
    142  OE2       72.7260   56.5380    5.0930 O.co2 118  GLU118     -0.2457
    143  N         73.9850   52.7560   10.7670 N.am  119  THR119     -0.1953
    144  CA        74.9020   52.1980   11.7550 C.3   119  THR119      0.1897
    145  C         74.2500   51.0370   12.5190 C.2   119  THR119      0.2313
    146  O         74.7650   50.6040   13.5460 O.2   119  THR119     -0.2863
    147  CB        75.3830   53.2910   12.7420 C.3   119  THR119      0.1794
    148  OG1       75.5980   54.5150   12.0280 O.3   119  THR119     -0.2208
    149  CG2       76.6920   52.8920   13.4210 C.3   119  THR119      0.0378
    150  N         71.0720   65.9150   15.1790 N.3   164  LEU164     -0.1245
    151  CA        72.3280   65.6350   14.4820 C.3   164  LEU164      0.1561
    152  C         73.3950   65.1120   15.4280 C.2   164  LEU164      0.2260
    153  O         73.3030   65.2900   16.6440 O.2   164  LEU164     -0.2867
    154  CB        72.8410   66.8940   13.7900 C.3   164  LEU164      0.0270
    155  CG        71.9350   67.4730   12.7050 C.3   164  LEU164      0.0019
    156  CD1       71.8360   68.9780   12.8670 C.3   164  LEU164      0.0001
    157  CD2       72.4490   67.1240   11.3180 C.3   164  LEU164      0.0001
    158  N         80.5650   60.3480   13.7770 N.3   168  PRO168     -0.2116
    159  CA        79.9600   59.0100   13.7520 C.3   168  PRO168      0.1372
    160  C         80.4480   58.0770   14.8630 C.2   168  PRO168      0.2244
    161  O         79.7110   57.1840   15.2860 O.2   168  PRO168     -0.2868
    162  CB        80.3790   58.4650   12.3840 C.3   168  PRO168      0.0268
    163  CG        81.6170   59.2170   12.0360 C.3   168  PRO168      0.0207
    164  CD        81.4470   60.5840   12.6220 C.3   168  PRO168      0.0892
    165  N         68.9760   70.3150   16.0090 N.3   177  GLY177     -0.1210
    166  CA        69.4660   71.1630   14.9340 C.3   177  GLY177      0.1956
    167  C         68.4050   71.9660   14.2060 C.2   177  GLY177      0.2612
    168  O         68.6220   73.1360   13.8880 O.2   177  GLY177     -0.2717
    169  N         67.2540   71.3490   13.9490 N.am  178  ASP178     -0.1959
    170  CA        66.2130   71.9870   13.1550 C.3   178  ASP178      0.1840
    171  C         65.1460   72.6190   14.0250 C.2   178  ASP178      0.2622
    172  O         64.6230   71.9790   14.9340 O.2   178  ASP178     -0.2715
    173  CB        65.5630   70.9700   12.2130 C.3   178  ASP178      0.1450
    174  CG        64.6050   71.6220   11.2360 C.2   178  ASP178      0.3671
    175  OD1       63.4390   71.8670   11.6120 O.co2 178  ASP178     -0.2456
    176  OD2       65.0280   71.9120   10.1020 O.co2 178  ASP178     -0.2456
    177  N         64.8180   73.8720   13.7180 N.am  179  PHE179     -0.1974
    178  CA        63.8340   74.6390   14.4790 C.3   179  PHE179      0.1639
    179  C         62.7800   75.2570   13.5600 C.2   179  PHE179      0.2290
    180  O         62.2090   76.3090   13.8600 O.2   179  PHE179     -0.2864
    181  CB        64.5470   75.7180   15.3000 C.3   179  PHE179      0.0560
    182  CG        65.3580   75.1620   16.4320 C.ar  179  PHE179     -0.0200
    183  CD1       66.6840   74.7960   16.2440 C.ar  179  PHE179     -0.0042
    184  CD2       64.7860   74.9800   17.6780 C.ar  179  PHE179     -0.0042
    185  CE1       67.4220   74.2680   17.2810 C.ar  179  PHE179     -0.0003
    186  CE2       65.5270   74.4640   18.7250 C.ar  179  PHE179     -0.0003
    187  CZ        66.8440   74.1020   18.5240 C.ar  179  PHE179     -0.0000
@<TRIPOS>BOND
     1    12    11    2
     2     1     2    1
     3    27    26    2
     4    11    10    1
     5    24    25    1
     6     4     3    2
     7     2     3    1
     8     2     5    1
     9    26    25    1
    10     3     9   am
    11     9    10    1
    12    25    28    1
    13     5     6    1
    14    38    39    2
    15    38    37    1
    16    28    30    1
    17    28    29    1
    18     6     8    1
    19     6     7    1
    20    37    36    1
    21    37    40    1
    22   142   140   ar
    23    15    16    2
    24    15    14    1
    25    41    40    1
    26    41    42    1
    27    43    42    1
    28    43    44    1
    29    13    14    1
    30   140   141   ar
    31   140   139    1
    32    14    17    1
    33   139   138    1
    34    33    32    1
    35    33    34    2
    36    17    18    1
    37    32    35    1
    38    32    31    1
    39   138   135    1
    40    52    51   ar
    41   122   120   ar
    42    19    18   ar
    43    19    21   ar
    44    18    20   ar
    45   135   134    1
    46   135   136    1
    47    92    91    1
    48   137   136    2
    49    53    51   ar
    50    93    91    1
    51    51    50    1
    52    21    23   ar
    53   136   143   am
    54   120   121   ar
    55   120   119    1
    56    75    74    1
    57    20    22   ar
    58    91    90    1
    59   105   104    2
    60   112   111    1
    61   112   113    1
    62   176   174   ar
    63   119   116    1
    64   115   113   am
    65   115   116    1
    66    69    70    1
    67    49    50    1
    68    49    46    1
    69    23    22   ar
    70   123   124    1
    71    90    87    1
    72   143   144    1
    73   111   109   am
    74    74    73    1
    75    74    76    1
    76   103   104    1
    77   103   106    1
    78   103   102    1
    79    97    96    2
    80   104   107   am
    81   113   114    2
    82    72    71    2
    83    73    70    1
    84   116   117    1
    85   110   109    2
    86   174   175   ar
    87   174   173    1
    88    45    46    1
    89   109   108    1
    90   157   155    1
    91   118   117    2
    92   124   125    1
    93   124   127    1
    94    70    71    1
    95    87    88    1
    96    87    86    1
    97    46    47    1
    98    96   102   am
    99    96    95    1
   100   144   145    1
   101   144   147    1
   102    71    77   am
   103   107   108    1
   104    94    88   am
   105    94    95    1
   106   126   125    2
   107   148   147    1
   108   163   162    1
   109   163   164    1
   110    47    48    2
   111   173   170    1
   112    88    89    2
   113    86    79   am
   114   162   159    1
   115    80    79    2
   116   145   146    2
   117   127   128    1
   118    95    98    1
   119   164   158    1
   120   155   156    1
   121   155   154    1
   122   147   149    1
   123    79    78    1
   124    98    99    1
   125   170   169    1
   126   170   171    1
   127    77    78    1
   128   129   128   ar
   129   129   131   ar
   130   128   130   ar
   131   179   180    2
   132   179   178    1
   133    78    81    1
   134   177   171   am
   135   177   178    1
   136   159   158    1
   137   159   160    1
   138   154   151    1
   139    99   100    1
   140   168   167    2
   141   169   167   am
   142   171   172    2
   143   131   133   ar
   144   167   166    1
   145    60    58    1
   146   178   181    1
   147   151   150    1
   148   151   152    1
   149   130   132   ar
   150    67    66    1
   151   160   161    2
   152   166   165    1
   153    81    82    1
   154   181   182    1
   155   133   132   ar
   156    58    59    1
   157    58    55    1
   158   152   153    2
   159   100   101    1
   160    82    83    1
   161    59    61    1
   162    68    66    1
   163    66    63    1
   164    54    55    1
   165   183   182   ar
   166   183   185   ar
   167   182   184   ar
   168    55    56    1
   169    83    84   ar
   170    83    85   ar
   171    56    57    2
   172   185   187   ar
   173    63    64    1
   174    63    62    1
   175    64    65    2
   176   184   186   ar
   177   187   186   ar
