@<TRIPOS>MOLECULE
tmp/5iuqA00.pdb
 121 113 0 0 0
SMALL
GASTEIGER

@<TRIPOS>ATOM
      1  N        -12.2680   12.5850    6.9550 N.3    32  ARG32      -0.1231
      2  CA       -12.6970   11.2470    6.5790 C.3    32  ARG32       0.1694
      3  C        -11.5760   10.2840    6.6280 C.2    32  ARG32       0.2592
      4  O        -10.3810   10.6640    6.4870 O.2    32  ARG32      -0.2718
      5  CB       -13.3250   11.2540    5.1580 C.3    32  ARG32       0.0321
      6  CG       -12.5790   11.8410    4.0640 C.3    32  ARG32       0.0489
      7  CD       -13.5850   12.0640    2.9520 C.3    32  ARG32       0.2205
      8  NE       -13.0040   12.5850    1.7650 N.pl3  32  ARG32      -0.0865
      9  CZ       -13.5690   12.5060    0.5610 C.cat  32  ARG32       0.5346
     10  NH1      -14.7590   11.9210    0.3700 N.pl3  32  ARG32       0.1354
     11  NH2      -12.9130   13.0000   -0.4430 N.pl3  32  ARG32       0.1354
     12  N        -11.9180    9.0140    6.7670 N.am   33  ILE33      -0.1966
     13  CA       -10.9750    7.9030    6.6250 C.3    33  ILE33       0.1727
     14  C        -11.6710    6.9070    5.7140 C.2    33  ILE33       0.2616
     15  O        -12.9070    6.7950    5.7360 O.2    33  ILE33      -0.2715
     16  CB       -10.7910    7.2210    8.0100 C.3    33  ILE33       0.0290
     17  CG1      -10.2030    8.1890    9.0190 C.3    33  ILE33       0.0022
     18  CG2       -9.9650    5.9220    7.8780 C.3    33  ILE33       0.0023
     19  CD1      -10.2090    7.6830   10.4160 C.3    33  ILE33       0.0001
     20  N        -10.9120    6.0870    4.9520 N.am   34  ALA34      -0.1977
     21  CA       -11.5570    5.0420    4.1460 C.3    34  ALA34       0.1597
     22  C        -10.6750    3.7860    4.1270 C.2    34  ALA34       0.2287
     23  O         -9.4540    3.8860    3.8780 O.2    34  ALA34      -0.2864
     24  CB       -11.8140    5.4990    2.7040 C.3    34  ALA34       0.0319
     25  N        -16.3100   -1.0180    1.4740 N.3    46  HIS46      -0.1241
     26  CA       -15.8640    0.3620    1.7390 C.3    46  HIS46       0.1621
     27  C        -16.3020    0.6850    3.1360 C.2    46  HIS46       0.2264
     28  O        -17.5100    0.5560    3.4380 O.2    46  HIS46      -0.2867
     29  CB       -16.5260    1.2570    0.7110 C.3    46  HIS46       0.0745
     30  CG       -16.3280    2.7420    0.8700 C.ar   46  HIS46       0.0817
     31  ND1      -15.1780    3.3760    0.5080 N.ar   46  HIS46      -0.2268
     32  CD2      -17.1960    3.7180    1.2380 C.ar   46  HIS46       0.1154
     33  CE1      -15.3450    4.7050    0.6290 C.ar   46  HIS46       0.1986
     34  NE2      -16.5530    4.9340    1.0860 N.ar   46  HIS46      -0.2212
     35  N        -16.0840    3.7680    5.7750 N.3    48  ASN48      -0.1240
     36  CA       -15.8080    5.2120    5.6280 C.3    48  ASN48       0.1653
     37  C        -16.3220    6.0340    6.7910 C.2    48  ASN48       0.2266
     38  O        -17.4030    6.6050    6.7490 O.2    48  ASN48      -0.2867
     39  CB       -16.4720    5.6500    4.3210 C.3    48  ASN48       0.1155
     40  CG       -16.3430    7.1330    4.0150 C.2    48  ASN48       0.2627
     41  OD1      -17.2390    7.7090    3.3910 O.2    48  ASN48      -0.2716
     42  ND2      -15.2650    7.7770    4.4090 N.am   48  ASN48      -0.0877
     43  N        -16.8750    9.2840    8.5370 N.3    50  ARG50      -0.1245
     44  CA       -17.0590   10.6850    8.1530 C.3    50  ARG50       0.1563
     45  C        -17.1840   11.5030    9.4340 C.2    50  ARG50       0.2260
     46  O        -18.0930   11.2760   10.2620 O.2    50  ARG50      -0.2867
     47  CB       -18.3310   10.8050    7.3540 C.3    50  ARG50       0.0307
     48  CG       -18.2500   10.0520    6.0240 C.3    50  ARG50       0.0489
     49  CD       -19.5380   10.2300    5.2320 C.3    50  ARG50       0.2205
     50  NE       -19.4110    9.3830    4.0490 N.pl3  50  ARG50      -0.0865
     51  CZ       -20.2880    9.3360    3.0740 C.cat  50  ARG50       0.5346
     52  NH1      -21.3790   10.0920    3.1240 N.pl3  50  ARG50       0.1354
     53  NH2      -20.1260    8.4900    2.0570 N.pl3  50  ARG50       0.1354
     54  N        -20.4140   15.1200    8.5120 N.3    53  GLU53      -0.1245
     55  CA       -21.4580   15.0650    7.5260 C.3    53  GLU53       0.1567
     56  C        -22.6260   15.7970    8.1750 C.2    53  GLU53       0.2260
     57  O        -23.3570   15.2600    9.0380 O.2    53  GLU53      -0.2867
     58  CB       -21.8360   13.6190    7.1990 C.3    53  GLU53       0.0388
     59  CG       -22.8010   13.5840    6.0260 C.3    53  GLU53       0.1160
     60  CD       -23.3910   12.2040    5.7980 C.2    53  GLU53       0.3649
     61  OE1      -24.0820   11.6670    6.6780 O.co2  53  GLU53      -0.2457
     62  OE2      -23.1680   11.6180    4.6880 O.co2  53  GLU53      -0.2457
     63  N        -20.0130    5.1810    7.1890 N.3    60  VAL60      -0.1245
     64  CA       -20.7250    4.7330    6.0260 C.3    60  VAL60       0.1561
     65  C        -20.0300    3.5020    5.4640 C.2    60  VAL60       0.2260
     66  O        -18.8320    3.5710    5.1790 O.2    60  VAL60      -0.2867
     67  CB       -20.8110    5.8230    4.9420 C.3    60  VAL60       0.0252
     68  CG1      -21.4100    5.3130    3.6810 C.3    60  VAL60       0.0019
     69  CG2      -21.6260    7.0020    5.4960 C.3    60  VAL60       0.0019
     70  N        -20.3410    0.5120    2.2350 N.3    62  ASN62      -0.1240
     71  CA       -20.9820    0.2460    0.9770 C.3    62  ASN62       0.1653
     72  C        -20.0760   -0.6650    0.0990 C.2    62  ASN62       0.2266
     73  O        -18.9640   -1.0210    0.4840 O.2    62  ASN62      -0.2867
     74  CB       -21.2670    1.5820    0.2700 C.3    62  ASN62       0.1155
     75  CG       -22.4540    1.5300   -0.6940 C.2    62  ASN62       0.2627
     76  OD1      -22.9780    0.4880   -1.0550 O.2    62  ASN62      -0.2716
     77  ND2      -22.9100    2.7140   -1.1150 N.am   62  ASN62      -0.0877
     78  N        -21.9260    2.7870   -6.7730 N.3    69  TRP69      -0.1241
     79  CA       -22.1200    2.5360   -5.3650 C.3    69  TRP69       0.1605
     80  C        -23.4890    1.9520   -5.1390 C.2    69  TRP69       0.2264
     81  O        -24.4800    2.3490   -5.8340 O.2    69  TRP69      -0.2867
     82  CB       -21.9630    3.8270   -4.5490 C.3    69  TRP69       0.0550
     83  CG       -20.6250    4.2820   -4.4150 C.ar   69  TRP69       0.0003
     84  CD1      -20.0940    5.4110   -4.9230 C.ar   69  TRP69       0.0946
     85  CD2      -19.5720    3.6560   -3.6520 C.ar   69  TRP69       0.0152
     86  NE1      -18.7620    5.5080   -4.5750 N.ar   69  TRP69      -0.2442
     87  CE2      -18.4250    4.4570   -3.7840 C.ar   69  TRP69       0.0810
     88  CE3      -19.4820    2.4780   -2.9030 C.ar   69  TRP69       0.0012
     89  CZ2      -17.2300    4.1400   -3.1860 C.ar   69  TRP69       0.0191
     90  CZ3      -18.2570    2.1750   -2.2960 C.ar   69  TRP69       0.0001
     91  CH2      -17.1790    2.9870   -2.4450 C.ar   69  TRP69       0.0015
     92  N        -26.0750    2.2590    1.0220 N.3    72  GLU72      -0.1245
     93  CA       -25.2200    2.4510    2.1570 C.3    72  GLU72       0.1567
     94  C        -25.7840    1.7270    3.3760 C.2    72  GLU72       0.2260
     95  O        -27.0170    1.6170    3.6130 O.2    72  GLU72      -0.2867
     96  CB       -25.0310    3.9630    2.4720 C.3    72  GLU72       0.0388
     97  CG       -24.2480    4.6630    1.4130 C.3    72  GLU72       0.1160
     98  CD       -24.0510    6.1570    1.6090 C.2    72  GLU72       0.3649
     99  OE1      -24.6500    6.7130    2.6020 O.co2  72  GLU72      -0.2457
    100  OE2      -23.2730    6.7780    0.8450 O.co2  72  GLU72      -0.2457
    101  N        -25.2810    2.4740    7.4370 N.3    74  ARG74      -0.1245
    102  CA       -24.7620    3.5090    8.3120 C.3    74  ARG74       0.1563
    103  C        -24.7640    3.1150    9.7750 C.2    74  ARG74       0.2260
    104  O        -25.6820    2.4640   10.2530 O.2    74  ARG74      -0.2867
    105  CB       -25.5720    4.7390    8.0720 C.3    74  ARG74       0.0307
    106  CG       -25.2030    5.4290    6.7870 C.3    74  ARG74       0.0489
    107  CD       -26.2270    6.4780    6.3370 C.3    74  ARG74       0.2205
    108  NE       -25.6960    7.2420    5.2370 N.pl3  74  ARG74      -0.0865
    109  CZ       -25.1930    8.4680    5.3080 C.cat  74  ARG74       0.5346
    110  NH1      -25.1640    9.1360    6.4700 N.pl3  74  ARG74       0.1354
    111  NH2      -24.6510    9.0260    4.2600 N.pl3  74  ARG74       0.1354
    112  N         -6.8870    5.0170    3.1380 N.3   125  SER125     -0.1202
    113  CA        -6.7790    6.4130    2.7430 C.3   125  SER125      0.2020
    114  C         -7.4710    7.3220    3.7530 C.2   125  SER125      0.2619
    115  O         -8.1560    6.8940    4.6590 O.2   125  SER125     -0.2717
    116  CB        -7.3450    6.6250    1.3520 C.3   125  SER125      0.2103
    117  OG        -8.6870    6.3040    1.2980 O.3   125  SER125     -0.2182
    118  N         -7.1970    8.6110    3.5510 N.am  126  GLY126     -0.1956
    119  CA        -7.8410    9.6280    4.3770 C.3   126  GLY126      0.1869
    120  C         -6.9450   10.2400    5.4110 C.2   126  GLY126      0.2309
    121  O         -5.7250   10.2350    5.3330 O.2   126  GLY126     -0.2863
@<TRIPOS>BOND
     1    78    79    1
     2    81    80    2
     3    79    80    1
     4    79    82    1
     5    84    86   ar
     6    84    83   ar
     7    86    87   ar
     8    82    83    1
     9    83    85   ar
    10    87    85   ar
    11    87    89   ar
    12    85    88   ar
    13    89    91   ar
    14    88    90   ar
    15    91    90   ar
    16    77    75   am
    17    76    75    2
    18    75    74    1
    19    11     9    1
    20    72    73    2
    21    72    71    1
    22    74    71    1
    23    10     9    1
    24    31    33   ar
    25    31    30   ar
    26     9     8    2
    27    33    34   ar
    28    29    30    1
    29    29    26    1
    30   100    98   ar
    31    30    32   ar
    32    71    70    1
    33    92    93    1
    34    34    32   ar
    35   117   116    1
    36   116   113    1
    37    97    98    1
    38    97    96    1
    39    25    26    1
    40    98    99   ar
    41    26    27    1
    42     8     7    1
    43    53    51    1
    44    93    96    1
    45    93    94    1
    46    24    21    1
    47   113   112    1
    48   113   114    1
    49     7     6    1
    50    51    52    1
    51    51    50    2
    52    27    28    2
    53    94    95    2
    54    41    40    2
    55   118   114   am
    56   118   119    1
    57    68    67    1
    58   114   115    2
    59    23    22    2
    60    40    39    1
    61    40    42   am
    62    50    49    1
    63     6     5    1
    64    22    21    1
    65    21    20    1
    66   111   109    1
    67    39    36    1
    68   119   120    1
    69    62    60   ar
    70    67    69    1
    71    67    64    1
    72    20    14   am
    73     5     2    1
    74    66    65    2
    75    49    48    1
    76   108   109    2
    77   108   107    1
    78   109   110    1
    79   121   120    2
    80    65    64    1
    81    36    35    1
    82    36    37    1
    83    14    15    2
    84    14    13    1
    85    60    59    1
    86    60    61   ar
    87    48    47    1
    88    59    58    1
    89    64    63    1
    90   107   106    1
    91     4     3    2
    92     2     3    1
    93     2     1    1
    94    13    12    1
    95    13    16    1
    96     3    12   am
    97    38    37    2
    98   106   105    1
    99    58    55    1
   100    47    44    1
   101   101   102    1
   102    55    56    1
   103    55    54    1
   104    18    16    1
   105    16    17    1
   106   105   102    1
   107    44    43    1
   108    44    45    1
   109    56    57    2
   110   102   103    1
   111    17    19    1
   112    45    46    2
   113   103   104    2
