@<TRIPOS>MOLECULE
tmp/5iutA01.pdb
 237 225 0 0 0
SMALL
GASTEIGER

@<TRIPOS>ATOM
      1  N        -18.6030    7.1380   30.2990 N.3    15  LEU15      -0.1231
      2  CA       -18.5700    5.7600   30.7860 C.3    15  LEU15       0.1693
      3  C        -18.7250    5.7000   32.2980 C.2    15  LEU15       0.2591
      4  O        -19.5410    4.9420   32.8140 O.2    15  LEU15      -0.2718
      5  CB       -17.2490    5.0900   30.3900 C.3    15  LEU15       0.0284
      6  CG       -16.9760    3.6900   30.9570 C.3    15  LEU15       0.0019
      7  CD1      -18.0510    2.7130   30.5060 C.3    15  LEU15       0.0001
      8  CD2      -15.5960    3.2000   30.5480 C.3    15  LEU15       0.0001
      9  N        -17.9340    6.5060   33.0010 N.am   16  LEU16      -0.1980
     10  CA       -17.8920    6.4740   34.4650 C.3    16  LEU16       0.1596
     11  C        -19.0490    7.2260   35.1400 C.2    16  LEU16       0.2287
     12  O        -19.1290    7.2500   36.3710 O.2    16  LEU16      -0.2864
     13  CB       -16.5470    7.0200   34.9770 C.3    16  LEU16       0.0297
     14  CG       -15.3200    6.1190   34.7820 C.3    16  LEU16       0.0022
     15  CD1      -14.8140    6.1690   33.3460 C.3    16  LEU16       0.0001
     16  CD2      -14.2100    6.5160   35.7480 C.3    16  LEU16       0.0001
     17  N        -22.0710    6.4300   35.5070 N.3    18  MET18      -0.1230
     18  CA       -23.1080    5.3960   35.6300 C.3    18  MET18       0.1702
     19  C        -22.4740    4.1940   36.3770 C.2    18  MET18       0.2592
     20  O        -21.3180    4.3050   36.7950 O.2    18  MET18      -0.2718
     21  CB       -23.6320    5.0350   34.2290 C.3    18  MET18       0.0401
     22  CG       -22.6300    4.3690   33.3130 C.3    18  MET18       0.0596
     23  SD       -23.3020    4.1470   31.6550 S.3    18  MET18      -0.1393
     24  CE       -24.5520    2.8930   31.9380 C.3    18  MET18       0.0692
     25  N        -23.1670    3.0650   36.5800 N.am   19  ASP19      -0.1974
     26  CA       -24.5550    2.8110   36.1600 C.3    19  ASP19       0.1709
     27  C        -25.5010    2.4600   37.3180 C.2    19  ASP19       0.2293
     28  O        -26.6950    2.7740   37.2530 O.2    19  ASP19      -0.2864
     29  CB       -24.5890    1.7210   35.0680 C.3    19  ASP19       0.1436
     30  CG       -24.2830    0.3210   35.6000 C.2    19  ASP19       0.3671
     31  OD1      -25.2290   -0.3790   36.0230 O.co2  19  ASP19      -0.2456
     32  OD2      -23.1020   -0.0930   35.5610 O.co2  19  ASP19      -0.2456
     33  N        -28.7560    0.9690   33.1590 N.3    23  LEU23      -0.1245
     34  CA       -28.6890    1.9790   32.1000 C.3    23  LEU23       0.1561
     35  C        -29.9510    2.8470   32.0630 C.2    23  LEU23       0.2260
     36  O        -29.8810    4.0390   31.7550 O.2    23  LEU23      -0.2867
     37  CB       -28.4650    1.3090   30.7390 C.3    23  LEU23       0.0270
     38  CG       -28.3990    2.2230   29.5100 C.3    23  LEU23       0.0019
     39  CD1      -27.2430    3.2070   29.6150 C.3    23  LEU23       0.0001
     40  CD2      -28.2850    1.3860   28.2450 C.3    23  LEU23       0.0001
     41  N        -30.0900    6.9130   32.9830 N.3    27  PHE27      -0.1241
     42  CA       -30.8050    7.8790   32.1480 C.3    27  PHE27       0.1605
     43  C        -31.8670    8.6110   32.9640 C.2    27  PHE27       0.2264
     44  O        -32.0040    9.8270   32.8500 O.2    27  PHE27      -0.2867
     45  CB       -31.4460    7.1810   30.9400 C.3    27  PHE27       0.0534
     46  CG       -30.4920    6.9150   29.7960 C.ar   27  PHE27      -0.0203
     47  CD1      -29.1260    6.7410   30.0080 C.ar   27  PHE27      -0.0042
     48  CD2      -30.9750    6.8090   28.4990 C.ar   27  PHE27      -0.0042
     49  CE1      -28.2650    6.4900   28.9460 C.ar   27  PHE27      -0.0003
     50  CE2      -30.1190    6.5560   27.4340 C.ar   27  PHE27      -0.0003
     51  CZ       -28.7620    6.3970   27.6590 C.ar   27  PHE27      -0.0000
     52  N        -21.2770    8.0510   24.2600 N.3    42  LEU42      -0.1245
     53  CA       -20.9500    6.6260   24.2110 C.3    42  LEU42       0.1561
     54  C        -19.5940    6.4930   23.5250 C.2    42  LEU42       0.2260
     55  O        -19.4990    6.5200   22.2960 O.2    42  LEU42      -0.2867
     56  CB       -22.0220    5.8450   23.4440 C.3    42  LEU42       0.0270
     57  CG       -23.4600    5.9580   23.9600 C.3    42  LEU42       0.0019
     58  CD1      -24.3540    4.9920   23.1930 C.3    42  LEU42       0.0001
     59  CD2      -23.5560    5.7000   25.4600 C.3    42  LEU42       0.0001
     60  N        -26.6200   -0.2870   15.2790 N.3    73  ILE73      -0.1245
     61  CA       -26.3170   -1.0760   16.4740 C.3    73  ILE73       0.1561
     62  C        -25.0390   -1.8530   16.1670 C.2    73  ILE73       0.2260
     63  O        -25.0080   -2.6640   15.2400 O.2    73  ILE73      -0.2867
     64  CB       -27.4580   -2.0260   16.8640 C.3    73  ILE73       0.0252
     65  CG1      -28.7200   -1.2310   17.1910 C.3    73  ILE73       0.0019
     66  CG2      -27.0630   -2.8510   18.0790 C.3    73  ILE73       0.0019
     67  CD1      -29.9480   -2.0820   17.3100 C.3    73  ILE73       0.0001
     68  N        -34.8830   -2.2090    8.3280 N.3    86  ILE86      -0.1245
     69  CA       -34.6730   -1.6570    9.6730 C.3    86  ILE86       0.1561
     70  C        -33.5070   -0.6820    9.7150 C.2    86  ILE86       0.2260
     71  O        -33.6060    0.3810   10.3290 O.2    86  ILE86      -0.2867
     72  CB       -34.3780   -2.7490   10.7340 C.3    86  ILE86       0.0252
     73  CG1      -35.5220   -3.7460   10.8380 C.3    86  ILE86       0.0019
     74  CG2      -34.1770   -2.1230   12.1000 C.3    86  ILE86       0.0019
     75  CD1      -35.1560   -4.9690   11.6200 C.3    86  ILE86       0.0001
     76  N        -30.4690  -12.8780   20.2350 N.3   176  PHE176     -0.1241
     77  CA       -31.1460  -11.8170   20.9800 C.3   176  PHE176      0.1605
     78  C        -30.5780  -11.6530   22.3870 C.2   176  PHE176      0.2264
     79  O        -30.3330  -10.5350   22.8280 O.2   176  PHE176     -0.2867
     80  CB       -32.6580  -12.0620   21.0490 C.3   176  PHE176      0.0534
     81  CG       -33.3630  -11.8670   19.7360 C.ar  176  PHE176     -0.0203
     82  CD1      -33.2910  -10.6560   19.0680 C.ar  176  PHE176     -0.0042
     83  CD2      -34.1110  -12.8940   19.1720 C.ar  176  PHE176     -0.0042
     84  CE1      -33.9470  -10.4750   17.8530 C.ar  176  PHE176     -0.0003
     85  CE2      -34.7700  -12.7210   17.9570 C.ar  176  PHE176     -0.0003
     86  CZ       -34.6860  -11.5100   17.2970 C.ar  176  PHE176     -0.0000
     87  N        -27.1240  -10.0560   21.9010 N.3   179  ILE179     -0.1231
     88  CA       -27.2690   -8.6740   21.4520 C.3   179  ILE179      0.1692
     89  C        -27.6040   -7.7450   22.6270 C.2   179  ILE179      0.2592
     90  O        -27.0420   -6.6550   22.7410 O.2   179  ILE179     -0.2718
     91  CB       -28.3530   -8.5480   20.3510 C.3   179  ILE179      0.0266
     92  CG1      -27.8700   -9.1880   19.0450 C.3   179  ILE179      0.0019
     93  CG2      -28.7180   -7.0810   20.1110 C.3   179  ILE179      0.0020
     94  CD1      -28.9920   -9.6900   18.1640 C.3   179  ILE179      0.0001
     95  N        -28.5010   -8.1940   23.5040 N.am  180  SER180     -0.1952
     96  CA       -28.9110   -7.4130   24.6810 C.3   180  SER180      0.1924
     97  C        -27.8990   -7.4270   25.8350 C.2   180  SER180      0.2314
     98  O        -27.9060   -6.5210   26.6750 O.2   180  SER180     -0.2863
     99  CB       -30.2660   -7.9070   25.2050 C.3   180  SER180      0.2116
    100  OG       -31.3200   -7.4860   24.3580 O.3   180  SER180     -0.2180
    101  N        -24.6920   -7.3170   28.4720 N.3   182  PHE182     -0.1241
    102  CA       -23.7910   -6.2450   28.9010 C.3   182  PHE182      0.1605
    103  C        -22.5140   -6.1880   28.0460 C.2   182  PHE182      0.2264
    104  O        -22.0050   -5.1020   27.7570 O.2   182  PHE182     -0.2867
    105  CB       -23.4600   -6.4230   30.3950 C.3   182  PHE182      0.0534
    106  CG       -22.3770   -5.5060   30.9030 C.ar  182  PHE182     -0.0203
    107  CD1      -21.0950   -5.9960   31.1530 C.ar  182  PHE182     -0.0042
    108  CD2      -22.6370   -4.1610   31.1400 C.ar  182  PHE182     -0.0042
    109  CE1      -20.0850   -5.1570   31.6270 C.ar  182  PHE182     -0.0003
    110  CE2      -21.6320   -3.3140   31.6140 C.ar  182  PHE182     -0.0003
    111  CZ       -20.3540   -3.8170   31.8570 C.ar  182  PHE182     -0.0000
    112  N        -23.1720   -4.3230   24.9660 N.3   185  GLN185     -0.1231
    113  CA       -23.2890   -2.9050   25.2940 C.3   185  GLN185      0.1698
    114  C        -21.9060   -2.2740   25.4480 C.2   185  GLN185      0.2592
    115  O        -21.7080   -1.1160   25.0860 O.2   185  GLN185     -0.2718
    116  CB       -24.1400   -2.6830   26.5540 C.3   185  GLN185      0.0381
    117  CG       -25.5720   -3.2730   26.5360 C.3   185  GLN185      0.0905
    118  CD       -26.2610   -3.2600   25.1640 C.2   185  GLN185      0.2608
    119  OE1      -27.0740   -4.1380   24.8590 O.2   185  GLN185     -0.2717
    120  NE2      -25.9470   -2.2680   24.3420 N.am  185  GLN185     -0.0878
    121  N        -20.9500   -3.0380   25.9660 N.am  186  VAL186     -0.1980
    122  CA       -19.5570   -2.5910   25.9930 C.3   186  VAL186      0.1595
    123  C        -19.0050   -2.5090   24.5700 C.2   186  VAL186      0.2287
    124  O        -18.2900   -1.5670   24.2250 O.2   186  VAL186     -0.2864
    125  CB       -18.6690   -3.5250   26.8460 C.3   186  VAL186      0.0276
    126  CG1      -17.2100   -3.0950   26.7650 C.3   186  VAL186      0.0022
    127  CG2      -19.1480   -3.5300   28.2900 C.3   186  VAL186      0.0022
    128  N        -20.6920   -1.8540   21.9620 N.3   188  GLU188     -0.1231
    129  CA       -21.2990   -0.6720   21.3470 C.3   188  GLU188      0.1699
    130  C        -20.3940    0.5570   21.5140 C.2   188  GLU188      0.2592
    131  O        -20.1190    1.2670   20.5490 O.2   188  GLU188     -0.2718
    132  CB       -22.6930   -0.4220   21.9400 C.3   188  GLU188      0.0402
    133  CG       -23.4790    0.7340   21.3130 C.3   188  GLU188      0.1161
    134  CD       -23.6720    0.5900   19.8100 C.2   188  GLU188      0.3649
    135  OE1      -24.3730   -0.3510   19.3780 O.co2 188  GLU188     -0.2457
    136  OE2      -23.1230    1.4270   19.0610 O.co2 188  GLU188     -0.2457
    137  N        -19.9070    0.7670   22.7350 N.am  189  LEU189     -0.1980
    138  CA       -19.0290    1.8970   23.0520 C.3   189  LEU189      0.1596
    139  C        -17.6390    1.7990   22.4180 C.2   189  LEU189      0.2287
    140  O        -17.0810    2.8160   21.9940 O.2   189  LEU189     -0.2864
    141  CB       -18.8650    2.0410   24.5690 C.3   189  LEU189      0.0297
    142  CG       -19.9760    2.7500   25.3500 C.3   189  LEU189      0.0022
    143  CD1      -21.3290    2.1050   25.1210 C.3   189  LEU189      0.0001
    144  CD2      -19.6270    2.7530   26.8290 C.3   189  LEU189      0.0001
    145  N        -35.7750  -10.3800   12.7050 N.3   267  PHE267     -0.1227
    146  CA       -35.0690   -9.6590   13.7610 C.3   267  PHE267      0.1736
    147  C        -36.0230   -8.8070   14.6110 C.2   267  PHE267      0.2595
    148  O        -35.9300   -8.8040   15.8360 O.2   267  PHE267     -0.2718
    149  CB       -33.9790   -8.7830   13.1370 C.3   267  PHE267      0.0547
    150  CG       -33.1200   -8.0700   14.1380 C.ar  267  PHE267     -0.0202
    151  CD1      -32.1390   -8.7530   14.8400 C.ar  267  PHE267     -0.0042
    152  CD2      -33.2780   -6.7180   14.3710 C.ar  267  PHE267     -0.0042
    153  CE1      -31.3380   -8.0980   15.7650 C.ar  267  PHE267     -0.0003
    154  CE2      -32.4830   -6.0570   15.2990 C.ar  267  PHE267     -0.0003
    155  CZ       -31.5100   -6.7500   15.9920 C.ar  267  PHE267     -0.0000
    156  N        -36.9480   -8.1130   13.9470 N.am  268  ALA268     -0.1980
    157  CA       -37.8900   -7.2010   14.6070 C.3   268  ALA268      0.1597
    158  C        -39.2340   -7.8540   14.9140 C.2   268  ALA268      0.2287
    159  O        -39.9720   -7.3680   15.7710 O.2   268  ALA268     -0.2864
    160  CB       -38.1090   -5.9610   13.7510 C.3   268  ALA268      0.0319
    161  N        -38.8630  -11.5920   18.5990 N.3   271  GLU271     -0.1231
    162  CA       -38.4690  -11.4780   20.0040 C.3   271  GLU271      0.1699
    163  C        -39.4530  -10.6490   20.8490 C.2   271  GLU271      0.2592
    164  O        -40.0080  -11.1470   21.8290 O.2   271  GLU271     -0.2718
    165  CB       -37.0480  -10.9050   20.0940 C.3   271  GLU271      0.0402
    166  CG       -36.5520  -10.5280   21.5010 C.3   271  GLU271      0.1161
    167  CD       -36.6720  -11.6500   22.5190 C.2   271  GLU271      0.3649
    168  OE1      -36.8370  -11.3170   23.7150 O.co2 271  GLU271     -0.2457
    169  OE2      -36.6030  -12.8490   22.1380 O.co2 271  GLU271     -0.2457
    170  N        -39.6680   -9.3960   20.4600 N.am  272  THR272     -0.1953
    171  CA       -40.5310   -8.4940   21.2240 C.3   272  THR272      0.1897
    172  C        -41.9510   -9.0510   21.3420 C.2   272  THR272      0.2313
    173  O        -42.5150   -9.0730   22.4280 O.2   272  THR272     -0.2863
    174  CB       -40.5580   -7.0770   20.6190 C.3   272  THR272      0.1794
    175  OG1      -39.2190   -6.6560   20.3300 O.3   272  THR272     -0.2208
    176  CG2      -41.1870   -6.0860   21.6020 C.3   272  THR272      0.0378
    177  N        -38.8890   -2.4790   24.9930 N.3   333  ILE333     -0.1245
    178  CA       -37.8730   -1.7000   24.2790 C.3   333  ILE333      0.1561
    179  C        -37.7370   -0.3370   24.9580 C.2   333  ILE333      0.2260
    180  O        -38.1560    0.6840   24.4140 O.2   333  ILE333     -0.2867
    181  CB       -38.2040   -1.5570   22.7930 C.3   333  ILE333      0.0252
    182  CG1      -38.5350   -2.9240   22.1860 C.3   333  ILE333      0.0019
    183  CG2      -37.0310   -0.9270   22.0520 C.3   333  ILE333      0.0019
    184  CD1      -38.9170   -2.8740   20.7300 C.3   333  ILE333      0.0001
    185  N        -35.3970    1.8440   25.6800 N.3   335  PHE335     -0.1227
    186  CA       -34.6320    2.9310   25.0690 C.3   335  PHE335      0.1736
    187  C        -35.0430    3.1940   23.6350 C.2   335  PHE335      0.2596
    188  O        -34.5070    4.1010   22.9960 O.2   335  PHE335     -0.2718
    189  CB       -33.1370    2.6050   25.0790 C.3   335  PHE335      0.0547
    190  CG       -32.6160    2.2330   26.4280 C.ar  335  PHE335     -0.0202
    191  CD1      -32.2620    0.9250   26.7140 C.ar  335  PHE335     -0.0042
    192  CD2      -32.4980    3.1920   27.4240 C.ar  335  PHE335     -0.0042
    193  CE1      -31.7910    0.5820   27.9710 C.ar  335  PHE335     -0.0003
    194  CE2      -32.0180    2.8550   28.6860 C.ar  335  PHE335     -0.0003
    195  CZ       -31.6700    1.5500   28.9590 C.ar  335  PHE335     -0.0000
    196  N        -35.9800    2.4020   23.1230 N.am  336  GLY336     -0.1942
    197  CA       -36.3200    2.4350   21.7100 C.3   336  GLY336      0.2014
    198  C        -35.2050    1.8490   20.8670 C.2   336  GLY336      0.2639
    199  O        -34.2380    1.3040   21.3990 O.2   336  GLY336     -0.2714
    200  N        -35.3550    1.9490   19.5510 N.am  337  VAL337     -0.1963
    201  CA       -34.2880    1.6320   18.6130 C.3   337  VAL337      0.1712
    202  C        -33.6290    2.9610   18.2010 C.2   337  VAL337      0.2458
    203  O        -34.3240    3.9470   18.0130 O.2   337  VAL337     -0.2730
    204  CB       -34.8410    0.8810   17.3800 C.3   337  VAL337      0.0289
    205  CG1      -33.7180    0.4850   16.4290 C.3   337  VAL337      0.0023
    206  CG2      -35.6440   -0.3510   17.8120 C.3   337  VAL337      0.0023
    207  N        -32.2890    2.9990   18.0720 N.am  338  PRO338     -0.2727
    208  CA       -31.5890    4.2720   17.8680 C.3   338  PRO338      0.1402
    209  C        -31.9640    5.0290   16.5980 C.2   338  PRO338      0.2269
    210  O        -31.9950    4.4440   15.5210 O.2   338  PRO338     -0.2865
    211  CB       -30.1180    3.8470   17.7830 C.3   338  PRO338      0.0296
    212  CG       -30.0570    2.5720   18.5090 C.3   338  PRO338      0.0237
    213  CD       -31.3310    1.8850   18.1730 C.3   338  PRO338      0.0939
    214  N        -31.6960    8.7160   20.9970 N.3   359  PHE359     -0.1241
    215  CA       -32.4110    7.6300   21.6450 C.3   359  PHE359      0.1605
    216  C        -33.7420    8.1590   22.1680 C.2   359  PHE359      0.2264
    217  O        -33.7580    9.0020   23.0630 O.2   359  PHE359     -0.2867
    218  CB       -31.6000    7.0400   22.8100 C.3   359  PHE359      0.0534
    219  CG       -30.3080    6.3590   22.4050 C.ar  359  PHE359     -0.0203
    220  CD1      -29.9490    6.1700   21.0740 C.ar  359  PHE359     -0.0042
    221  CD2      -29.4550    5.8770   23.3870 C.ar  359  PHE359     -0.0042
    222  CE1      -28.7700    5.5260   20.7420 C.ar  359  PHE359     -0.0003
    223  CE2      -28.2680    5.2350   23.0540 C.ar  359  PHE359     -0.0003
    224  CZ       -27.9300    5.0600   21.7290 C.ar  359  PHE359     -0.0000
    225  N        -43.1340    1.2410   14.3060 N.3   406  CYS406     -0.1235
    226  CA       -43.0420   -0.1850   13.9890 C.3   406  CYS406      0.1677
    227  C        -43.8100   -0.5450   12.7190 C.2   406  CYS406      0.2270
    228  O        -45.0310   -0.4660   12.6800 O.2   406  CYS406     -0.2867
    229  CB       -43.5790   -1.0370   15.1390 C.3   406  CYS406      0.0956
    230  SG       -43.6340   -2.7900   14.7570 S.3   406  CYS406     -0.0801
    231  N        -29.5550   -4.2660   28.4070 N.3   445  VAL445     -0.1245
    232  CA       -30.3370   -3.2670   27.6620 C.3   445  VAL445      0.1561
    233  C        -31.7460   -3.7850   27.3680 C.2   445  VAL445      0.2260
    234  O        -32.6630   -3.0020   27.0980 O.2   445  VAL445     -0.2867
    235  CB       -29.6590   -2.8770   26.3300 C.3   445  VAL445      0.0252
    236  CG1      -30.5670   -2.3620   25.1750 C.3   445  VAL445      0.0019
    237  CG2      -28.4780   -1.9390   26.5680 C.3   445  VAL445      0.0019
@<TRIPOS>BOND
     1    68    69    1
     2    69    70    1
     3    69    72    1
     4    70    71    2
     5    72    73    1
     6    72    74    1
     7    73    75    1
     8   228   227    2
     9   145   146    1
    10   227   226    1
    11   149   146    1
    12   149   150    1
    13   160   157    1
    14   146   147    1
    15   156   157    1
    16   156   147   am
    17   226   225    1
    18   226   229    1
    19   150   152   ar
    20   150   151   ar
    21   152   154   ar
    22   157   158    1
    23   147   148    2
    24   230   229    1
    25   151   153   ar
    26   158   159    2
    27    63    62    2
    28    60    61    1
    29   154   155   ar
    30   210   209    2
    31   153   155   ar
    32    62    61    1
    33   205   204    1
    34    61    64    1
    35   209   208    1
    36    64    65    1
    37    64    66    1
    38    65    67    1
    39    86    84   ar
    40    86    85   ar
    41   204   206    1
    42   204   201    1
    43   211   208    1
    44   211   212    1
    45    84    82   ar
    46   208   207    1
    47    85    83   ar
    48   203   202    2
    49   207   213    1
    50   207   202   am
    51    94    92    1
    52   213   212    1
    53   202   201    1
    54   161   162    1
    55   201   200    1
    56    92    91    1
    57   136   134   ar
    58    82    81   ar
    59    83    81   ar
    60   135   134   ar
    61   200   198   am
    62    81    80    1
    63   134   133    1
    64   162   165    1
    65   162   163    1
    66   165   166    1
    67    93    91    1
    68    76    77    1
    69   175   174    1
    70    91    88    1
    71   170   163   am
    72   170   171    1
    73   131   130    2
    74   174   171    1
    75   174   176    1
    76   184   182    1
    77   222   220   ar
    78   222   224   ar
    79   163   164    2
    80   198   199    2
    81   198   197    1
    82    77    80    1
    83    77    78    1
    84   214   215    1
    85   220   219   ar
    86   171   172    1
    87   133   132    1
    88   172   173    2
    89   129   130    1
    90   129   132    1
    91   129   128    1
    92    88    87    1
    93    88    89    1
    94   166   167    1
    95   130   137   am
    96   215   216    1
    97   215   218    1
    98   197   196    1
    99   224   223   ar
   100   140   139    2
   101   183   181    1
   102   169   167   ar
   103   216   217    2
   104   182   181    1
   105    55    54    2
   106    78    79    2
   107   219   218    1
   108   219   221   ar
   109   139   138    1
   110   167   168   ar
   111    89    90    2
   112    89    95   am
   113   137   138    1
   114   181   178    1
   115   188   187    2
   116   138   141    1
   117   223   221   ar
   118   196   187   am
   119    58    57    1
   120    56    57    1
   121    56    53    1
   122    95    96    1
   123    54    53    1
   124   187   186    1
   125    57    59    1
   126    53    52    1
   127   124   123    2
   128   178   179    1
   129   178   177    1
   130   120   118   am
   131   100    99    1
   132   180   179    2
   133   141   142    1
   134   123   122    1
   135    96    99    1
   136    96    97    1
   137   119   118    2
   138   112   113    1
   139   186   189    1
   140   186   185    1
   141   189   190    1
   142   115   114    2
   143   143   142    1
   144   118   117    1
   145   236   235    1
   146   113   114    1
   147   113   116    1
   148   142   144    1
   149   114   121   am
   150    97    98    2
   151   121   122    1
   152   122   125    1
   153   235   237    1
   154   235   232    1
   155   190   191   ar
   156   190   192   ar
   157   117   116    1
   158   191   193   ar
   159   126   125    1
   160   125   127    1
   161   234   233    2
   162   233   232    1
   163   192   194   ar
   164    50    51   ar
   165    50    48   ar
   166    51    49   ar
   167   232   231    1
   168   104   103    2
   169   193   195   ar
   170   103   102    1
   171    40    38    1
   172   101   102    1
   173    48    46   ar
   174   194   195   ar
   175   102   105    1
   176    49    47   ar
   177    38    39    1
   178    38    37    1
   179    46    47   ar
   180    46    45    1
   181     1     2    1
   182     5     2    1
   183     5     6    1
   184   105   106    1
   185     7     6    1
   186     8     6    1
   187    37    34    1
   188     2     3    1
   189   106   108   ar
   190   106   107   ar
   191    45    42    1
   192   108   110   ar
   193   107   109   ar
   194   110   111   ar
   195   109   111   ar
   196    23    24    1
   197    23    22    1
   198    36    35    2
   199    35    34    1
   200    34    33    1
   201    42    43    1
   202    42    41    1
   203     3     4    2
   204     3     9   am
   205    44    43    2
   206     9    10    1
   207    22    21    1
   208    15    14    1
   209    21    18    1
   210    10    13    1
   211    10    11    1
   212    14    13    1
   213    14    16    1
   214    29    30    1
   215    29    26    1
   216    11    12    2
   217    17    18    1
   218    32    30   ar
   219    30    31   ar
   220    18    19    1
   221    26    25    1
   222    26    27    1
   223    19    25   am
   224    19    20    2
   225    28    27    2
