@<TRIPOS>MOLECULE
tmp/5iuwA01.pdb
 140 136 0 0 0
SMALL
GASTEIGER

@<TRIPOS>ATOM
      1  N        109.1210  113.9480  181.9580 N.3   117  VAL117     -0.1245
      2  CA       107.6930  114.2400  182.0360 C.3   117  VAL117      0.1561
      3  C        107.3890  115.6910  182.4110 C.2   117  VAL117      0.2260
      4  O        106.6920  116.3910  181.6710 O.2   117  VAL117     -0.2867
      5  CB       106.9900  113.2950  183.0380 C.3   117  VAL117      0.0252
      6  CG1      105.5380  113.6930  183.2340 C.3   117  VAL117      0.0019
      7  CG2      107.0860  111.8580  182.5510 C.3   117  VAL117      0.0019
      8  N        103.1800  118.6450  193.9470 N.3   166  ASN166     -0.1225
      9  CA       103.3970  117.3330  193.3390 C.3   166  ASN166      0.1785
     10  C        103.9140  117.3880  191.8870 C.2   166  ASN166      0.2597
     11  O        104.7130  116.5500  191.4840 O.2   166  ASN166     -0.2718
     12  CB       102.1300  116.4860  193.4320 C.3   166  ASN166      0.1169
     13  CG       100.9650  117.0680  192.6650 C.2   166  ASN166      0.2627
     14  OD1      100.8120  118.2820  192.5530 O.2   166  ASN166     -0.2716
     15  ND2      100.1150  116.1870  192.1460 N.am  166  ASN166     -0.0877
     16  N        103.4590  118.3590  191.1090 N.am  167  PHE167     -0.1976
     17  CA       104.0890  118.6700  189.8310 C.3   167  PHE167      0.1639
     18  C        104.3160  120.1780  189.7920 C.2   167  PHE167      0.2290
     19  O        103.5310  120.9040  189.1810 O.2   167  PHE167     -0.2864
     20  CB       103.2260  118.2440  188.6380 C.3   167  PHE167      0.0560
     21  CG       103.0040  116.7630  188.5190 C.ar  167  PHE167     -0.0200
     22  CD1      103.8420  115.9810  187.7450 C.ar  167  PHE167     -0.0042
     23  CD2      101.9260  116.1560  189.1520 C.ar  167  PHE167     -0.0042
     24  CE1      103.6280  114.6180  187.6200 C.ar  167  PHE167     -0.0003
     25  CE2      101.6980  114.7950  189.0290 C.ar  167  PHE167     -0.0003
     26  CZ       102.5520  114.0220  188.2640 C.ar  167  PHE167     -0.0000
     27  N        105.0940  121.8780  186.1520 N.3   170  MET170     -0.1230
     28  CA       104.0400  121.5870  185.2050 C.3   170  MET170      0.1702
     29  C        102.7210  122.2660  185.6000 C.2   170  MET170      0.2592
     30  O        102.0440  122.8240  184.7400 O.2   170  MET170     -0.2718
     31  CB       103.8400  120.0850  185.0600 C.3   170  MET170      0.0401
     32  CG       103.1330  119.7050  183.7690 C.3   170  MET170      0.0596
     33  SD       102.5360  118.0150  183.7490 S.3   170  MET170     -0.1393
     34  CE       104.0450  117.1140  183.9970 C.3   170  MET170      0.0692
     35  N        102.3720  122.2420  186.8880 N.am  171  MET171     -0.1979
     36  CA       101.1180  122.8580  187.3320 C.3   171  MET171      0.1605
     37  C        101.1880  124.3710  187.1850 C.2   171  MET171      0.2287
     38  O        100.1940  124.9970  186.8490 O.2   171  MET171     -0.2864
     39  CB       100.7780  122.4980  188.7910 C.3   171  MET171      0.0413
     40  CG       100.3020  121.0630  189.0170 C.3   171  MET171      0.0598
     41  SD        98.9140  120.6340  187.9630 S.3   171  MET171     -0.1393
     42  CE        99.7170  119.6990  186.6580 C.3   171  MET171      0.0692
     43  N        100.6070  125.1230  183.4900 N.3   174  TRP174     -0.1241
     44  CA        99.1970  124.9460  183.1430 C.3   174  TRP174      0.1605
     45  C         98.4250  126.2380  183.3810 C.2   174  TRP174      0.2264
     46  O         97.5250  126.5790  182.6110 O.2   174  TRP174     -0.2867
     47  CB        98.5710  123.8010  183.9510 C.3   174  TRP174      0.0550
     48  CG        98.8520  122.4520  183.4060 C.ar  174  TRP174      0.0003
     49  CD1       99.8180  122.1090  182.5100 C.ar  174  TRP174      0.0946
     50  CD2       98.1350  121.2540  183.7020 C.ar  174  TRP174      0.0152
     51  NE1       99.7540  120.7640  182.2360 N.ar  174  TRP174     -0.2442
     52  CE2       98.7270  120.2160  182.9570 C.ar  174  TRP174      0.0810
     53  CE3       97.0490  120.9560  184.5350 C.ar  174  TRP174      0.0012
     54  CZ2       98.2730  118.8990  183.0170 C.ar  174  TRP174      0.0191
     55  CZ3       96.5970  119.6460  184.5930 C.ar  174  TRP174      0.0001
     56  CH2       97.2070  118.6360  183.8330 C.ar  174  TRP174      0.0015
     57  N         95.2730  125.1140  192.3360 N.3   241  THR241     -0.1218
     58  CA        95.3660  123.6800  192.2920 C.3   241  THR241      0.1862
     59  C         95.9150  123.2040  193.6320 C.2   241  THR241      0.2287
     60  O         96.9630  123.6760  194.0870 O.2   241  THR241     -0.2866
     61  CB        96.2470  123.2130  191.1390 C.3   241  THR241      0.1770
     62  OG1       95.6570  123.6070  189.8900 O.3   241  THR241     -0.2211
     63  CG2       96.3520  121.7330  191.1730 C.3   241  THR241      0.0375
     64  N        103.0280  105.6450  189.9160 N.3   294  PHE294     -0.1241
     65  CA       103.7030  106.7600  189.2730 C.3   294  PHE294      0.1605
     66  C        103.6900  107.9980  190.1720 C.2   294  PHE294      0.2264
     67  O        102.6860  108.3040  190.8090 O.2   294  PHE294     -0.2867
     68  CB       103.0760  107.0930  187.9210 C.3   294  PHE294      0.0534
     69  CG       103.7110  108.2690  187.2570 C.ar  294  PHE294     -0.0203
     70  CD1      104.9840  108.1600  186.7120 C.ar  294  PHE294     -0.0042
     71  CD2      103.0610  109.4950  187.2120 C.ar  294  PHE294     -0.0042
     72  CE1      105.5940  109.2480  186.1170 C.ar  294  PHE294     -0.0003
     73  CE2      103.6590  110.5910  186.6130 C.ar  294  PHE294     -0.0003
     74  CZ       104.9280  110.4700  186.0660 C.ar  294  PHE294     -0.0000
     75  N         99.4890  111.9350  192.9480 N.3   299  VAL299     -0.1231
     76  CA        98.8910  112.3460  191.6850 C.3   299  VAL299      0.1692
     77  C         97.3910  112.5120  191.9080 C.2   299  VAL299      0.2592
     78  O         96.7250  111.6110  192.4140 O.2   299  VAL299     -0.2718
     79  CB        99.1480  111.3150  190.5720 C.3   299  VAL299      0.0266
     80  CG1       98.4340  111.7140  189.2830 C.3   299  VAL299      0.0020
     81  CG2      100.6550  111.1250  190.3440 C.3   299  VAL299      0.0020
     82  N         96.8600  113.6640  191.5420 N.am  300  CYS300     -0.1956
     83  CA        95.4580  113.9320  191.8070 C.3   300  CYS300      0.1843
     84  C         94.5330  112.9270  191.1210 C.2   300  CYS300      0.2626
     85  O         93.4730  112.5970  191.6420 O.2   300  CYS300     -0.2714
     86  CB        95.1110  115.3480  191.3720 C.3   300  CYS300      0.0997
     87  SG        95.2350  115.6490  189.5760 S.3   300  CYS300     -0.0797
     88  N         94.9500  112.4410  189.9580 N.am  301  THR301     -0.1950
     89  CA        94.1650  111.4770  189.2030 C.3   301  THR301      0.1897
     90  C         94.6440  110.0420  189.3650 C.2   301  THR301      0.2313
     91  O         94.3180  109.1820  188.5450 O.2   301  THR301     -0.2863
     92  CB        94.1780  111.8090  187.7070 C.3   301  THR301      0.1794
     93  OG1       95.5330  111.9120  187.2590 O.3   301  THR301     -0.2208
     94  CG2       93.4630  113.1160  187.4650 C.3   301  THR301      0.0378
     95  N         88.9070  107.9490  180.7380 N.3   452  TRP452     -0.1241
     96  CA        89.8440  107.2850  179.8550 C.3   452  TRP452      0.1605
     97  C         89.3320  105.8800  179.5610 C.2   452  TRP452      0.2264
     98  O         88.9130  105.1680  180.4590 O.2   452  TRP452     -0.2867
     99  CB        91.2450  107.2710  180.4850 C.3   452  TRP452      0.0550
    100  CG        91.7590  108.6830  180.7330 C.ar  452  TRP452      0.0003
    101  CD1       91.8300  109.6970  179.8200 C.ar  452  TRP452      0.0946
    102  CD2       92.2610  109.2180  181.9610 C.ar  452  TRP452      0.0152
    103  NE1       92.3330  110.8290  180.4040 N.ar  452  TRP452     -0.2442
    104  CE2       92.6130  110.5620  181.7170 C.ar  452  TRP452      0.0810
    105  CE3       92.4470  108.6960  183.2440 C.ar  452  TRP452      0.0012
    106  CZ2       93.1370  111.3850  182.7040 C.ar  452  TRP452      0.0191
    107  CZ3       92.9820  109.5170  184.2230 C.ar  452  TRP452      0.0001
    108  CH2       93.3180  110.8430  183.9480 C.ar  452  TRP452      0.0015
    109  N         95.4000  107.7270  182.3270 N.3   457  ASP457     -0.1225
    110  CA        96.2420  108.9270  182.2630 C.3   457  ASP457      0.1805
    111  C         96.4300  109.4040  180.8230 C.2   457  ASP457      0.2598
    112  O         97.5320  109.7280  180.3990 O.2   457  ASP457     -0.2718
    113  CB        97.6020  108.6700  182.9110 C.3   457  ASP457      0.1424
    114  CG        98.3640  109.9540  183.2040 C.2   457  ASP457      0.3668
    115  OD1       97.7100  111.0070  183.3640 O.co2 457  ASP457     -0.2456
    116  OD2       99.6160  109.9080  183.2690 O.co2 457  ASP457     -0.2456
    117  N         95.3400  109.4340  180.0720 N.am  458  GLY458     -0.1957
    118  CA        95.3960  109.8410  178.6820 C.3   458  GLY458      0.1869
    119  C         95.1770  111.3330  178.4750 C.2   458  GLY458      0.2309
    120  O         95.1080  112.1140  179.4210 O.2   458  GLY458     -0.2863
    121  N         91.0220  119.4980  181.3000 N.3   465  PHE465     -0.1241
    122  CA        91.2840  118.7030  182.4820 C.3   465  PHE465      0.1605
    123  C         90.7460  119.4460  183.6970 C.2   465  PHE465      0.2264
    124  O         91.0300  120.6240  183.8650 O.2   465  PHE465     -0.2867
    125  CB        92.7930  118.4400  182.6090 C.3   465  PHE465      0.0534
    126  CG        93.1820  117.6190  183.7950 C.ar  465  PHE465     -0.0203
    127  CD1       93.2950  118.1980  185.0520 C.ar  465  PHE465     -0.0042
    128  CD2       93.4780  116.2710  183.6520 C.ar  465  PHE465     -0.0042
    129  CE1       93.6600  117.4490  186.1460 C.ar  465  PHE465     -0.0003
    130  CE2       93.8620  115.5140  184.7550 C.ar  465  PHE465     -0.0003
    131  CZ        93.9490  116.1140  186.0030 C.ar  465  PHE465     -0.0000
    132  N         94.4210  123.1310  180.4980 N.3   477  LYS477     -0.1245
    133  CA        94.7430  122.6330  179.1560 C.3   477  LYS477      0.1561
    134  C         93.6110  122.9370  178.1620 C.2   477  LYS477      0.2260
    135  O         92.5560  123.3970  178.5520 O.2   477  LYS477     -0.2867
    136  CB        95.0440  121.1280  179.1710 C.3   477  LYS477      0.0271
    137  CG        96.1400  120.7280  180.1580 C.3   477  LYS477      0.0035
    138  CD        96.6780  119.3360  179.8600 C.3   477  LYS477      0.0206
    139  CE        95.6220  118.2760  180.0820 C.3   477  LYS477      0.1093
    140  NZ        95.9850  116.9970  179.4370 N.3   477  LYS477     -0.1314
@<TRIPOS>BOND
     1   134   135    2
     2   134   133    1
     3   119   118    1
     4   119   120    2
     5   118   117    1
     6   133   136    1
     7   133   132    1
     8   136   137    1
     9   140   139    1
    10    97    96    1
    11    97    98    2
    12   101   103   ar
    13   101   100   ar
    14    96    99    1
    15    96    95    1
    16   138   139    1
    17   138   137    1
    18   117   111   am
    19   112   111    2
    20   103   104   ar
    21    99   100    1
    22   100   102   ar
    23   111   110    1
    24   121   122    1
    25     4     3    2
    26   104   102   ar
    27   104   106   ar
    28     1     2    1
    29   102   105   ar
    30     2     3    1
    31     2     5    1
    32    51    49   ar
    33    51    52   ar
    34   110   109    1
    35   110   113    1
    36   122   125    1
    37   122   123    1
    38    49    48   ar
    39     7     5    1
    40   125   126    1
    41    46    45    2
    42   106   108   ar
    43   113   114    1
    44    52    54   ar
    45    52    50   ar
    46    54    56   ar
    47     5     6    1
    48    44    45    1
    49    44    43    1
    50    44    47    1
    51   114   116   ar
    52   114   115   ar
    53   105   107   ar
    54    48    50   ar
    55    48    47    1
    56   128   126   ar
    57   128   130   ar
    58   123   124    2
    59    50    53   ar
    60    33    32    1
    61    33    34    1
    62    32    31    1
    63   126   127   ar
    64    56    55   ar
    65   108   107   ar
    66    53    55   ar
    67    30    29    2
    68   130   131   ar
    69   127   129   ar
    70    31    28    1
    71    28    29    1
    72    28    27    1
    73    29    35   am
    74   131   129   ar
    75    74    72   ar
    76    74    73   ar
    77    72    70   ar
    78    73    71   ar
    79    42    41    1
    80    70    69   ar
    81    38    37    2
    82    35    36    1
    83    37    36    1
    84    71    69   ar
    85    69    68    1
    86    93    92    1
    87    36    39    1
    88    94    92    1
    89    24    22   ar
    90    24    26   ar
    91    92    89    1
    92    22    21   ar
    93    68    65    1
    94    41    40    1
    95    26    25   ar
    96    21    20    1
    97    21    23   ar
    98    91    90    2
    99    20    17    1
   100    39    40    1
   101    25    23   ar
   102    19    18    2
   103    89    90    1
   104    89    88    1
   105    65    64    1
   106    65    66    1
   107    80    79    1
   108    87    86    1
   109    18    17    1
   110    17    16    1
   111    62    61    1
   112    88    84   am
   113    66    67    2
   114    81    79    1
   115    79    76    1
   116    16    10   am
   117    84    85    2
   118    84    83    1
   119    61    63    1
   120    61    58    1
   121    86    83    1
   122    11    10    2
   123    82    83    1
   124    82    77   am
   125    76    77    1
   126    76    75    1
   127    10     9    1
   128    77    78    2
   129    15    13   am
   130    58    57    1
   131    58    59    1
   132    14    13    2
   133    13    12    1
   134     9    12    1
   135     9     8    1
   136    59    60    2
