@<TRIPOS>MOLECULE
tmp/5iuxA04.pdb
 85 83 0 0 0
SMALL
GASTEIGER

@<TRIPOS>ATOM
      1  N         27.3750   -7.6040  -10.1400 N.3     1  VAL1       -0.1231
      2  CA        27.2530   -7.0520   -8.7910 C.3     1  VAL1        0.1692
      3  C         28.3300   -5.9970   -8.5230 C.2     1  VAL1        0.2593
      4  O         29.5250   -6.2910   -8.5880 O.2     1  VAL1       -0.2718
      5  CB        27.1820   -8.1270   -7.6720 C.3     1  VAL1        0.0266
      6  CG1       25.7540   -8.6180   -7.4790 C.3     1  VAL1        0.0020
      7  CG2       28.1370   -9.2960   -7.9340 C.3     1  VAL1        0.0020
      8  N         27.8900   -4.7570   -8.2750 N.am    2  SER2       -0.1939
      9  CA        28.7270   -3.5860   -7.9950 C.3     2  SER2        0.2040
     10  C         28.0100   -2.7710   -6.8900 C.2     2  SER2        0.2485
     11  O         26.9060   -3.1720   -6.5300 O.2     2  SER2       -0.2729
     12  CB        28.9490   -2.7690   -9.2720 C.3     2  SER2        0.2129
     13  OG        27.9770   -1.7570   -9.4860 O.3     2  SER2       -0.2179
     14  N         28.5670   -1.6940   -6.2770 N.am    3  PRO3       -0.2726
     15  CA        27.7950   -1.0150   -5.2220 C.3     3  PRO3        0.1402
     16  C         26.7030   -0.1220   -5.8010 C.2     3  PRO3        0.2269
     17  O         26.8500    0.2950   -6.9550 O.2     3  PRO3       -0.2865
     18  CB        28.8520   -0.2210   -4.4550 C.3     3  PRO3        0.0296
     19  CG        29.9900   -0.0550   -5.3970 C.3     3  PRO3        0.0237
     20  CD        29.8470   -0.9990   -6.5440 C.3     3  PRO3        0.0939
     21  N         24.2100   -7.2920   -3.9930 N.3    68  TRP68      -0.1227
     22  CA        25.4230   -6.6310   -3.5130 C.3    68  TRP68       0.1737
     23  C         25.3030   -6.4280   -2.0230 C.2    68  TRP68       0.2595
     24  O         24.3440   -5.8070   -1.5380 O.2    68  TRP68      -0.2718
     25  CB        25.6810   -5.2760   -4.1850 C.3    68  TRP68       0.0564
     26  CG        26.8730   -4.5690   -3.6030 C.ar   68  TRP68       0.0003
     27  CD1       28.1750   -4.7470   -3.9530 C.ar   68  TRP68       0.0946
     28  CD2       26.8790   -3.6370   -2.5070 C.ar   68  TRP68       0.0152
     29  NE1       28.9890   -3.9670   -3.1680 N.ar   68  TRP68      -0.2442
     30  CE2       28.2200   -3.2650   -2.2810 C.ar   68  TRP68       0.0810
     31  CE3       25.8760   -3.0770   -1.6930 C.ar   68  TRP68       0.0012
     32  CZ2       28.5850   -2.3380   -1.3100 C.ar   68  TRP68       0.0191
     33  CZ3       26.2400   -2.1610   -0.7240 C.ar   68  TRP68       0.0001
     34  CH2       27.5810   -1.7990   -0.5440 C.ar   68  TRP68       0.0015
     35  N         26.3260   -6.9120   -1.3110 N.am   69  ILE69      -0.1980
     36  CA        26.4450   -6.8410    0.1340 C.3    69  ILE69       0.1595
     37  C         27.8120   -6.2510    0.4800 C.2    69  ILE69       0.2287
     38  O         28.8180   -6.6740   -0.0990 O.2    69  ILE69      -0.2864
     39  CB        26.1740   -8.2400    0.7310 C.3    69  ILE69       0.0276
     40  CG1       24.6600   -8.5390    0.6830 C.3    69  ILE69       0.0022
     41  CG2       26.6940   -8.3510    2.1650 C.3    69  ILE69       0.0022
     42  CD1       24.3600   -9.8610    0.3550 C.3    69  ILE69       0.0001
     43  N         31.3830   -5.5590    2.0100 N.3    71  GLU71      -0.1196
     44  CA        32.4250   -6.3820    2.6140 C.3    71  GLU71       0.1783
     45  C         32.8480   -5.7740    3.9660 C.2    71  GLU71       0.2306
     46  O         33.8570   -5.0600    4.0280 O.2    71  GLU71      -0.2863
     47  CB        33.6460   -6.4840    1.6710 C.2    71  GLU71       0.0071
     48  CG        33.4450   -7.3600    0.4420 C.2    71  GLU71       0.0834
     49  CD        34.6780   -7.6220   -0.4110 C.2    71  GLU71       0.3877
     50  OE1       35.5980   -6.7700   -0.4290 O.co2  71  GLU71      -0.2406
     51  OE2       34.7110   -8.6790   -1.0820 O.co2  71  GLU71      -0.2406
     52  N         36.1510   -1.0320    3.5140 N.3   129  ARG129     -0.1231
     53  CA        37.0610   -0.3980    2.5620 C.3   129  ARG129      0.1694
     54  C         36.2120    0.0780    1.3760 C.2   129  ARG129      0.2593
     55  O         35.3330   -0.6570    0.9220 O.2   129  ARG129     -0.2718
     56  CB        38.1570   -1.3690    2.1040 C.3   129  ARG129      0.0321
     57  CG        39.2350   -0.6740    1.3000 C.3   129  ARG129      0.0489
     58  CD        40.4070   -1.5670    1.0140 C.3   129  ARG129      0.2205
     59  NE        41.4120   -0.8890    0.1950 N.pl3 129  ARG129     -0.0865
     60  CZ        42.4190   -0.1790    0.6880 C.cat 129  ARG129      0.5346
     61  NH1       42.5510   -0.0260    1.9990 N.pl3 129  ARG129      0.1354
     62  NH2       43.2980    0.3880   -0.1240 N.pl3 129  ARG129      0.1354
     63  N         36.4440    1.3030    0.9030 N.am  130  SER130     -0.1938
     64  CA        35.6940    1.8730   -0.2180 C.3   130  SER130      0.2055
     65  C         36.1910    1.3930   -1.5900 C.2   130  SER130      0.2643
     66  O         37.3360    0.9500   -1.7210 O.2   130  SER130     -0.2714
     67  CB        35.7070    3.3950   -0.1460 C.3   130  SER130      0.2130
     68  OG        35.0180    3.8280    1.0130 O.3   130  SER130     -0.2179
     69  N         35.3060    1.4780   -2.6070 N.am  131  CYS131     -0.1967
     70  CA        35.5710    1.0870   -3.9970 C.3   131  CYS131      0.1712
     71  C         36.1880    2.2240   -4.7850 C.2   131  CYS131      0.2296
     72  O         36.1110    3.3860   -4.3620 O.2   131  CYS131     -0.2864
     73  CB        34.2850    0.6110   -4.6670 C.3   131  CYS131      0.0983
     74  SG        33.5130   -0.8150   -3.8680 S.3   131  CYS131     -0.0798
     75  N         42.8060    4.4900   -0.1490 N.3   175  ARG175     -0.1245
     76  CA        41.3610    4.2160   -0.1680 C.3   175  ARG175      0.1563
     77  C         40.7450    4.5230    1.1990 C.2   175  ARG175      0.2260
     78  O         41.3800    4.3430    2.2430 O.2   175  ARG175     -0.2867
     79  CB        41.0180    2.7890   -0.6030 C.3   175  ARG175      0.0307
     80  CG        41.2700    2.4850   -2.0690 C.3   175  ARG175      0.0489
     81  CD        40.0290    2.6240   -2.9220 C.3   175  ARG175      0.2205
     82  NE        40.2330    2.0930   -4.2730 N.pl3 175  ARG175     -0.0865
     83  CZ        39.9760    0.8390   -4.6430 C.cat 175  ARG175      0.5346
     84  NH1       39.5050   -0.0390   -3.7610 N.pl3 175  ARG175      0.1354
     85  NH2       40.1900    0.4520   -5.8940 N.pl3 175  ARG175      0.1354
@<TRIPOS>BOND
     1     1     2    1
     2    13    12    1
     3    12     9    1
     4     2     3    1
     5     2     5    1
     6     4     3    2
     7     3     8   am
     8     8     9    1
     9     9    10    1
    10     7     5    1
    11     5     6    1
    12    17    16    2
    13    10    11    2
    14    10    14   am
    15    20    14    1
    16    20    19    1
    17    14    15    1
    18    85    83    1
    19    16    15    1
    20    19    18    1
    21    15    18    1
    22    71    72    2
    23    71    70    1
    24    73    70    1
    25    73    74    1
    26    83    82    2
    27    83    84    1
    28    82    81    1
    29    25    26    1
    30    25    22    1
    31    70    69    1
    32    21    22    1
    33    27    26   ar
    34    27    29   ar
    35    26    28   ar
    36    22    23    1
    37    29    30   ar
    38    81    80    1
    39    69    65   am
    40    28    30   ar
    41    28    31   ar
    42    30    32   ar
    43    80    79    1
    44    23    24    2
    45    23    35   am
    46    66    65    2
    47    31    33   ar
    48    65    64    1
    49    35    36    1
    50    32    34   ar
    51    51    49   ar
    52    33    34   ar
    53    79    76    1
    54    50    49   ar
    55    49    48    1
    56    64    67    1
    57    64    63    1
    58    76    75    1
    59    76    77    1
    60    67    68    1
    61    62    60    1
    62    38    37    2
    63    36    37    1
    64    36    39    1
    65    59    60    2
    66    59    58    1
    67    42    40    1
    68    48    47    2
    69    40    39    1
    70    60    61    1
    71    39    41    1
    72    63    54   am
    73    55    54    2
    74    58    57    1
    75    77    78    2
    76    57    56    1
    77    54    53    1
    78    47    44    1
    79    43    44    1
    80    56    53    1
    81    53    52    1
    82    44    45    1
    83    45    46    2
