@<TRIPOS>MOLECULE
tmp/5iuxB03.pdb
 122 113 0 0 0
SMALL
GASTEIGER

@<TRIPOS>ATOM
      1  N         39.1440  -20.8710   56.7050 N.3   257  MET257     -0.1245
      2  CA        38.9900  -20.9550   58.1480 C.3   257  MET257      0.1570
      3  C         40.1780  -21.6740   58.7940 C.2   257  MET257      0.2261
      4  O         40.6680  -21.2300   59.8430 O.2   257  MET257     -0.2867
      5  CB        37.6620  -21.6320   58.4580 C.3   257  MET257      0.0387
      6  CG        37.3720  -21.7780   59.9160 C.3   257  MET257      0.0595
      7  SD        36.2360  -23.1530   60.1210 S.3   257  MET257     -0.1393
      8  CE        37.2620  -24.5540   59.4720 C.3   257  MET257      0.0692
      9  N         43.0330  -19.5320   59.7180 N.3   260  LEU260     -0.1231
     10  CA        42.8670  -18.7870   60.9670 C.3   260  LEU260      0.1693
     11  C         43.3400  -19.6350   62.1390 C.2   260  LEU260      0.2592
     12  O         44.0020  -19.1050   63.0300 O.2   260  LEU260     -0.2718
     13  CB        41.4360  -18.2780   61.1690 C.3   260  LEU260      0.0284
     14  CG        40.8180  -17.4960   60.0190 C.3   260  LEU260      0.0019
     15  CD1       39.3380  -17.3350   60.2230 C.3   260  LEU260      0.0001
     16  CD2       41.4630  -16.1600   59.8680 C.3   260  LEU260      0.0001
     17  N         43.1090  -20.9720   62.0670 N.am  261  PHE261     -0.1976
     18  CA        43.5900  -21.9520   63.0390 C.3   261  PHE261      0.1639
     19  C         45.1090  -22.0060   63.0750 C.2   261  PHE261      0.2290
     20  O         45.6680  -22.0590   64.1600 O.2   261  PHE261     -0.2864
     21  CB        42.9980  -23.3420   62.7680 C.3   261  PHE261      0.0560
     22  CG        41.5990  -23.5020   63.3050 C.ar  261  PHE261     -0.0200
     23  CD1       41.3790  -24.0470   64.5650 C.ar  261  PHE261     -0.0042
     24  CD2       40.5020  -23.0830   62.5650 C.ar  261  PHE261     -0.0042
     25  CE1       40.0800  -24.1810   65.0710 C.ar  261  PHE261     -0.0003
     26  CE2       39.2070  -23.2040   63.0780 C.ar  261  PHE261     -0.0003
     27  CZ        39.0050  -23.7580   64.3240 C.ar  261  PHE261     -0.0000
     28  N         46.2800  -18.6840   64.8450 N.3   264  VAL264     -0.1245
     29  CA        46.0800  -18.7580   66.2920 C.3   264  VAL264      0.1561
     30  C         47.0820  -19.7420   66.9390 C.2   264  VAL264      0.2260
     31  O         47.6510  -19.4200   67.9850 O.2   264  VAL264     -0.2867
     32  CB        44.6170  -19.0370   66.7190 C.3   264  VAL264      0.0252
     33  CG1       44.4860  -18.9570   68.2370 C.3   264  VAL264      0.0019
     34  CG2       43.6550  -18.0590   66.0630 C.3   264  VAL264      0.0019
     35  N         50.3110  -18.0190   67.2990 N.3   267  ILE267     -0.1231
     36  CA        50.1900  -17.1060   68.4240 C.3   267  ILE267      0.1692
     37  C         50.4430  -17.8700   69.7080 C.2   267  ILE267      0.2591
     38  O         51.3750  -17.5010   70.4090 O.2   267  ILE267     -0.2718
     39  CB        48.8760  -16.2820   68.4240 C.3   267  ILE267      0.0266
     40  CG1       48.7440  -15.3700   67.1760 C.3   267  ILE267      0.0019
     41  CG2       48.7090  -15.4780   69.7160 C.3   267  ILE267      0.0020
     42  CD1       50.0160  -14.5520   66.7470 C.3   267  ILE267      0.0001
     43  N         49.7050  -18.9870   69.9620 N.am  268  GLU268     -0.1979
     44  CA        49.8930  -19.8110   71.1590 C.3   268  GLU268      0.1602
     45  C         51.3410  -20.3000   71.3140 C.2   268  GLU268      0.2287
     46  O         51.9020  -20.1870   72.3950 O.2   268  GLU268     -0.2864
     47  CB        48.8790  -20.9640   71.2170 C.3   268  GLU268      0.0415
     48  CG        48.9030  -21.7490   72.5270 C.3   268  GLU268      0.1163
     49  CD        50.0020  -22.7860   72.6920 C.2   268  GLU268      0.3649
     50  OE1       50.6420  -23.1690   71.6850 O.co2 268  GLU268     -0.2457
     51  OE2       50.2350  -23.2060   73.8460 O.co2 268  GLU268     -0.2457
     52  N         53.3570  -17.3280   72.5000 N.3   271  VAL271     -0.1245
     53  CA        52.9360  -16.9530   73.8470 C.3   271  VAL271      0.1561
     54  C         53.5970  -17.9040   74.8470 C.2   271  VAL271      0.2260
     55  O         54.3430  -17.4450   75.7210 O.2   271  VAL271     -0.2867
     56  CB        51.3810  -16.9240   73.9500 C.3   271  VAL271      0.0252
     57  CG1       50.9150  -16.9420   75.4050 C.3   271  VAL271      0.0019
     58  CG2       50.7930  -15.7180   73.2150 C.3   271  VAL271      0.0019
     59  N         51.8720  -20.4140   83.7960 N.3   283  ARG283     -0.1245
     60  CA        50.8880  -19.6780   82.9830 C.3   283  ARG283      0.1563
     61  C         50.8070  -20.3060   81.6000 C.2   283  ARG283      0.2260
     62  O         49.7180  -20.6210   81.1140 O.2   283  ARG283     -0.2867
     63  CB        51.3050  -18.2080   82.8400 C.3   283  ARG283      0.0307
     64  CG        50.4300  -17.2540   83.6310 C.3   283  ARG283      0.0489
     65  CD        49.2700  -16.7320   82.8080 C.3   283  ARG283      0.2205
     66  NE        49.6210  -15.4750   82.1490 N.pl3 283  ARG283     -0.0865
     67  CZ        48.7670  -14.7270   81.4560 C.cat 283  ARG283      0.5346
     68  NH1       47.5020  -15.1040   81.3140 N.pl3 283  ARG283      0.1354
     69  NH2       49.1750  -13.5950   80.8960 N.pl3 283  ARG283      0.1354
     70  N         48.9780  -23.5100   81.4660 N.3   286  SER286     -0.1202
     71  CA        47.5320  -23.3450   81.5110 C.3   286  SER286      0.2020
     72  C         47.0020  -22.9810   80.1420 C.2   286  SER286      0.2618
     73  O         45.9360  -23.4650   79.7640 O.2   286  SER286     -0.2717
     74  CB        47.1390  -22.2950   82.5390 C.3   286  SER286      0.2103
     75  OG        47.6370  -22.6510   83.8170 O.3   286  SER286     -0.2182
     76  N         47.7450  -22.1540   79.3840 N.am  287  ILE287     -0.1979
     77  CA        47.3360  -21.7710   78.0250 C.3   287  ILE287      0.1595
     78  C         47.4300  -22.9950   77.0950 C.2   287  ILE287      0.2287
     79  O         46.4730  -23.2760   76.3740 O.2   287  ILE287     -0.2864
     80  CB        48.1070  -20.5190   77.5090 C.3   287  ILE287      0.0276
     81  CG1       47.8160  -19.3000   78.4260 C.3   287  ILE287      0.0022
     82  CG2       47.7460  -20.2120   76.0430 C.3   287  ILE287      0.0022
     83  CD1       48.6250  -18.0730   78.2250 C.3   287  ILE287      0.0001
     84  N         44.6520  -25.7430   77.8420 N.3   290  ALA290     -0.1231
     85  CA        43.3420  -25.2810   77.3750 C.3   290  ALA290      0.1694
     86  C         43.2680  -25.5050   75.8630 C.2   290  ALA290      0.2592
     87  O         42.3090  -26.1250   75.3720 O.2   290  ALA290     -0.2718
     88  CB        43.1590  -23.8020   77.7000 C.3   290  ALA290      0.0304
     89  N         44.3350  -25.0500   75.1460 N.am  291  SER291     -0.1952
     90  CA        44.5300  -25.1630   73.7090 C.3   291  SER291      0.1924
     91  C         44.2460  -26.5800   73.2000 C.2   291  SER291      0.2314
     92  O         43.5490  -26.7230   72.1950 O.2   291  SER291     -0.2863
     93  CB        45.9410  -24.7210   73.3420 C.3   291  SER291      0.2116
     94  OG        46.0580  -23.3150   73.5070 O.3   291  SER291     -0.2180
     95  N         40.3550  -26.6140   73.3490 N.3   294  ALA294     -0.1231
     96  CA        39.8080  -25.4890   72.6050 C.3   294  ALA294      0.1694
     97  C         39.9780  -25.6010   71.0990 C.2   294  ALA294      0.2592
     98  O         38.9870  -25.4370   70.3860 O.2   294  ALA294     -0.2718
     99  CB        40.3980  -24.1870   73.1090 C.3   294  ALA294      0.0304
    100  N         41.2030  -25.9130   70.6120 N.am  295  PHE295     -0.1976
    101  CA        41.4500  -26.0310   69.1830 C.3   295  PHE295      0.1639
    102  C         40.5640  -27.1130   68.5280 C.2   295  PHE295      0.2290
    103  O         39.7810  -26.7310   67.6520 O.2   295  PHE295     -0.2864
    104  CB        42.9360  -26.1960   68.8700 C.3   295  PHE295      0.0560
    105  CG        43.6790  -24.8850   68.7750 C.ar  295  PHE295     -0.0200
    106  CD1       44.0080  -24.3420   67.5370 C.ar  295  PHE295     -0.0042
    107  CD2       44.0800  -24.2070   69.9220 C.ar  295  PHE295     -0.0042
    108  CE1       44.7190  -23.1350   67.4440 C.ar  295  PHE295     -0.0003
    109  CE2       44.7810  -22.9920   69.8320 C.ar  295  PHE295     -0.0003
    110  CZ        45.1030  -22.4690   68.5910 C.ar  295  PHE295     -0.0000
    111  N         36.6420  -25.8290   68.9430 N.3   298  VAL298     -0.1245
    112  CA        36.3220  -24.6960   68.0660 C.3   298  VAL298      0.1561
    113  C         36.3130  -25.1850   66.6070 C.2   298  VAL298      0.2260
    114  O         35.4030  -24.8280   65.8650 O.2   298  VAL298     -0.2867
    115  CB        37.1660  -23.4030   68.3030 C.3   298  VAL298      0.0252
    116  CG1       36.7210  -22.2610   67.3770 C.3   298  VAL298      0.0019
    117  CG2       37.0980  -22.9490   69.7630 C.3   298  VAL298      0.0019
    118  N         32.9200  -25.0430   64.4300 N.3   302  ALA302     -0.1245
    119  CA        33.0510  -24.1480   63.2740 C.3   302  ALA302      0.1562
    120  C         32.5860  -24.8590   62.0140 C.2   302  ALA302      0.2260
    121  O         31.8060  -24.2940   61.2460 O.2   302  ALA302     -0.2867
    122  CB        34.4890  -23.6810   63.1250 C.3   302  ALA302      0.0290
@<TRIPOS>BOND
     1     1     2    1
     2     2     5    1
     3     2     3    1
     4     5     6    1
     5     3     4    2
     6     8     7    1
     7     9    10    1
     8    16    14    1
     9     6     7    1
    10    14    15    1
    11    14    13    1
    12    10    13    1
    13    10    11    1
    14   121   120    2
    15   120   119    1
    16    17    11   am
    17    17    18    1
    18    11    12    2
    19    24    26   ar
    20    24    22   ar
    21    21    18    1
    22    21    22    1
    23    18    19    1
    24    19    20    2
    25    26    27   ar
    26   122   119    1
    27   119   118    1
    28    22    23   ar
    29    27    25   ar
    30    23    25   ar
    31    28    29    1
    32   114   113    2
    33    34    32    1
    34    29    32    1
    35    29    30    1
    36   113   112    1
    37    32    33    1
    38    42    40    1
    39    30    31    2
    40    40    39    1
    41    35    36    1
    42   116   115    1
    43   108   106   ar
    44   108   110   ar
    45   106   105   ar
    46   103   102    2
    47   112   115    1
    48   112   111    1
    49   115   117    1
    50    36    39    1
    51    36    37    1
    52    39    41    1
    53   102   101    1
    54   110   109   ar
    55   105   104    1
    56   105   107   ar
    57   104   101    1
    58   101   100    1
    59    37    43   am
    60    37    38    2
    61   109   107   ar
    62    43    44    1
    63    98    97    2
    64   100    97   am
    65    97    96    1
    66    44    47    1
    67    44    45    1
    68    47    48    1
    69    45    46    2
    70    50    49   ar
    71    92    91    2
    72    52    53    1
    73    48    49    1
    74    96    99    1
    75    96    95    1
    76    49    51   ar
    77    91    90    1
    78    58    56    1
    79    93    94    1
    80    93    90    1
    81    90    89    1
    82    53    56    1
    83    53    54    1
    84    56    57    1
    85    54    55    2
    86    89    86   am
    87    87    86    2
    88    86    85    1
    89    82    80    1
    90    79    78    2
    91    78    77    1
    92    85    88    1
    93    85    84    1
    94    80    77    1
    95    80    81    1
    96    77    76    1
    97    83    81    1
    98    76    72   am
    99    73    72    2
   100    72    71    1
   101    69    67    1
   102    62    61    2
   103    68    67    1
   104    67    66    2
   105    70    71    1
   106    71    74    1
   107    61    60    1
   108    66    65    1
   109    74    75    1
   110    65    64    1
   111    63    60    1
   112    63    64    1
   113    60    59    1
