@<TRIPOS>MOLECULE
tmp/5iv0A01.pdb
 163 161 0 0 0
SMALL
GASTEIGER

@<TRIPOS>ATOM
      1  N         17.0700  -22.5420   26.9260 N.3    11  TRP11      -0.1241
      2  CA        16.9030  -21.1940   27.4730 C.3    11  TRP11       0.1605
      3  C         15.4650  -20.7680   27.7780 C.2    11  TRP11       0.2264
      4  O         15.2360  -20.1740   28.8300 O.2    11  TRP11      -0.2867
      5  CB        17.6780  -20.1530   26.6470 C.3    11  TRP11       0.0550
      6  CG        19.1550  -20.2080   26.9880 C.ar   11  TRP11       0.0003
      7  CD1       20.1200  -20.9420   26.3500 C.ar   11  TRP11       0.0946
      8  CD2       19.8100  -19.5650   28.0930 C.ar   11  TRP11       0.0152
      9  NE1       21.3350  -20.7710   26.9720 N.ar   11  TRP11      -0.2442
     10  CE2       21.1750  -19.9310   28.0430 C.ar   11  TRP11       0.0810
     11  CE3       19.3820  -18.7040   29.1070 C.ar   11  TRP11       0.0012
     12  CZ2       22.1130  -19.4660   28.9700 C.ar   11  TRP11       0.0191
     13  CZ3       20.3160  -18.2390   30.0300 C.ar   11  TRP11       0.0001
     14  CH2       21.6670  -18.6190   29.9510 C.ar   11  TRP11       0.0015
     15  N         12.5520  -15.6490   40.6730 N.3    22  PHE22      -0.1227
     16  CA        13.0390  -14.2980   40.9620 C.3    22  PHE22       0.1736
     17  C         11.9290  -13.2950   40.7050 C.2    22  PHE22       0.2596
     18  O         11.5210  -13.1050   39.5620 O.2    22  PHE22      -0.2718
     19  CB        14.2330  -13.9370   40.0600 C.3    22  PHE22       0.0547
     20  CG        15.2810  -15.0190   39.9380 C.ar   22  PHE22      -0.0202
     21  CD1       15.8110  -15.3420   38.6960 C.ar   22  PHE22      -0.0042
     22  CD2       15.7540  -15.6930   41.0590 C.ar   22  PHE22      -0.0042
     23  CE1       16.7850  -16.3150   38.5720 C.ar   22  PHE22      -0.0003
     24  CE2       16.7230  -16.6700   40.9420 C.ar   22  PHE22      -0.0003
     25  CZ        17.2410  -16.9820   39.6980 C.ar   22  PHE22      -0.0000
     26  N         11.4480  -12.6400   41.7560 N.am   23  THR23      -0.1939
     27  CA        10.3420  -11.6940   41.6110 C.3    23  THR23       0.2028
     28  C         10.7880  -10.4360   40.8800 C.2    23  THR23       0.2642
     29  O          9.9660   -9.7580   40.2770 O.2    23  THR23      -0.2714
     30  CB         9.6980  -11.3320   42.9650 C.3    23  THR23       0.1808
     31  OG1       10.6910  -10.8190   43.8460 O.3    23  THR23      -0.2208
     32  CG2        9.0990  -12.5540   43.6060 C.3    23  THR23       0.0379
     33  N         12.0900  -10.1470   40.9030 N.am   24  ASP24      -0.1957
     34  CA        12.6500   -9.0350   40.1310 C.3    24  ASP24       0.1840
     35  C         13.2360   -9.4720   38.7760 C.2    24  ASP24       0.2622
     36  O         14.0570   -8.7630   38.1990 O.2    24  ASP24      -0.2715
     37  CB        13.7140   -8.2960   40.9590 C.3    24  ASP24       0.1450
     38  CG        14.9230   -9.1670   41.2910 C.2    24  ASP24       0.3671
     39  OD1       14.9260  -10.3810   40.9860 O.co2  24  ASP24      -0.2456
     40  OD2       15.8770   -8.6310   41.8810 O.co2  24  ASP24      -0.2456
     41  N         12.8170  -10.6280   38.2680 N.am   25  PHE25      -0.1960
     42  CA        13.3400  -11.1470   37.0060 C.3    25  PHE25       0.1771
     43  C         13.2630  -10.0660   35.9260 C.2    25  PHE25       0.2619
     44  O         12.1980   -9.5200   35.6740 O.2    25  PHE25      -0.2715
     45  CB        12.5640  -12.3980   36.5820 C.3    25  PHE25       0.0574
     46  CG        12.9910  -12.9700   35.2560 C.ar   25  PHE25      -0.0200
     47  CD1       14.3340  -13.2240   34.9880 C.ar   25  PHE25      -0.0042
     48  CD2       12.0520  -13.2790   34.2830 C.ar   25  PHE25      -0.0042
     49  CE1       14.7270  -13.7510   33.7670 C.ar   25  PHE25      -0.0003
     50  CE2       12.4370  -13.8190   33.0690 C.ar   25  PHE25      -0.0003
     51  CZ        13.7760  -14.0540   32.8070 C.ar   25  PHE25      -0.0000
     52  N         14.4040   -9.7560   35.3090 N.am   26  ILE26      -0.1977
     53  CA        14.4830   -8.6970   34.2840 C.3    26  ILE26       0.1596
     54  C         13.7660   -9.0380   32.9690 C.2    26  ILE26       0.2287
     55  O         13.5930   -8.1740   32.1110 O.2    26  ILE26      -0.2864
     56  CB        15.9520   -8.2690   33.9860 C.3    26  ILE26       0.0276
     57  CG1       16.7830   -9.4410   33.4350 C.3    26  ILE26       0.0022
     58  CG2       16.5820   -7.6730   35.2370 C.3    26  ILE26       0.0022
     59  CD1       18.2250   -9.0990   33.1210 C.3    26  ILE26       0.0001
     60  N         17.3270  -10.6440   29.7530 N.3    31  ALA31      -0.1245
     61  CA        18.1190  -11.8040   30.1440 C.3    31  ALA31       0.1562
     62  C         18.9180  -12.3180   28.9540 C.2    31  ALA31       0.2260
     63  O         20.0660  -12.7350   29.1040 O.2    31  ALA31      -0.2867
     64  CB        17.2290  -12.9030   30.6990 C.3    31  ALA31       0.0290
     65  N         21.9080  -10.1420   28.6710 N.3    34  TRP34      -0.1227
     66  CA        22.9110  -10.4640   29.7010 C.3    34  TRP34       0.1737
     67  C         23.6630  -11.7620   29.4120 C.2    34  TRP34       0.2595
     68  O         24.7250  -11.9890   29.9860 O.2    34  TRP34      -0.2718
     69  CB        22.2860  -10.5730   31.0930 C.3    34  TRP34       0.0564
     70  CG        21.8830   -9.2800   31.6970 C.ar   34  TRP34       0.0003
     71  CD1       21.2210   -8.2580   31.0820 C.ar   34  TRP34       0.0946
     72  CD2       22.0760   -8.8700   33.0560 C.ar   34  TRP34       0.0152
     73  NE1       21.0070   -7.2400   31.9640 N.ar   34  TRP34      -0.2442
     74  CE2       21.5170   -7.5890   33.1850 C.ar   34  TRP34       0.0810
     75  CE3       22.6760   -9.4600   34.1720 C.ar   34  TRP34       0.0012
     76  CZ2       21.5280   -6.8870   34.3870 C.ar   34  TRP34       0.0191
     77  CZ3       22.6990   -8.7570   35.3640 C.ar   34  TRP34       0.0001
     78  CH2       22.1270   -7.4860   35.4640 C.ar   34  TRP34       0.0015
     79  N         23.1180  -12.6180   28.5460 N.am   35  ARG35      -0.1980
     80  CA        23.8270  -13.8260   28.1370 C.3    35  ARG35       0.1597
     81  C         25.1630  -13.4980   27.4840 C.2    35  ARG35       0.2287
     82  O         26.0780  -14.3120   27.5300 O.2    35  ARG35      -0.2864
     83  CB        22.9930  -14.6870   27.1870 C.3    35  ARG35       0.0334
     84  CG        21.8530  -15.4500   27.8520 C.3    35  ARG35       0.0492
     85  CD        21.0580  -16.2430   26.8220 C.3    35  ARG35       0.2205
     86  NE        21.8960  -17.2200   26.1270 N.pl3  35  ARG35      -0.0865
     87  CZ        21.5590  -17.8610   25.0110 C.cat  35  ARG35       0.5346
     88  NH1       20.3880  -17.6520   24.4260 N.pl3  35  ARG35       0.1354
     89  NH2       22.4020  -18.7320   24.4790 N.pl3  35  ARG35       0.1354
     90  N         28.0450  -14.0530   29.7570 N.3    38  VAL38      -0.1245
     91  CA        28.2780  -15.4110   30.2090 C.3    38  VAL38       0.1561
     92  C         29.2180  -16.0870   29.2220 C.2    38  VAL38       0.2260
     93  O         28.8960  -16.2020   28.0470 O.2    38  VAL38      -0.2867
     94  CB        26.9630  -16.2090   30.2730 C.3    38  VAL38       0.0252
     95  CG1       27.2120  -17.6210   30.7970 C.3    38  VAL38       0.0019
     96  CG2       25.9380  -15.4780   31.1370 C.3    38  VAL38       0.0019
     97  N         24.8830  -20.0910   36.6010 N.3    57  LEU57      -0.1245
     98  CA        25.9040  -19.6430   35.6670 C.3    57  LEU57       0.1561
     99  C         26.8410  -18.6560   36.3320 C.2    57  LEU57       0.2260
    100  O         26.5970  -18.2240   37.4640 O.2    57  LEU57      -0.2867
    101  CB        25.2540  -19.0230   34.4280 C.3    57  LEU57       0.0270
    102  CG        24.3440  -17.8080   34.6340 C.3    57  LEU57       0.0019
    103  CD1       25.1240  -16.5010   34.7540 C.3    57  LEU57       0.0001
    104  CD2       23.3530  -17.7100   33.4850 C.3    57  LEU57       0.0001
    105  N         29.2280  -15.0000   35.2000 N.3    59  MET59      -0.1245
    106  CA        29.5330  -13.9790   34.2160 C.3    59  MET59       0.1570
    107  C         30.9680  -13.5320   34.4110 C.2    59  MET59       0.2261
    108  O         31.5100  -13.6010   35.5250 O.2    59  MET59      -0.2867
    109  CB        28.6050  -12.7870   34.4010 C.3    59  MET59       0.0387
    110  CG        27.1420  -13.1140   34.1390 C.3    59  MET59       0.0595
    111  SD        26.0310  -11.7580   34.5720 S.3    59  MET59      -0.1393
    112  CE        26.2540  -11.7100   36.3460 C.3    59  MET59       0.0692
    113  N         25.4960  -16.1690   39.2550 N.3    77  SER77      -0.1202
    114  CA        24.1450  -15.6140   39.2360 C.3    77  SER77       0.2020
    115  C         23.1970  -16.5830   38.5590 C.2    77  SER77       0.2619
    116  O         23.6080  -17.6700   38.1590 O.2    77  SER77      -0.2717
    117  CB        24.1070  -14.2730   38.5040 C.3    77  SER77       0.2103
    118  OG        22.8480  -13.6420   38.7000 O.3    77  SER77      -0.2182
    119  N         21.9320  -16.1740   38.4320 N.am   78  PHE78      -0.1961
    120  CA        20.9090  -16.9490   37.7210 C.3    78  PHE78       0.1771
    121  C         20.7880  -18.3460   38.3230 C.2    78  PHE78       0.2619
    122  O         20.5830  -19.3240   37.6160 O.2    78  PHE78      -0.2715
    123  CB        21.2700  -17.0210   36.2280 C.3    78  PHE78       0.0574
    124  CG        20.0900  -16.9680   35.3020 C.ar   78  PHE78      -0.0200
    125  CD1       19.6920  -18.0890   34.5930 C.ar   78  PHE78      -0.0042
    126  CD2       19.3910  -15.7840   35.1160 C.ar   78  PHE78      -0.0042
    127  CE1       18.6080  -18.0310   33.7240 C.ar   78  PHE78      -0.0003
    128  CE2       18.3060  -15.7230   34.2560 C.ar   78  PHE78      -0.0003
    129  CZ        17.9160  -16.8500   33.5610 C.ar   78  PHE78      -0.0000
    130  N         20.9330  -18.4270   39.6400 N.am   79  VAL79      -0.1977
    131  CA        20.9450  -19.6880   40.3560 C.3    79  VAL79       0.1596
    132  C         19.5330  -19.9780   40.8360 C.2    79  VAL79       0.2287
    133  O         18.9460  -19.1830   41.5760 O.2    79  VAL79      -0.2864
    134  CB        21.8810  -19.6320   41.5790 C.3    79  VAL79       0.0276
    135  CG1       21.8330  -20.9370   42.3620 C.3    79  VAL79       0.0022
    136  CG2       23.3090  -19.3270   41.1470 C.3    79  VAL79       0.0022
    137  N         25.8630  -12.1440   44.8090 N.3   113  HIS113     -0.1241
    138  CA        24.9480  -11.4920   45.7460 C.3   113  HIS113      0.1621
    139  C         23.9900  -12.5670   46.2420 C.2   113  HIS113      0.2264
    140  O         23.4490  -13.3280   45.4440 O.2   113  HIS113     -0.2867
    141  CB        24.1950  -10.3560   45.0550 C.3   113  HIS113      0.0745
    142  CG        25.0420   -9.1480   44.8260 C.ar  113  HIS113      0.0817
    143  ND1       24.9610   -8.0230   45.6140 N.ar  113  HIS113     -0.2268
    144  CD2       26.0300   -8.9100   43.9340 C.ar  113  HIS113      0.1154
    145  CE1       25.8460   -7.1330   45.2050 C.ar  113  HIS113      0.1986
    146  NE2       26.5130   -7.6490   44.1890 N.ar  113  HIS113     -0.2212
    147  N         20.6930  -14.2660   47.9700 N.3   115  SER115     -0.1217
    148  CA        19.2530  -14.1400   48.2090 C.3   115  SER115      0.1889
    149  C         18.9120  -14.3490   49.6830 C.2   115  SER115      0.2288
    150  O         17.9870  -13.7380   50.2080 O.2   115  SER115     -0.2866
    151  CB        18.4990  -15.1810   47.3840 C.3   115  SER115      0.2089
    152  OG        18.8980  -16.4940   47.7530 O.3   115  SER115     -0.2183
    153  N         24.1430   -8.2560   40.7930 N.3   396  PHE396     -0.1241
    154  CA        24.1280   -9.0910   39.6090 C.3   396  PHE396      0.1605
    155  C         23.6830  -10.4930   39.9800 C.2   396  PHE396      0.2264
    156  O         23.3440  -11.2710   39.0870 O.2   396  PHE396     -0.2867
    157  CB        25.5070   -9.0990   38.9350 C.3   396  PHE396      0.0534
    158  CG        26.5990   -9.6760   39.7890 C.ar  396  PHE396     -0.0203
    159  CD1       26.7980  -11.0490   39.8490 C.ar  396  PHE396     -0.0042
    160  CD2       27.4280   -8.8490   40.5270 C.ar  396  PHE396     -0.0042
    161  CE1       27.7960  -11.5820   40.6460 C.ar  396  PHE396     -0.0003
    162  CE2       28.4300   -9.3740   41.3140 C.ar  396  PHE396     -0.0003
    163  CZ        28.6170  -10.7430   41.3770 C.ar  396  PHE396     -0.0000
@<TRIPOS>BOND
     1    88    87    1
     2    89    87    1
     3    87    86    2
     4    86    85    1
     5     7     9   ar
     6     7     6   ar
     7     5     6    1
     8     5     2    1
     9    85    84    1
    10     1     2    1
    11     9    10   ar
    12     6     8   ar
    13    83    84    1
    14    83    80    1
    15     2     3    1
    16    81    82    2
    17    81    80    1
    18     3     4    2
    19    10     8   ar
    20    10    12   ar
    21    93    92    2
    22     8    11   ar
    23    80    79    1
    24    79    67   am
    25    65    66    1
    26    62    63    2
    27    62    61    1
    28    12    14   ar
    29    11    13   ar
    30    92    91    1
    31    67    66    1
    32    67    68    2
    33    66    69    1
    34    60    61    1
    35    90    91    1
    36    14    13   ar
    37    61    64    1
    38    91    94    1
    39    94    95    1
    40    94    96    1
    41    71    70   ar
    42    71    73   ar
    43    69    70    1
    44    70    72   ar
    45    73    74   ar
    46    55    54    2
    47    51    50   ar
    48    51    49   ar
    49    54    53    1
    50    72    74   ar
    51    72    75   ar
    52    50    48   ar
    53    59    57    1
    54    74    76   ar
    55    57    56    1
    56   104   102    1
    57   129   127   ar
    58   129   128   ar
    59   127   125   ar
    60    49    47   ar
    61    56    53    1
    62    56    58    1
    63   110   109    1
    64   110   111    1
    65    75    77   ar
    66   106   109    1
    67   106   107    1
    68   106   105    1
    69   128   126   ar
    70    48    46   ar
    71    53    52    1
    72    76    78   ar
    73   107   108    2
    74   101   102    1
    75   101    98    1
    76   111   112    1
    77   125   124   ar
    78   102   103    1
    79    47    46   ar
    80   126   124   ar
    81    46    45    1
    82   124   123    1
    83    52    43   am
    84    77    78   ar
    85    98    99    1
    86    98    97    1
    87    44    43    2
    88    43    42    1
    89   123   120    1
    90    99   100    2
    91    45    42    1
    92    42    41    1
    93   122   121    2
    94   120   121    1
    95   120   119    1
    96   116   115    2
    97    36    35    2
    98    41    35   am
    99   121   130   am
   100   119   115   am
   101   117   118    1
   102   117   114    1
   103   115   114    1
   104    23    21   ar
   105    23    25   ar
   106    21    20   ar
   107    35    34    1
   108   157   154    1
   109   157   158    1
   110   156   155    2
   111   114   113    1
   112    18    17    2
   113   154   155    1
   114   154   153    1
   115   130   131    1
   116    25    24   ar
   117   158   159   ar
   118   158   160   ar
   119   159   161   ar
   120    20    19    1
   121    20    22   ar
   122    19    16    1
   123    34    33    1
   124    34    37    1
   125    29    28    2
   126   131   132    1
   127   131   134    1
   128   160   162   ar
   129   161   163   ar
   130    15    16    1
   131    17    16    1
   132    17    26   am
   133   132   133    2
   134    28    33   am
   135    28    27    1
   136    24    22   ar
   137    37    38    1
   138    39    38   ar
   139   136   134    1
   140    38    40   ar
   141   162   163   ar
   142   134   135    1
   143    27    26    1
   144    27    30    1
   145    30    32    1
   146    30    31    1
   147   144   146   ar
   148   144   142   ar
   149   146   145   ar
   150   137   138    1
   151   142   141    1
   152   142   143   ar
   153   141   138    1
   154   145   143   ar
   155   140   139    2
   156   138   139    1
   157   151   152    1
   158   151   148    1
   159   147   148    1
   160   148   149    1
   161   149   150    2
