@<TRIPOS>MOLECULE
tmp/5iv0A00.pdb
 150 148 0 0 0
SMALL
GASTEIGER

@<TRIPOS>ATOM
      1  N         20.9330  -18.4270   39.6400 N.3    79  VAL79      -0.1231
      2  CA        20.9450  -19.6880   40.3560 C.3    79  VAL79       0.1692
      3  C         19.5330  -19.9780   40.8360 C.2    79  VAL79       0.2592
      4  O         18.9460  -19.1830   41.5760 O.2    79  VAL79      -0.2718
      5  CB        21.8810  -19.6320   41.5790 C.3    79  VAL79       0.0266
      6  CG1       21.8330  -20.9370   42.3620 C.3    79  VAL79       0.0020
      7  CG2       23.3090  -19.3270   41.1470 C.3    79  VAL79       0.0020
      8  N         18.9960  -21.1210   40.4170 N.am   80  ALA80      -0.1966
      9  CA        17.6510  -21.5200   40.8060 C.3    80  ALA80       0.1728
     10  C         17.4780  -23.0300   40.7650 C.2    80  ALA80       0.2616
     11  O         18.0020  -23.7120   39.8770 O.2    80  ALA80      -0.2715
     12  CB        16.6210  -20.8520   39.9060 C.3    80  ALA80       0.0334
     13  N         16.7380  -23.5360   41.7430 N.am   81  VAL81      -0.1977
     14  CA        16.2770  -24.9160   41.7510 C.3    81  VAL81       0.1596
     15  C         14.7540  -24.8780   41.7800 C.2    81  VAL81       0.2287
     16  O         14.1640  -24.1140   42.5450 O.2    81  VAL81      -0.2864
     17  CB        16.8360  -25.6820   42.9640 C.3    81  VAL81       0.0276
     18  CG1       16.2390  -27.0760   43.0550 C.3    81  VAL81       0.0022
     19  CG2       18.3510  -25.7650   42.8750 C.3    81  VAL81       0.0022
     20  N         11.8420  -29.7550   43.0940 N.3    85  HIS85      -0.1226
     21  CA        13.0600  -30.5620   43.2060 C.3    85  HIS85       0.1752
     22  C         13.9910  -30.1350   44.3320 C.2    85  HIS85       0.2596
     23  O         15.1950  -30.3560   44.2510 O.2    85  HIS85      -0.2718
     24  CB        13.8120  -30.5370   41.8770 C.3    85  HIS85       0.0759
     25  CG        13.1150  -31.2850   40.7940 C.ar   85  HIS85       0.0818
     26  ND1       13.5190  -32.5320   40.3720 N.ar   85  HIS85      -0.2268
     27  CD2       12.0210  -30.9790   40.0660 C.ar   85  HIS85       0.1154
     28  CE1       12.7090  -32.9550   39.4200 C.ar   85  HIS85       0.1986
     29  NE2       11.7890  -32.0310   39.2180 N.ar   85  HIS85      -0.2212
     30  N         13.4320  -29.5650   45.3930 N.am   86  ARG86      -0.1966
     31  CA        14.2140  -29.1900   46.5640 C.3    86  ARG86       0.1729
     32  C         14.7950  -30.4090   47.2810 C.2    86  ARG86       0.2616
     33  O         14.3130  -31.5260   47.1120 O.2    86  ARG86      -0.2715
     34  CB        13.3590  -28.4080   47.5640 C.3    86  ARG86       0.0348
     35  CG        12.7440  -27.1230   47.0360 C.3    86  ARG86       0.0492
     36  CD        13.7730  -26.0310   46.7770 C.3    86  ARG86       0.2205
     37  NE        13.1000  -24.8070   46.3340 N.pl3  86  ARG86      -0.0865
     38  CZ        13.6840  -23.7700   45.7370 C.cat  86  ARG86       0.5346
     39  NH1       12.9470  -22.7240   45.3790 N.pl3  86  ARG86       0.1354
     40  NH2       14.9910  -23.7610   45.4860 N.pl3  86  ARG86       0.1354
     41  N         15.8300  -30.1580   48.0830 N.am   87  ARG87      -0.1963
     42  CA        16.4910  -31.1570   48.9400 C.3    87  ARG87       0.1729
     43  C         16.9770  -32.3940   48.1760 C.2    87  ARG87       0.2616
     44  O         16.9800  -33.5040   48.6910 O.2    87  ARG87      -0.2715
     45  CB        15.5780  -31.5630   50.1090 C.3    87  ARG87       0.0348
     46  CG        15.0860  -30.4090   50.9860 C.3    87  ARG87       0.0492
     47  CD        16.2110  -29.5270   51.5350 C.3    87  ARG87       0.2205
     48  NE        16.4540  -28.3330   50.7040 N.pl3  87  ARG87      -0.0865
     49  CZ        15.9130  -27.1210   50.8950 C.cat  87  ARG87       0.5346
     50  NH1       15.0800  -26.8770   51.9060 N.pl3  87  ARG87       0.1354
     51  NH2       16.2120  -26.1310   50.0590 N.pl3  87  ARG87       0.1354
     52  N         17.4120  -32.1800   46.9470 N.am   88  ARG88      -0.1963
     53  CA        17.8320  -33.2590   46.0750 C.3    88  ARG88       0.1729
     54  C         19.3160  -33.1430   45.7030 C.2    88  ARG88       0.2617
     55  O         19.7930  -33.8760   44.8420 O.2    88  ARG88      -0.2715
     56  CB        16.9780  -33.2200   44.8120 C.3    88  ARG88       0.0348
     57  CG        16.6690  -34.5800   44.2410 C.3    88  ARG88       0.0492
     58  CD        15.4690  -35.2070   44.9310 C.3    88  ARG88       0.2205
     59  NE        14.2040  -34.6100   44.5050 N.pl3  88  ARG88      -0.0865
     60  CZ        13.6340  -34.8010   43.3150 C.cat  88  ARG88       0.5346
     61  NH1       14.2200  -35.5620   42.3920 N.pl3  88  ARG88       0.1354
     62  NH2       12.4720  -34.2150   43.0380 N.pl3  88  ARG88       0.1354
     63  N         20.0350  -32.2220   46.3470 N.am   89  GLY89      -0.1940
     64  CA        21.4590  -32.0170   46.0930 C.3    89  GLY89       0.2014
     65  C         21.7930  -31.2750   44.8070 C.2    89  GLY89       0.2639
     66  O         22.9460  -31.2710   44.3840 O.2    89  GLY89      -0.2714
     67  N         20.8040  -30.6280   44.1960 N.am   90  LEU90      -0.1963
     68  CA        21.0010  -30.0050   42.8800 C.3    90  LEU90       0.1728
     69  C         21.8810  -28.7600   42.9340 C.2    90  LEU90       0.2616
     70  O         22.7120  -28.5510   42.0500 O.2    90  LEU90      -0.2715
     71  CB        19.6550  -29.6750   42.2160 C.3    90  LEU90       0.0311
     72  CG        19.1530  -30.6140   41.1130 C.3    90  LEU90       0.0022
     73  CD1       19.2920  -32.0860   41.4600 C.3    90  LEU90       0.0001
     74  CD2       17.7110  -30.2790   40.7630 C.3    90  LEU90       0.0001
     75  N         21.6930  -27.9310   43.9590 N.am   91  LEU91      -0.1963
     76  CA        22.5300  -26.7510   44.1450 C.3    91  LEU91       0.1728
     77  C         23.9930  -27.1380   44.3640 C.2    91  LEU91       0.2616
     78  O         24.8740  -26.6190   43.6780 O.2    91  LEU91      -0.2715
     79  CB        22.0400  -25.9000   45.3160 C.3    91  LEU91       0.0311
     80  CG        22.8650  -24.6410   45.5970 C.3    91  LEU91       0.0022
     81  CD1       22.7660  -23.6630   44.4310 C.3    91  LEU91       0.0001
     82  CD2       22.4200  -23.9840   46.8990 C.3    91  LEU91       0.0001
     83  N         24.2410  -28.0410   45.3120 N.am   92  ARG92      -0.1977
     84  CA        25.5920  -28.5160   45.6010 C.3    92  ARG92       0.1597
     85  C         26.2700  -29.0860   44.3410 C.2    92  ARG92       0.2287
     86  O         27.4380  -28.8110   44.0900 O.2    92  ARG92      -0.2864
     87  CB        25.5790  -29.5530   46.7430 C.3    92  ARG92       0.0334
     88  CG        26.9580  -30.0790   47.1370 C.3    92  ARG92       0.0492
     89  CD        26.9250  -30.9490   48.3940 C.3    92  ARG92       0.2205
     90  NE        26.6990  -30.1820   49.6300 N.pl3  92  ARG92      -0.0865
     91  CZ        27.6350  -29.5110   50.3150 C.cat  92  ARG92       0.5346
     92  NH1       28.9030  -29.4770   49.9050 N.pl3  92  ARG92       0.1354
     93  NH2       27.2970  -28.8550   51.4240 N.pl3  92  ARG92       0.1354
     94  N         20.6930  -14.2660   47.9700 N.3   115  SER115     -0.1202
     95  CA        19.2530  -14.1400   48.2090 C.3   115  SER115      0.2020
     96  C         18.9120  -14.3490   49.6830 C.2   115  SER115      0.2618
     97  O         17.9870  -13.7380   50.2080 O.2   115  SER115     -0.2717
     98  CB        18.4990  -15.1810   47.3840 C.3   115  SER115      0.2103
     99  OG        18.8980  -16.4940   47.7530 O.3   115  SER115     -0.2182
    100  N         19.6410  -15.2520   50.3320 N.am  116  GLU116     -0.1979
    101  CA        19.5040  -15.4800   51.7640 C.3   116  GLU116      0.1602
    102  C         20.9120  -15.6310   52.3140 C.2   116  GLU116      0.2287
    103  O         21.8130  -16.0220   51.5820 O.2   116  GLU116     -0.2864
    104  CB        18.6670  -16.7330   52.0560 C.3   116  GLU116      0.0415
    105  CG        17.3630  -16.8330   51.2720 C.3   116  GLU116      0.1163
    106  CD        16.7770  -18.2390   51.2670 C.2   116  GLU116      0.3649
    107  OE1       16.2490  -18.6610   50.2110 O.co2 116  GLU116     -0.2457
    108  OE2       16.8520  -18.9280   52.3120 O.co2 116  GLU116     -0.2457
    109  N         23.0500  -19.6730   52.9550 N.3   119  ILE119     -0.1231
    110  CA        23.2210  -20.6390   51.8680 C.3   119  ILE119      0.1692
    111  C         24.6780  -20.8190   51.4140 C.2   119  ILE119      0.2592
    112  O         25.1430  -21.9460   51.2730 O.2   119  ILE119     -0.2718
    113  CB        22.3770  -20.2320   50.6450 C.3   119  ILE119      0.0266
    114  CG1       20.8960  -20.1740   51.0240 C.3   119  ILE119      0.0019
    115  CG2       22.5970  -21.2030   49.4900 C.3   119  ILE119      0.0020
    116  CD1       20.0590  -19.3580   50.0640 C.3   119  ILE119      0.0001
    117  N         25.3910  -19.7140   51.1920 N.am  120  TYR120     -0.1976
    118  CA        26.6490  -19.7500   50.4400 C.3   120  TYR120      0.1639
    119  C         27.9570  -19.9030   51.2540 C.2   120  TYR120      0.2290
    120  O         28.9970  -20.2220   50.6880 O.2   120  TYR120     -0.2864
    121  CB        26.6860  -18.5650   49.4580 C.3   120  TYR120      0.0560
    122  CG        25.6830  -18.7570   48.3300 C.ar  120  TYR120     -0.0198
    123  CD1       25.8990  -19.7330   47.3450 C.ar  120  TYR120     -0.0009
    124  CD2       24.5050  -18.0100   48.2660 C.ar  120  TYR120     -0.0009
    125  CE1       24.9820  -19.9480   46.3210 C.ar  120  TYR120      0.0417
    126  CE2       23.5820  -18.2110   47.2410 C.ar  120  TYR120      0.0417
    127  CZ        23.8260  -19.1860   46.2730 C.ar  120  TYR120      0.1957
    128  OH        22.9280  -19.4020   45.2510 O.3   120  TYR120     -0.2866
    129  N         28.7610  -22.3700   53.2070 N.3   122  ARG122     -0.1231
    130  CA        29.2150  -23.7530   53.1140 C.3   122  ARG122      0.1694
    131  C         29.9160  -24.0440   51.7870 C.2   122  ARG122      0.2592
    132  O         30.6630  -25.0100   51.6980 O.2   122  ARG122     -0.2718
    133  CB        28.0560  -24.7260   53.3300 C.3   122  ARG122      0.0321
    134  CG        27.0740  -24.8120   52.1740 C.3   122  ARG122      0.0489
    135  CD        26.0070  -25.8600   52.4440 C.3   122  ARG122      0.2205
    136  NE        24.9860  -25.3650   53.3650 N.pl3 122  ARG122     -0.0865
    137  CZ        23.9390  -24.6150   53.0180 C.cat 122  ARG122      0.5346
    138  NH1       23.7430  -24.2450   51.7500 N.pl3 122  ARG122      0.1354
    139  NH2       23.0750  -24.2290   53.9550 N.pl3 122  ARG122      0.1354
    140  N         29.6710  -23.2150   50.7690 N.am  123  PHE123     -0.1976
    141  CA        30.3440  -23.3390   49.4770 C.3   123  PHE123      0.1639
    142  C         31.5710  -22.4330   49.3530 C.2   123  PHE123      0.2290
    143  O         32.0800  -22.2240   48.2580 O.2   123  PHE123     -0.2864
    144  CB        29.3610  -23.0360   48.3490 C.3   123  PHE123      0.0560
    145  CG        28.1620  -23.9400   48.3370 C.ar  123  PHE123     -0.0200
    146  CD1       28.3060  -25.2930   48.0860 C.ar  123  PHE123     -0.0042
    147  CD2       26.8900  -23.4410   48.5770 C.ar  123  PHE123     -0.0042
    148  CE1       27.2060  -26.1340   48.0760 C.ar  123  PHE123     -0.0003
    149  CE2       25.7840  -24.2770   48.5740 C.ar  123  PHE123     -0.0003
    150  CZ        25.9440  -25.6250   48.3230 C.ar  123  PHE123     -0.0000
@<TRIPOS>BOND
     1    29    28   ar
     2    29    27   ar
     3    28    26   ar
     4     1     2    1
     5    11    10    2
     6    12     9    1
     7    27    25   ar
     8     2     3    1
     9     2     5    1
    10    26    25   ar
    11     8     9    1
    12     8     3   am
    13    74    72    1
    14    10     9    1
    15    10    13   am
    16    25    24    1
    17     3     4    2
    18    72    73    1
    19    72    71    1
    20     7     5    1
    21     5     6    1
    22    13    14    1
    23    14    15    1
    24    14    17    1
    25    15    16    2
    26    24    21    1
    27    70    69    2
    28    71    68    1
    29    61    60    1
    30    19    17    1
    31    68    69    1
    32    68    67    1
    33    69    75   am
    34    17    18    1
    35    62    60    1
    36    20    21    1
    37    21    22    1
    38    60    59    2
    39    78    77    2
    40    75    76    1
    41    86    85    2
    42    76    77    1
    43    76    79    1
    44    67    65   am
    45    57    56    1
    46    57    58    1
    47    23    22    2
    48    22    30   am
    49    85    84    1
    50    77    83   am
    51    66    65    2
    52    81    80    1
    53    59    58    1
    54    65    64    1
    55    56    53    1
    56    55    54    2
    57   128   127    1
    58    83    84    1
    59    79    80    1
    60    39    38    1
    61    30    31    1
    62    40    38    1
    63    80    82    1
    64    84    87    1
    65    54    53    1
    66    54    63   am
    67    38    37    2
    68    53    52    1
    69    64    63    1
    70   127   125   ar
    71   127   126   ar
    72   125   123   ar
    73    37    36    1
    74    31    32    1
    75    31    34    1
    76    87    88    1
    77    36    35    1
    78    52    43   am
    79    35    34    1
    80    33    32    2
    81    88    89    1
    82   126   124   ar
    83    32    41   am
    84   123   122   ar
    85    98    99    1
    86    98    95    1
    87    94    95    1
    88   148   146   ar
    89   148   150   ar
    90    41    42    1
    91   146   145   ar
    92    43    44    2
    93    43    42    1
    94    95    96    1
    95   143   142    2
    96   124   122   ar
    97   150   149   ar
    98   122   121    1
    99   145   144    1
   100   145   147   ar
   101   144   141    1
   102    89    90    1
   103   149   147   ar
   104    42    45    1
   105   142   141    1
   106   121   118    1
   107   141   140    1
   108   115   113    1
   109    90    91    2
   110    96    97    2
   111    96   100   am
   112    92    91    1
   113    51    49    1
   114   116   114    1
   115    45    46    1
   116   107   106   ar
   117    91    93    1
   118   100   101    1
   119   118   117    1
   120   118   119    1
   121   113   114    1
   122   113   110    1
   123   120   119    2
   124    48    49    2
   125    48    47    1
   126   140   131   am
   127    49    50    1
   128    46    47    1
   129   117   111   am
   130   106   105    1
   131   106   108   ar
   132   105   104    1
   133   112   111    2
   134   111   110    1
   135   103   102    2
   136   132   131    2
   137   138   137    1
   138   101   104    1
   139   101   102    1
   140   131   130    1
   141   110   109    1
   142   134   135    1
   143   134   133    1
   144   135   136    1
   145   137   136    2
   146   137   139    1
   147   130   129    1
   148   130   133    1
