@<TRIPOS>MOLECULE
tmp/5iv3A00.pdb
 145 142 0 0 0
SMALL
GASTEIGER

@<TRIPOS>ATOM
      1  N        -16.9410  -27.6450    9.9210 N.3    45  PHE45      -0.1241
      2  CA       -17.2360  -28.2230    8.6090 C.3    45  PHE45       0.1605
      3  C        -17.4700  -29.6730    8.7880 C.2    45  PHE45       0.2264
      4  O        -16.5580  -30.4100    9.2840 O.2    45  PHE45      -0.2867
      5  CB       -16.1210  -27.9410    7.6040 C.3    45  PHE45       0.0534
      6  CG       -16.4670  -28.3660    6.2190 C.ar   45  PHE45      -0.0203
      7  CD1      -17.6950  -28.0010    5.6330 C.ar   45  PHE45      -0.0042
      8  CD2      -15.6160  -29.1940    5.5190 C.ar   45  PHE45      -0.0042
      9  CE1      -18.0260  -28.4540    4.3800 C.ar   45  PHE45      -0.0003
     10  CE2      -15.9520  -29.6480    4.2590 C.ar   45  PHE45      -0.0003
     11  CZ       -17.1340  -29.2660    3.6750 C.ar   45  PHE45      -0.0000
     12  N        -24.1890  -21.9380    7.6180 N.3    94  LEU94      -0.1231
     13  CA       -23.9190  -20.9550    6.5800 C.3    94  LEU94       0.1693
     14  C        -24.3850  -21.4120    5.1940 C.2    94  LEU94       0.2592
     15  O        -25.0200  -20.6360    4.4500 O.2    94  LEU94      -0.2718
     16  CB       -22.4680  -20.5710    6.4970 C.3    94  LEU94       0.0284
     17  CG       -21.8180  -19.9600    7.7170 C.3    94  LEU94       0.0019
     18  CD1      -20.3740  -19.5130    7.4810 C.3    94  LEU94       0.0001
     19  CD2      -22.6530  -18.7570    8.0980 C.3    94  LEU94       0.0001
     20  N        -23.9670  -22.6230    4.8020 N.am   95  LYS95      -0.1966
     21  CA       -24.2540  -23.1450    3.4950 C.3    95  LYS95       0.1728
     22  C        -24.1770  -24.6740    3.5160 C.2    95  LYS95       0.2616
     23  O        -23.4010  -25.2530    4.3300 O.2    95  LYS95      -0.2715
     24  CB       -23.2750  -22.5070    2.5080 C.3    95  LYS95       0.0311
     25  CG       -23.6670  -22.5220    1.0910 C.3    95  LYS95       0.0038
     26  CD       -22.6930  -21.7090    0.1930 C.3    95  LYS95       0.0206
     27  CE       -22.8170  -20.2090    0.2350 C.3    95  LYS95       0.1093
     28  NZ       -22.1520  -19.5580   -0.9720 N.3    95  LYS95      -0.1314
     29  N        -25.0130  -25.3090    2.6830 N.am   96  PHE96      -0.1960
     30  CA       -24.9490  -26.7460    2.3930 C.3    96  PHE96       0.1771
     31  C        -24.3290  -26.9450    1.0250 C.2    96  PHE96       0.2619
     32  O        -24.5670  -26.1510    0.1030 O.2    96  PHE96      -0.2715
     33  CB       -26.3070  -27.4320    2.4000 C.3    96  PHE96       0.0574
     34  CG       -27.0640  -27.3690    3.6920 C.ar   96  PHE96      -0.0200
     35  CD1      -27.7410  -26.1970    4.0530 C.ar   96  PHE96      -0.0042
     36  CD2      -27.2510  -28.4920    4.4760 C.ar   96  PHE96      -0.0042
     37  CE1      -28.5010  -26.1200    5.2050 C.ar   96  PHE96      -0.0003
     38  CE2      -27.9600  -28.4160    5.6690 C.ar   96  PHE96      -0.0003
     39  CZ       -28.5860  -27.2520    6.0440 C.ar   96  PHE96      -0.0000
     40  N        -23.6020  -28.0220    0.8720 N.am   97  ALA97      -0.1977
     41  CA       -23.0830  -28.4470   -0.4260 C.3    97  ALA97       0.1597
     42  C        -23.1330  -29.9360   -0.4500 C.2    97  ALA97       0.2287
     43  O        -22.3780  -30.6420    0.2760 O.2    97  ALA97      -0.2864
     44  CB       -21.6670  -27.9970   -0.6010 C.3    97  ALA97       0.0319
     45  N        -22.5330  -32.0870    2.7670 N.3   100  ALA100     -0.1245
     46  CA       -21.6860  -31.3830    3.7100 C.3   100  ALA100      0.1562
     47  C        -22.3390  -30.0860    4.0780 C.2   100  ALA100      0.2260
     48  O        -23.1490  -29.5370    3.3040 O.2   100  ALA100     -0.2867
     49  CB       -20.3740  -31.0740    3.0500 C.3   100  ALA100      0.0290
     50  N        -21.3090  -26.1860    6.3300 N.3   102  LEU102     -0.1245
     51  CA       -20.3970  -25.3680    7.0650 C.3   102  LEU102      0.1561
     52  C        -21.2060  -24.5640    8.0740 C.2   102  LEU102      0.2260
     53  O        -22.2100  -23.9230    7.7310 O.2   102  LEU102     -0.2867
     54  CB       -19.6070  -24.4990    6.1000 C.3   102  LEU102      0.0270
     55  CG       -18.6140  -23.5120    6.7570 C.3   102  LEU102      0.0019
     56  CD1      -17.4450  -24.2910    7.3650 C.3   102  LEU102      0.0001
     57  CD2      -18.0890  -22.4460    5.7900 C.3   102  LEU102      0.0001
     58  N        -23.0150  -14.9990   -1.0540 N.3   159  PHE159     -0.1227
     59  CA       -22.0030  -14.7660   -0.0260 C.3   159  PHE159      0.1736
     60  C        -21.0190  -15.9290    0.1620 C.2   159  PHE159      0.2595
     61  O        -21.2980  -17.0800   -0.1980 O.2   159  PHE159     -0.2718
     62  CB       -22.5970  -14.3910    1.2940 C.3   159  PHE159      0.0547
     63  CG       -23.0690  -15.5600    2.0890 C.ar  159  PHE159     -0.0202
     64  CD1      -24.2500  -16.1620    1.7820 C.ar  159  PHE159     -0.0042
     65  CD2      -22.2920  -16.1090    3.1050 C.ar  159  PHE159     -0.0042
     66  CE1      -24.7010  -17.2550    2.4640 C.ar  159  PHE159     -0.0003
     67  CE2      -22.7590  -17.1890    3.8120 C.ar  159  PHE159     -0.0003
     68  CZ       -23.9410  -17.7740    3.4390 C.ar  159  PHE159     -0.0000
     69  N        -19.8830  -15.5870    0.7910 N.am  160  LEU160     -0.1966
     70  CA       -18.8290  -16.4950    1.1570 C.3   160  LEU160      0.1728
     71  C        -18.2120  -15.9670    2.4150 C.2   160  LEU160      0.2616
     72  O        -18.1800  -14.7370    2.6440 O.2   160  LEU160     -0.2715
     73  CB       -17.7160  -16.4450    0.1240 C.3   160  LEU160      0.0311
     74  CG       -18.0790  -16.9510   -1.2530 C.3   160  LEU160      0.0022
     75  CD1      -17.0470  -16.5470   -2.2730 C.3   160  LEU160      0.0001
     76  CD2      -18.1910  -18.4800   -1.2050 C.3   160  LEU160      0.0001
     77  N        -17.6890  -16.8880    3.2050 N.am  161  VAL161     -0.1977
     78  CA       -16.7250  -16.5330    4.2520 C.3   161  VAL161      0.1596
     79  C        -15.3280  -16.8300    3.7070 C.2   161  VAL161      0.2287
     80  O        -15.1230  -17.7340    2.9100 O.2   161  VAL161     -0.2864
     81  CB       -17.0360  -17.1720    5.6120 C.3   161  VAL161      0.0276
     82  CG1      -18.2110  -16.4870    6.2370 C.3   161  VAL161      0.0022
     83  CG2      -17.2410  -18.6400    5.5090 C.3   161  VAL161      0.0022
     84  N        -11.1120  -20.1700    7.5190 N.3   166  VAL166     -0.1245
     85  CA       -11.9020  -20.9080    6.5520 C.3   166  VAL166      0.1561
     86  C        -11.0740  -21.9920    5.8350 C.2   166  VAL166      0.2260
     87  O        -11.4940  -23.1570    5.7370 O.2   166  VAL166     -0.2867
     88  CB       -12.5120  -19.9150    5.5560 C.3   166  VAL166      0.0252
     89  CG1      -13.3440  -20.6690    4.5490 C.3   166  VAL166      0.0019
     90  CG2      -13.4280  -18.9050    6.2610 C.3   166  VAL166      0.0019
     91  N        -10.3890  -24.7770    8.4180 N.3   169  VAL169     -0.1231
     92  CA       -11.4370  -25.7530    8.7550 C.3   169  VAL169      0.1692
     93  C        -11.5500  -26.8390    7.7010 C.2   169  VAL169      0.2591
     94  O        -11.8500  -28.0370    7.9890 O.2   169  VAL169     -0.2718
     95  CB       -12.8000  -25.1220    9.0540 C.3   169  VAL169      0.0266
     96  CG1      -13.5620  -24.6910    7.7960 C.3   169  VAL169      0.0020
     97  CG2      -13.6580  -26.0390    9.8970 C.3   169  VAL169      0.0020
     98  N        -11.4080  -26.4140    6.4580 N.am  170  ARG170     -0.1980
     99  CA       -11.4360  -27.3920    5.3840 C.3   170  ARG170      0.1597
    100  C        -10.2240  -28.3640    5.4310 C.2   170  ARG170      0.2287
    101  O        -10.3930  -29.5930    5.2770 O.2   170  ARG170     -0.2864
    102  CB       -11.5280  -26.7340    4.0360 C.3   170  ARG170      0.0334
    103  CG       -12.2130  -27.7310    3.0990 C.3   170  ARG170      0.0492
    104  CD       -11.5840  -27.8600    1.7660 C.3   170  ARG170      0.2205
    105  NE       -10.1200  -27.9190    1.7940 N.pl3 170  ARG170     -0.0865
    106  CZ        -9.3630  -28.9880    1.4530 C.cat 170  ARG170      0.5346
    107  NH1       -8.0430  -28.8470    1.4330 N.pl3 170  ARG170      0.1354
    108  NH2       -9.8900  -30.1830    1.1260 N.pl3 170  ARG170      0.1354
    109  N        -21.5950  -21.4790   -4.7080 N.3   328  VAL328     -0.1231
    110  CA       -20.2890  -20.8530   -4.7490 C.3   328  VAL328      0.1692
    111  C        -19.5610  -21.2090   -3.4520 C.2   328  VAL328      0.2592
    112  O        -20.1740  -21.2080   -2.3810 O.2   328  VAL328     -0.2718
    113  CB       -20.3900  -19.3260   -4.9310 C.3   328  VAL328      0.0266
    114  CG1      -19.0000  -18.7950   -5.2400 C.3   328  VAL328      0.0020
    115  CG2      -21.4130  -18.9700   -6.0380 C.3   328  VAL328      0.0020
    116  N        -18.2700  -21.5160   -3.5760 N.am  329  PHE329     -0.1962
    117  CA       -17.3640  -21.9990   -2.5110 C.3   329  PHE329      0.1771
    118  C        -16.0420  -21.2280   -2.6040 C.2   329  PHE329      0.2619
    119  O        -15.6530  -20.8060   -3.6870 O.2   329  PHE329     -0.2715
    120  CB       -16.8950  -23.4220   -2.7630 C.3   329  PHE329      0.0574
    121  CG       -17.9570  -24.3440   -3.0770 C.ar  329  PHE329     -0.0200
    122  CD1      -18.7340  -24.8180   -2.0910 C.ar  329  PHE329     -0.0042
    123  CD2      -18.2210  -24.7110   -4.3930 C.ar  329  PHE329     -0.0042
    124  CE1      -19.7670  -25.6970   -2.3940 C.ar  329  PHE329     -0.0003
    125  CE2      -19.2120  -25.6070   -4.6910 C.ar  329  PHE329     -0.0003
    126  CZ       -19.9950  -26.1080   -3.7040 C.ar  329  PHE329     -0.0000
    127  N        -15.3350  -21.1230   -1.4800 N.am  330  MET330     -0.1963
    128  CA       -13.9340  -20.6300   -1.5010 C.3   330  MET330      0.1736
    129  C        -13.0500  -21.1850   -0.3940 C.2   330  MET330      0.2616
    130  O        -13.3980  -21.1310    0.7580 O.2   330  MET330     -0.2715
    131  CB       -13.8230  -19.1140   -1.4470 C.3   330  MET330      0.0427
    132  CG       -12.3690  -18.6190   -1.6750 C.3   330  MET330      0.0599
    133  SD       -12.2820  -16.9040   -2.1130 S.3   330  MET330     -0.1393
    134  CE       -10.5280  -16.9000   -2.4700 C.3   330  MET330      0.0692
    135  N        -11.9040  -21.7290   -0.7780 N.am  331  PHE331     -0.1974
    136  CA       -10.8680  -22.1970    0.2080 C.3   331  PHE331      0.1639
    137  C         -9.5640  -22.3420   -0.5700 C.2   331  PHE331      0.2290
    138  O         -9.6090  -22.3550   -1.7980 O.2   331  PHE331     -0.2864
    139  CB       -11.2740  -23.4880    0.8950 C.3   331  PHE331      0.0560
    140  CG       -11.7010  -24.5590   -0.0470 C.ar  331  PHE331     -0.0200
    141  CD1      -10.7630  -25.4410   -0.6130 C.ar  331  PHE331     -0.0042
    142  CD2      -13.0530  -24.7240   -0.3670 C.ar  331  PHE331     -0.0042
    143  CE1      -11.1770  -26.4510   -1.4990 C.ar  331  PHE331     -0.0003
    144  CE2      -13.4610  -25.7350   -1.2530 C.ar  331  PHE331     -0.0003
    145  CZ       -12.5200  -26.5820   -1.8310 C.ar  331  PHE331     -0.0000
@<TRIPOS>BOND
     1   115   113    1
     2   114   113    1
     3   113   110    1
     4   110   109    1
     5   110   111    1
     6   125   123   ar
     7   125   126   ar
     8   123   121   ar
     9   126   124   ar
    10   119   118    2
    11   116   111   am
    12   116   117    1
    13   111   112    2
    14   121   120    1
    15   121   122   ar
    16   120   117    1
    17   118   117    1
    18   118   127   am
    19   134   133    1
    20   124   122   ar
    21    75    74    1
    22   133   132    1
    23   145   143   ar
    24   145   144   ar
    25   138   137    2
    26   132   131    1
    27   128   127    1
    28   128   131    1
    29   128   129    1
    30   143   141   ar
    31    74    76    1
    32    74    73    1
    33   144   142   ar
    34    58    59    1
    35    28    27    1
    36   135   129   am
    37   135   136    1
    38   141   140   ar
    39    44    41    1
    40   137   136    1
    41    42    41    1
    42    42    43    2
    43    41    40    1
    44   129   130    2
    45   142   140   ar
    46    61    60    2
    47   140   139    1
    48    59    60    1
    49    59    62    1
    50    32    31    2
    51    73    70    1
    52    60    69   am
    53    26    27    1
    54    26    25    1
    55   136   139    1
    56    69    70    1
    57    40    31   am
    58    31    30    1
    59    25    24    1
    60   108   106    1
    61    70    71    1
    62    62    63    1
    63   107   106    1
    64   106   105    2
    65   104   105    1
    66   104   103    1
    67    64    63   ar
    68    64    66   ar
    69    63    65   ar
    70    30    33    1
    71    30    29    1
    72    33    34    1
    73    71    72    2
    74    71    77   am
    75    66    68   ar
    76    24    21    1
    77    29    22   am
    78    45    46    1
    79    80    79    2
    80    49    46    1
    81   103   102    1
    82    65    67   ar
    83    77    78    1
    84    48    47    2
    85    68    67   ar
    86    21    22    1
    87    21    20    1
    88    22    23    2
    89    11    10   ar
    90    11     9   ar
    91    34    35   ar
    92    34    36   ar
    93    79    78    1
    94    46    47    1
    95   102    99    1
    96    35    37   ar
    97    78    81    1
    98    10     8   ar
    99     9     7   ar
   100    15    14    2
   101    36    38   ar
   102    89    88    1
   103    20    14   am
   104    14    13    1
   105    37    39   ar
   106   101   100    2
   107    99   100    1
   108    99    98    1
   109    83    81    1
   110     8     6   ar
   111    88    90    1
   112    88    85    1
   113    81    82    1
   114     7     6   ar
   115    38    39   ar
   116    87    86    2
   117    57    55    1
   118    86    85    1
   119    54    55    1
   120    54    51    1
   121     6     5    1
   122    50    51    1
   123    98    93   am
   124    16    13    1
   125    16    17    1
   126    85    84    1
   127    13    12    1
   128    55    56    1
   129    51    52    1
   130    18    17    1
   131     5     2    1
   132    93    94    2
   133    93    92    1
   134    17    19    1
   135    53    52    2
   136    96    95    1
   137    91    92    1
   138     2     3    1
   139     2     1    1
   140    92    95    1
   141     3     4    2
   142    95    97    1
