@<TRIPOS>MOLECULE
tmp/5iv8A00.pdb
 155 154 0 0 0
SMALL
GASTEIGER

@<TRIPOS>ATOM
      1  N         45.9000  -44.4880  -18.1930 N.3   147  ASN147     -0.1240
      2  CA        47.0630  -45.2880  -18.5500 C.3   147  ASN147      0.1653
      3  C         46.7160  -46.6770  -19.0670 C.2   147  ASN147      0.2266
      4  O         47.6200  -47.3990  -19.5000 O.2   147  ASN147     -0.2867
      5  CB        47.9990  -45.4270  -17.3430 C.3   147  ASN147      0.1155
      6  CG        48.6670  -44.1190  -16.9670 C.2   147  ASN147      0.2627
      7  OD1       48.3990  -43.5540  -15.9070 O.2   147  ASN147     -0.2716
      8  ND2       49.5470  -43.6320  -17.8350 N.am  147  ASN147     -0.0877
      9  N         48.2430  -50.5260  -22.6950 N.3   178  TYR178     -0.1227
     10  CA        48.9180  -50.0020  -21.5170 C.3   178  TYR178      0.1736
     11  C         49.8240  -48.8470  -21.9230 C.2   178  TYR178      0.2595
     12  O         50.4030  -48.8480  -23.0150 O.2   178  TYR178     -0.2718
     13  CB        49.7580  -51.0810  -20.8200 C.3   178  TYR178      0.0548
     14  CG        48.9740  -52.2710  -20.3200 C.ar  178  TYR178     -0.0200
     15  CD1       48.6590  -53.3250  -21.1670 C.ar  178  TYR178     -0.0009
     16  CD2       48.5620  -52.3490  -18.9960 C.ar  178  TYR178     -0.0009
     17  CE1       47.9460  -54.4190  -20.7130 C.ar  178  TYR178      0.0417
     18  CE2       47.8490  -53.4400  -18.5320 C.ar  178  TYR178      0.0417
     19  CZ        47.5440  -54.4710  -19.3950 C.ar  178  TYR178      0.1957
     20  OH        46.8350  -55.5570  -18.9380 O.3   178  TYR178     -0.2866
     21  N         49.9580  -47.8660  -21.0280 N.am  179  TYR179     -0.1962
     22  CA        50.7580  -46.6780  -21.2910 C.3   179  TYR179      0.1771
     23  C         51.5960  -46.3260  -20.0700 C.2   179  TYR179      0.2619
     24  O         51.1910  -46.5620  -18.9290 O.2   179  TYR179     -0.2715
     25  CB        49.8850  -45.4730  -21.6620 C.3   179  TYR179      0.0574
     26  CG        49.0730  -45.6450  -22.9230 C.ar  179  TYR179     -0.0198
     27  CD1       49.5420  -45.1750  -24.1430 C.ar  179  TYR179     -0.0009
     28  CD2       47.8290  -46.2630  -22.8910 C.ar  179  TYR179     -0.0009
     29  CE1       48.7980  -45.3230  -25.2990 C.ar  179  TYR179      0.0417
     30  CE2       47.0790  -46.4160  -24.0410 C.ar  179  TYR179      0.0417
     31  CZ        47.5680  -45.9440  -25.2420 C.ar  179  TYR179      0.1957
     32  OH        46.8240  -46.0940  -26.3890 O.3   179  TYR179     -0.2866
     33  N         52.7680  -45.7450  -20.3280 N.am  180  GLN180     -0.1977
     34  CA        53.6260  -45.2010  -19.2760 C.3   180  GLN180      0.1601
     35  C         54.5980  -44.2360  -19.9340 C.2   180  GLN180      0.2287
     36  O         55.3960  -44.6490  -20.7800 O.2   180  GLN180     -0.2864
     37  CB        54.3720  -46.3100  -18.5350 C.3   180  GLN180      0.0394
     38  CG        54.9600  -45.8720  -17.2040 C.3   180  GLN180      0.0908
     39  CD        53.8940  -45.5480  -16.1730 C.2   180  GLN180      0.2608
     40  OE1       53.3090  -44.4650  -16.1850 O.2   180  GLN180     -0.2717
     41  NE2       53.6370  -46.4910  -15.2730 N.am  180  GLN180     -0.0878
     42  N         59.3020  -43.4680  -18.6570 N.3   183  VAL183     -0.1245
     43  CA        60.2470  -44.5580  -18.4390 C.3   183  VAL183      0.1561
     44  C         61.6360  -44.0510  -18.8000 C.2   183  VAL183      0.2260
     45  O         62.1170  -44.2600  -19.9200 O.2   183  VAL183     -0.2867
     46  CB        59.8730  -45.8060  -19.2590 C.3   183  VAL183      0.0252
     47  CG1       60.7730  -46.9780  -18.8870 C.3   183  VAL183      0.0019
     48  CG2       58.4120  -46.1580  -19.0430 C.3   183  VAL183      0.0019
     49  N         56.6400  -45.4270  -23.2640 N.3   188  THR188     -0.1203
     50  CA        56.3010  -46.7910  -23.6380 C.3   188  THR188      0.1994
     51  C         54.8150  -46.9070  -23.9600 C.2   188  THR188      0.2618
     52  O         54.0010  -46.0620  -23.5790 O.2   188  THR188     -0.2717
     53  CB        56.6710  -47.7720  -22.5220 C.3   188  THR188      0.1784
     54  OG1       56.0110  -47.3950  -21.3070 O.3   188  THR188     -0.2211
     55  CG2       58.1790  -47.7760  -22.2970 C.3   188  THR188      0.0376
     56  N         54.4740  -47.9840  -24.6680 N.am  189  HIS189     -0.1961
     57  CA        53.1110  -48.1900  -25.1530 C.3   189  HIS189      0.1787
     58  C         52.9480  -49.6540  -25.5410 C.2   189  HIS189      0.2620
     59  O         53.5210  -50.0970  -26.5410 O.2   189  HIS189     -0.2715
     60  CB        52.8180  -47.2700  -26.3350 C.3   189  HIS189      0.0785
     61  CG        51.4820  -47.5030  -26.9700 C.ar  189  HIS189      0.0821
     62  ND1       50.4310  -48.0960  -26.3050 N.ar  189  HIS189     -0.2267
     63  CD2       51.0270  -47.2220  -28.2140 C.ar  189  HIS189      0.1154
     64  CE1       49.3880  -48.1710  -27.1110 C.ar  189  HIS189      0.1986
     65  NE2       49.7230  -47.6470  -28.2750 N.ar  189  HIS189     -0.2212
     66  N         52.1710  -50.3980  -24.7620 N.am  190  LEU190     -0.1977
     67  CA        51.9230  -51.8070  -25.0360 C.3   190  LEU190      0.1596
     68  C         50.5260  -51.9780  -25.6190 C.2   190  LEU190      0.2287
     69  O         49.5670  -51.3560  -25.1520 O.2   190  LEU190     -0.2864
     70  CB        52.0750  -52.6420  -23.7630 C.3   190  LEU190      0.0297
     71  CG        52.2860  -54.1560  -23.8790 C.3   190  LEU190      0.0022
     72  CD1       52.9380  -54.6800  -22.6140 C.3   190  LEU190      0.0001
     73  CD2       50.9840  -54.9020  -24.1370 C.3   190  LEU190      0.0001
     74  N         50.6440  -59.2800  -30.1200 N.3   212  PHE212     -0.1241
     75  CA        51.3660  -58.6060  -29.0510 C.3   212  PHE212      0.1605
     76  C         52.3200  -57.6090  -29.6900 C.2   212  PHE212      0.2264
     77  O         53.0990  -57.9700  -30.5790 O.2   212  PHE212     -0.2867
     78  CB        52.1220  -59.6140  -28.1780 C.3   212  PHE212      0.0534
     79  CG        52.9550  -58.9870  -27.0980 C.ar  212  PHE212     -0.0203
     80  CD1       54.3380  -59.0230  -27.1640 C.ar  212  PHE212     -0.0042
     81  CD2       52.3580  -58.3650  -26.0130 C.ar  212  PHE212     -0.0042
     82  CE1       55.1120  -58.4510  -26.1710 C.ar  212  PHE212     -0.0003
     83  CE2       53.1270  -57.7890  -25.0170 C.ar  212  PHE212     -0.0003
     84  CZ        54.5050  -57.8330  -25.0970 C.ar  212  PHE212     -0.0000
     85  N         54.6670  -54.3870  -28.4080 N.3   214  PRO214     -0.2102
     86  CA        55.2730  -53.3440  -27.5760 C.3   214  PRO214      0.1504
     87  C         55.9400  -52.2760  -28.4280 C.2   214  PRO214      0.2576
     88  O         56.5050  -52.5470  -29.4920 O.2   214  PRO214     -0.2718
     89  CB        56.3060  -54.1220  -26.7530 C.3   214  PRO214      0.0282
     90  CG        56.7200  -55.2340  -27.6600 C.3   214  PRO214      0.0208
     91  CD        55.5050  -55.5970  -28.4790 C.3   214  PRO214      0.0893
     92  N         55.8690  -51.0390  -27.9400 N.am  215  THR215     -0.1939
     93  CA        56.3420  -49.8750  -28.6850 C.3   215  THR215      0.2028
     94  C         57.0230  -48.9200  -27.7150 C.2   215  THR215      0.2642
     95  O         56.3700  -48.3600  -26.8290 O.2   215  THR215     -0.2714
     96  CB        55.1890  -49.1770  -29.4090 C.3   215  THR215      0.1808
     97  OG1       54.5130  -50.1190  -30.2490 O.3   215  THR215     -0.2208
     98  CG2       55.7110  -48.0280  -30.2590 C.3   215  THR215      0.0379
     99  N         58.3290  -48.7330  -27.8860 N.am  216  ILE216     -0.1977
    100  CA        59.1080  -47.7820  -27.1020 C.3   216  ILE216      0.1596
    101  C         59.4420  -46.6010  -28.0030 C.2   216  ILE216      0.2287
    102  O         59.8530  -46.7890  -29.1550 O.2   216  ILE216     -0.2864
    103  CB        60.3840  -48.4250  -26.5280 C.3   216  ILE216      0.0276
    104  CG1       60.0350  -49.6130  -25.6280 C.3   216  ILE216      0.0022
    105  CG2       61.1900  -47.4050  -25.7470 C.3   216  ILE216      0.0022
    106  CD1       60.0280  -50.9440  -26.3470 C.3   216  ILE216      0.0001
    107  N         61.0800  -47.6490  -31.6410 N.3   231  ALA231     -0.1231
    108  CA        61.2640  -49.0690  -31.9040 C.3   231  ALA231      0.1694
    109  C         59.9860  -49.8010  -31.5270 C.2   231  ALA231      0.2592
    110  O         59.4540  -49.5990  -30.4290 O.2   231  ALA231     -0.2718
    111  CB        62.4510  -49.6300  -31.1180 C.3   231  ALA231      0.0304
    112  N         59.4970  -50.6460  -32.4310 N.am  232  LYS232     -0.1966
    113  CA        58.2290  -51.3320  -32.2300 C.3   232  LYS232      0.1728
    114  C         58.3610  -52.7830  -32.6610 C.2   232  LYS232      0.2616
    115  O         58.9390  -53.0710  -33.7110 O.2   232  LYS232     -0.2715
    116  CB        57.1040  -50.6460  -33.0200 C.3   232  LYS232      0.0311
    117  CG        55.7780  -51.3880  -33.0180 C.3   232  LYS232      0.0038
    118  CD        54.8450  -50.8340  -34.0860 C.3   232  LYS232      0.0206
    119  CE        54.4970  -49.3750  -33.8290 C.3   232  LYS232      0.1093
    120  NZ        53.6000  -49.2140  -32.6510 N.3   232  LYS232     -0.1314
    121  N         57.8240  -53.6930  -31.8540 N.am  233  LEU233     -0.1977
    122  CA        57.8120  -55.1080  -32.1930 C.3   233  LEU233      0.1596
    123  C         56.3970  -55.5380  -32.5590 C.2   233  LEU233      0.2287
    124  O         55.4140  -54.9940  -32.0480 O.2   233  LEU233     -0.2864
    125  CB        58.3430  -55.9630  -31.0380 C.3   233  LEU233      0.0297
    126  CG        58.6320  -57.4270  -31.3730 C.3   233  LEU233      0.0022
    127  CD1       59.7130  -57.5240  -32.4370 C.3   233  LEU233      0.0001
    128  CD2       59.0290  -58.1990  -30.1270 C.3   233  LEU233      0.0001
    129  N         60.3300  -56.7390  -36.5230 N.3   263  PRO263     -0.2102
    130  CA        60.7770  -55.4850  -35.9130 C.3   263  PRO263      0.1504
    131  C         60.2990  -54.2920  -36.7310 C.2   263  PRO263      0.2576
    132  O         59.8040  -54.4230  -37.8510 O.2   263  PRO263     -0.2718
    133  CB        62.3090  -55.5920  -35.9390 C.3   263  PRO263      0.0282
    134  CG        62.6120  -57.0180  -36.3220 C.3   263  PRO263      0.0208
    135  CD        61.4440  -57.4810  -37.1300 C.3   263  PRO263      0.0893
    136  N         60.4600  -53.1070  -36.1450 N.am  264  GLN264     -0.1966
    137  CA        60.1220  -51.8680  -36.8330 C.3   264  GLN264      0.1733
    138  C         60.9300  -50.7350  -36.2250 C.2   264  GLN264      0.2616
    139  O         60.9090  -50.5410  -35.0040 O.2   264  GLN264     -0.2715
    140  CB        58.6260  -51.5540  -36.7430 C.3   264  GLN264      0.0408
    141  CG        58.2670  -50.2010  -37.3450 C.3   264  GLN264      0.0908
    142  CD        56.8060  -49.8410  -37.1700 C.2   264  GLN264      0.2608
    143  OE1       55.9160  -50.6030  -37.5460 O.2   264  GLN264     -0.2717
    144  NE2       56.5510  -48.6720  -36.5920 N.am  264  GLN264     -0.0878
    145  N         61.6270  -49.9890  -37.0790 N.am  265  PHE265     -0.1974
    146  CA        62.4480  -48.8590  -36.6630 C.3   265  PHE265      0.1639
    147  C         61.9740  -47.6240  -37.4140 C.2   265  PHE265      0.2290
    148  O         61.9150  -47.6320  -38.6480 O.2   265  PHE265     -0.2864
    149  CB        63.9290  -49.1370  -36.9380 C.3   265  PHE265      0.0560
    150  CG        64.8470  -48.0220  -36.5290 C.ar  265  PHE265     -0.0200
    151  CD1       65.3130  -47.9310  -35.2270 C.ar  265  PHE265     -0.0042
    152  CD2       65.2570  -47.0710  -37.4500 C.ar  265  PHE265     -0.0042
    153  CE1       66.1630  -46.9070  -34.8500 C.ar  265  PHE265     -0.0003
    154  CE2       66.1060  -46.0460  -37.0790 C.ar  265  PHE265     -0.0003
    155  CZ        66.5600  -45.9640  -35.7770 C.ar  265  PHE265     -0.0000
@<TRIPOS>BOND
     1   148   147    2
     2   132   131    2
     3   143   142    2
     4   152   154   ar
     5   152   150   ar
     6   147   146    1
     7   141   142    1
     8   141   140    1
     9   142   144   am
    10   135   129    1
    11   135   134    1
    12   145   146    1
    13   145   138   am
    14   154   155   ar
    15   149   146    1
    16   149   150    1
    17   137   140    1
    18   137   138    1
    19   137   136    1
    20   131   136   am
    21   131   130    1
    22   150   151   ar
    23   129   130    1
    24   134   133    1
    25   138   139    2
    26   133   130    1
    27   155   153   ar
    28   151   153   ar
    29   118   119    1
    30   118   117    1
    31   119   120    1
    32   115   114    2
    33   116   117    1
    34   116   113    1
    35   114   113    1
    36   114   121   am
    37   123   122    1
    38   123   124    2
    39   127   126    1
    40   112   113    1
    41   112   109   am
    42   122   121    1
    43   122   125    1
    44   108   107    1
    45   108   109    1
    46   108   111    1
    47   109   110    2
    48   126   125    1
    49   126   128    1
    50    77    76    2
    51    98    96    1
    52    97    96    1
    53    74    75    1
    54    76    75    1
    55    88    87    2
    56    96    93    1
    57   102   101    2
    58    75    78    1
    59    93    92    1
    60    93    94    1
    61    91    85    1
    62    91    90    1
    63    87    92   am
    64    87    86    1
    65    85    86    1
    66    65    63   ar
    67    65    64   ar
    68    63    61   ar
    69    78    79    1
    70   101   100    1
    71    99    94   am
    72    99   100    1
    73    94    95    2
    74    90    89    1
    75    86    89    1
    76    80    79   ar
    77    80    82   ar
    78    64    62   ar
    79   100   103    1
    80    79    81   ar
    81    61    60    1
    82    61    62   ar
    83    59    58    2
    84   103   105    1
    85   103   104    1
    86    32    31    1
    87   106   104    1
    88    60    57    1
    89    82    84   ar
    90    81    83   ar
    91    68    69    2
    92    68    67    1
    93    58    57    1
    94    58    66   am
    95    29    31   ar
    96    29    27   ar
    97    31    30   ar
    98    57    56    1
    99    84    83   ar
   100    67    66    1
   101    67    70    1
   102    56    51   am
   103    27    26   ar
   104    73    71    1
   105    30    28   ar
   106    51    50    1
   107    51    52    2
   108    71    70    1
   109    71    72    1
   110    50    49    1
   111    50    53    1
   112    12    11    2
   113    26    28   ar
   114    26    25    1
   115     9    10    1
   116    53    55    1
   117    53    54    1
   118    11    10    1
   119    11    21   am
   120    25    22    1
   121    10    13    1
   122    22    21    1
   123    22    23    1
   124    15    17   ar
   125    15    14   ar
   126    13    14    1
   127    36    35    2
   128    17    19   ar
   129    33    23   am
   130    33    34    1
   131    14    16   ar
   132    23    24    2
   133    35    34    1
   134    45    44    2
   135     4     3    2
   136    19    20    1
   137    19    18   ar
   138    34    37    1
   139    46    48    1
   140    46    47    1
   141    46    43    1
   142     3     2    1
   143    16    18   ar
   144    44    43    1
   145    42    43    1
   146     2     1    1
   147     2     5    1
   148    37    38    1
   149     8     6   am
   150     5     6    1
   151    38    39    1
   152     6     7    2
   153    40    39    2
   154    39    41   am
