@<TRIPOS>MOLECULE
tmp/5iv8C00.pdb
 95 88 0 0 0
SMALL
GASTEIGER

@<TRIPOS>ATOM
      1  N         32.5470  -55.6710 -114.1330 N.3   181  PHE181     -0.1241
      2  CA        32.0320  -55.5850 -112.7750 C.3   181  PHE181      0.1605
      3  C         31.1010  -56.7450 -112.4420 C.2   181  PHE181      0.2264
      4  O         30.4440  -57.3180 -113.3150 O.2   181  PHE181     -0.2867
      5  CB        31.2760  -54.2720 -112.5650 C.3   181  PHE181      0.0534
      6  CG        32.1040  -53.0480 -112.8030 C.ar  181  PHE181     -0.0203
      7  CD1       33.1280  -52.7100 -111.9360 C.ar  181  PHE181     -0.0042
      8  CD2       31.8460  -52.2220 -113.8850 C.ar  181  PHE181     -0.0042
      9  CE1       33.8890  -51.5800 -112.1500 C.ar  181  PHE181     -0.0003
     10  CE2       32.6030  -51.0890 -114.1040 C.ar  181  PHE181     -0.0003
     11  CZ        33.6240  -50.7670 -113.2360 C.ar  181  PHE181     -0.0000
     12  N         29.0000  -52.7290 -106.0250 N.3   211  ILE211     -0.1245
     13  CA        29.7360  -52.9190 -107.2690 C.3   211  ILE211      0.1561
     14  C         31.0820  -53.5450 -106.9290 C.2   211  ILE211      0.2260
     15  O         31.7290  -53.1650 -105.9420 O.2   211  ILE211     -0.2867
     16  CB        29.8950  -51.5900 -108.0400 C.3   211  ILE211      0.0252
     17  CG1       30.3500  -51.8530 -109.4750 C.3   211  ILE211      0.0019
     18  CG2       30.8480  -50.6290 -107.3350 C.3   211  ILE211      0.0019
     19  CD1       29.2530  -52.4030 -110.3550 C.3   211  ILE211      0.0001
     20  N         34.8590  -55.4360 -108.5060 N.3   213  LEU213     -0.1245
     21  CA        35.8230  -55.5410 -109.6000 C.3   213  LEU213      0.1561
     22  C         36.8500  -56.5990 -109.2200 C.2   213  LEU213      0.2260
     23  O         37.7760  -56.3200 -108.4350 O.2   213  LEU213     -0.2867
     24  CB        36.4950  -54.2030 -109.8820 C.3   213  LEU213      0.0270
     25  CG        37.5820  -54.2210 -110.9560 C.3   213  LEU213      0.0019
     26  CD1       37.0370  -54.7820 -112.2590 C.3   213  LEU213      0.0001
     27  CD2       38.1510  -52.8260 -111.1630 C.3   213  LEU213      0.0001
     28  N         39.9960  -58.8780 -110.0810 N.3   215  LEU215     -0.1245
     29  CA        41.1240  -59.1130 -110.9670 C.3   215  LEU215      0.1561
     30  C         41.8880  -60.3400 -110.4910 C.2   215  LEU215      0.2260
     31  O         41.9800  -60.6040 -109.2900 O.2   215  LEU215     -0.2867
     32  CB        42.0560  -57.9000 -111.0150 C.3   215  LEU215      0.0270
     33  CG        41.3970  -56.5610 -111.3490 C.3   215  LEU215      0.0019
     34  CD1       42.4400  -55.4620 -111.4590 C.3   215  LEU215      0.0001
     35  CD2       40.5800  -56.6600 -112.6280 C.3   215  LEU215      0.0001
     36  N         45.2100  -63.3330 -111.8410 N.3   217  ASN217     -0.1240
     37  CA        46.1860  -63.8100 -112.8100 C.3   217  ASN217      0.1653
     38  C         46.7110  -65.1770 -112.3930 C.2   217  ASN217      0.2266
     39  O         45.9600  -66.0010 -111.8590 O.2   217  ASN217     -0.2867
     40  CB        47.3350  -62.8080 -112.9660 C.3   217  ASN217      0.1155
     41  CG        47.9610  -62.4200 -111.6430 C.2   217  ASN217      0.2627
     42  OD1       47.6930  -63.0260 -110.6030 O.2   217  ASN217     -0.2716
     43  ND2       48.8090  -61.4010 -111.6790 N.am  217  ASN217     -0.0877
     44  N         49.4250  -66.0740 -110.0990 N.3   219  TRP219     -0.1241
     45  CA        49.8320  -66.3360 -108.7230 C.3   219  TRP219      0.1605
     46  C         48.8820  -65.7670 -107.6790 C.2   219  TRP219      0.2264
     47  O         48.7520  -66.3540 -106.6010 O.2   219  TRP219     -0.2867
     48  CB        51.2410  -65.7790 -108.4830 C.3   219  TRP219      0.0550
     49  CG        51.3300  -64.2750 -108.5140 C.ar  219  TRP219      0.0003
     50  CD1       51.1600  -63.4220 -107.4610 C.ar  219  TRP219      0.0946
     51  CD2       51.6160  -63.4530 -109.6520 C.ar  219  TRP219      0.0152
     52  NE1       51.3210  -62.1200 -107.8740 N.ar  219  TRP219     -0.2442
     53  CE2       51.6020  -62.1120 -109.2140 C.ar  219  TRP219      0.0810
     54  CE3       51.8810  -63.7200 -110.9970 C.ar  219  TRP219      0.0012
     55  CZ2       51.8430  -61.0440 -110.0750 C.ar  219  TRP219      0.0191
     56  CZ3       52.1210  -62.6610 -111.8480 C.ar  219  TRP219      0.0001
     57  CH2       52.1000  -61.3380 -111.3860 C.ar  219  TRP219      0.0015
     58  N         43.3960  -59.6040 -106.9850 N.3   222  LEU222     -0.1245
     59  CA        43.1370  -58.2980 -106.3840 C.3   222  LEU222      0.1561
     60  C         41.6850  -57.9380 -106.6700 C.2   222  LEU222      0.2260
     61  O         41.3310  -57.6370 -107.8150 O.2   222  LEU222     -0.2867
     62  CB        44.0880  -57.2370 -106.9400 C.3   222  LEU222      0.0270
     63  CG        43.9780  -55.8210 -106.3760 C.3   222  LEU222      0.0019
     64  CD1       44.4290  -55.7860 -104.9270 C.3   222  LEU222      0.0001
     65  CD2       44.7890  -54.8490 -107.2220 C.3   222  LEU222      0.0001
     66  N         38.5550  -55.4860 -105.7260 N.3   224  THR224     -0.1218
     67  CA        38.1730  -54.2070 -105.1380 C.3   224  THR224      0.1862
     68  C         36.6550  -54.0900 -105.1180 C.2   224  THR224      0.2287
     69  O         35.9970  -54.3500 -106.1280 O.2   224  THR224     -0.2866
     70  CB        38.7820  -53.0400 -105.9180 C.3   224  THR224      0.1770
     71  OG1       40.2110  -53.1300 -105.8810 O.3   224  THR224     -0.2211
     72  CG2       38.3500  -51.7120 -105.3180 C.3   224  THR224      0.0375
     73  N         33.1910  -51.7240 -103.8640 N.3   226  ALA226     -0.1245
     74  CA        32.5940  -50.4680 -103.4310 C.3   226  ALA226      0.1562
     75  C         31.1220  -50.7070 -103.1320 C.2   226  ALA226      0.2260
     76  O         30.4110  -51.3120 -103.9400 O.2   226  ALA226     -0.2867
     77  CB        32.7510  -49.3810 -104.4960 C.3   226  ALA226      0.0290
     78  N         34.3690  -48.9060  -98.6960 N.3   260  PHE260     -0.1241
     79  CA        35.4160  -49.1960  -99.6660 C.3   260  PHE260      0.1605
     80  C         36.2810  -50.3270  -99.1320 C.2   260  PHE260      0.2264
     81  O         36.7460  -50.2700  -97.9880 O.2   260  PHE260     -0.2867
     82  CB        36.2620  -47.9520  -99.9450 C.3   260  PHE260      0.0534
     83  CG        37.3350  -48.1660 -100.9700 C.ar  260  PHE260     -0.0203
     84  CD1       37.0080  -48.3610 -102.3020 C.ar  260  PHE260     -0.0042
     85  CD2       38.6710  -48.1550 -100.6070 C.ar  260  PHE260     -0.0042
     86  CE1       37.9930  -48.5540 -103.2510 C.ar  260  PHE260     -0.0003
     87  CE2       39.6610  -48.3450 -101.5520 C.ar  260  PHE260     -0.0003
     88  CZ        39.3210  -48.5450 -102.8760 C.ar  260  PHE260     -0.0000
     89  N         39.3940  -53.3850 -100.2980 N.3   262  VAL262     -0.1245
     90  CA        40.3850  -53.8740 -101.2540 C.3   262  VAL262      0.1561
     91  C         40.9750  -55.1650 -100.7050 C.2   262  VAL262      0.2260
     92  O         41.7620  -55.1350  -99.7530 O.2   262  VAL262     -0.2867
     93  CB        41.5000  -52.8540 -101.5300 C.3   262  VAL262      0.0252
     94  CG1       42.5160  -53.4450 -102.4960 C.3   262  VAL262      0.0019
     95  CG2       40.9300  -51.5660 -102.0890 C.3   262  VAL262      0.0019
@<TRIPOS>BOND
     1     1     2    1
     2    10     8   ar
     3    10    11   ar
     4     8     6   ar
     5     4     3    2
     6    11     9   ar
     7    40    37    1
     8    40    41    1
     9    37    38    1
    10    37    36    1
    11     6     5    1
    12     6     7   ar
    13     2     5    1
    14     2     3    1
    15    35    33    1
    16    38    39    2
    17    26    25    1
    18     9     7   ar
    19    56    57   ar
    20    56    54   ar
    21    43    41   am
    22    41    42    2
    23    34    33    1
    24    57    55   ar
    25    33    32    1
    26    27    25    1
    27    32    29    1
    28    54    51   ar
    29    29    30    1
    30    29    28    1
    31    25    24    1
    32    30    31    2
    33    19    17    1
    34    44    45    1
    35    55    53   ar
    36    24    21    1
    37    51    53   ar
    38    51    49   ar
    39    21    22    1
    40    21    20    1
    41    17    16    1
    42    22    23    2
    43    53    52   ar
    44    45    48    1
    45    45    46    1
    46    49    48    1
    47    49    50   ar
    48    16    18    1
    49    16    13    1
    50    52    50   ar
    51    61    60    2
    52    46    47    2
    53    13    14    1
    54    13    12    1
    55    65    63    1
    56    58    59    1
    57    62    59    1
    58    62    63    1
    59    14    15    2
    60    60    59    1
    61    63    64    1
    62    69    68    2
    63    70    71    1
    64    70    72    1
    65    70    67    1
    66    66    67    1
    67    67    68    1
    68    77    74    1
    69    76    75    2
    70    73    74    1
    71    74    75    1
    72    86    88   ar
    73    86    84   ar
    74    88    87   ar
    75    94    93    1
    76    84    83   ar
    77    95    93    1
    78    87    85   ar
    79    93    90    1
    80    90    91    1
    81    90    89    1
    82    83    85   ar
    83    83    82    1
    84    91    92    2
    85    82    79    1
    86    79    80    1
    87    79    78    1
    88    80    81    2
