@<TRIPOS>MOLECULE
tmp/5iv8C02.pdb
 96 93 0 0 0
SMALL
GASTEIGER

@<TRIPOS>ATOM
      1  N         39.9960  -58.8780 -110.0810 N.3   215  LEU215     -0.1231
      2  CA        41.1240  -59.1130 -110.9670 C.3   215  LEU215      0.1693
      3  C         41.8880  -60.3400 -110.4910 C.2   215  LEU215      0.2593
      4  O         41.9800  -60.6040 -109.2900 O.2   215  LEU215     -0.2718
      5  CB        42.0560  -57.9000 -111.0150 C.3   215  LEU215      0.0284
      6  CG        41.3970  -56.5610 -111.3490 C.3   215  LEU215      0.0019
      7  CD1       42.4400  -55.4620 -111.4590 C.3   215  LEU215      0.0001
      8  CD2       40.5800  -56.6600 -112.6280 C.3   215  LEU215      0.0001
      9  N         42.4240  -61.0980 -111.4430 N.am  216  SER216     -0.1938
     10  CA        43.1410  -62.3200 -111.1160 C.3   216  SER216      0.2055
     11  C         44.1470  -62.6220 -112.2150 C.2   216  SER216      0.2643
     12  O         43.9720  -62.2150 -113.3660 O.2   216  SER216     -0.2714
     13  CB        42.1860  -63.5080 -110.9360 C.3   216  SER216      0.2130
     14  OG        41.3140  -63.3060 -109.8360 O.3   216  SER216     -0.2179
     15  N         45.2100  -63.3330 -111.8410 N.am  217  ASN217     -0.1971
     16  CA        46.1860  -63.8100 -112.8100 C.3   217  ASN217      0.1688
     17  C         46.7110  -65.1770 -112.3930 C.2   217  ASN217      0.2292
     18  O         45.9600  -66.0010 -111.8590 O.2   217  ASN217     -0.2864
     19  CB        47.3350  -62.8080 -112.9660 C.3   217  ASN217      0.1181
     20  CG        47.9610  -62.4200 -111.6430 C.2   217  ASN217      0.2629
     21  OD1       47.6930  -63.0260 -110.6030 O.2   217  ASN217     -0.2716
     22  ND2       48.8090  -61.4010 -111.6790 N.am  217  ASN217     -0.0877
     23  N         49.4250  -66.0740 -110.0990 N.3   219  TRP219     -0.1227
     24  CA        49.8320  -66.3360 -108.7230 C.3   219  TRP219      0.1737
     25  C         48.8820  -65.7670 -107.6790 C.2   219  TRP219      0.2596
     26  O         48.7520  -66.3540 -106.6010 O.2   219  TRP219     -0.2718
     27  CB        51.2410  -65.7790 -108.4830 C.3   219  TRP219      0.0564
     28  CG        51.3300  -64.2750 -108.5140 C.ar  219  TRP219      0.0003
     29  CD1       51.1600  -63.4220 -107.4610 C.ar  219  TRP219      0.0946
     30  CD2       51.6160  -63.4530 -109.6520 C.ar  219  TRP219      0.0152
     31  NE1       51.3210  -62.1200 -107.8740 N.ar  219  TRP219     -0.2442
     32  CE2       51.6020  -62.1120 -109.2140 C.ar  219  TRP219      0.0810
     33  CE3       51.8810  -63.7200 -110.9970 C.ar  219  TRP219      0.0012
     34  CZ2       51.8430  -61.0440 -110.0750 C.ar  219  TRP219      0.0191
     35  CZ3       52.1210  -62.6610 -111.8480 C.ar  219  TRP219      0.0001
     36  CH2       52.1000  -61.3380 -111.3860 C.ar  219  TRP219      0.0015
     37  N         48.2240  -64.6440 -107.9600 N.am  220  GLY220     -0.1942
     38  CA        47.3570  -64.0310 -106.9700 C.3   220  GLY220      0.2014
     39  C         46.0910  -63.4070 -107.5240 C.2   220  GLY220      0.2640
     40  O         45.6670  -63.7260 -108.6390 O.2   220  GLY220     -0.2714
     41  N         45.4700  -62.5230 -106.7470 N.am  221  SER221     -0.1935
     42  CA        44.2470  -61.8560 -107.1730 C.3   221  SER221      0.2055
     43  C         44.0710  -60.5750 -106.3690 C.2   221  SER221      0.2642
     44  O         44.5350  -60.4710 -105.2280 O.2   221  SER221     -0.2714
     45  CB        43.0180  -62.7600 -107.0100 C.3   221  SER221      0.2130
     46  OG        42.8670  -63.1780 -105.6660 O.3   221  SER221     -0.2179
     47  N         43.3960  -59.6040 -106.9850 N.am  222  LEU222     -0.1977
     48  CA        43.1370  -58.2980 -106.3840 C.3   222  LEU222      0.1596
     49  C         41.6850  -57.9380 -106.6700 C.2   222  LEU222      0.2287
     50  O         41.3310  -57.6370 -107.8150 O.2   222  LEU222     -0.2864
     51  CB        44.0880  -57.2370 -106.9400 C.3   222  LEU222      0.0297
     52  CG        43.9780  -55.8210 -106.3760 C.3   222  LEU222      0.0022
     53  CD1       44.4290  -55.7860 -104.9270 C.3   222  LEU222      0.0001
     54  CD2       44.7890  -54.8490 -107.2220 C.3   222  LEU222      0.0001
     55  N         43.3550  -58.5520 -101.5060 N.3   264  GLY264     -0.1210
     56  CA        44.4720  -58.9490 -102.3390 C.3   264  GLY264      0.1956
     57  C         45.1900  -60.1350 -101.7360 C.2   264  GLY264      0.2612
     58  O         45.3730  -60.1910 -100.5170 O.2   264  GLY264     -0.2717
     59  N         45.5920  -61.0980 -102.5610 N.am  265  LYS265     -0.1965
     60  CA        46.2260  -62.2960 -102.0320 C.3   265  LYS265      0.1728
     61  C         47.1660  -62.8760 -103.0750 C.2   265  LYS265      0.2616
     62  O         46.9980  -62.6620 -104.2790 O.2   265  LYS265     -0.2715
     63  CB        45.1880  -63.3430 -101.6110 C.3   265  LYS265      0.0311
     64  CG        44.2200  -63.7210 -102.7160 C.3   265  LYS265      0.0038
     65  CD        43.3860  -64.9320 -102.3370 C.3   265  LYS265      0.0206
     66  CE        42.5450  -64.6650 -101.1010 C.3   265  LYS265      0.1093
     67  NZ        41.7090  -65.8440 -100.7400 N.3   265  LYS265     -0.1314
     68  N         48.1640  -63.6150 -102.5940 N.am  266  MET266     -0.1977
     69  CA        49.1020  -64.3160 -103.4580 C.3   266  MET266      0.1605
     70  C         49.2420  -65.7580 -102.9870 C.2   266  MET266      0.2287
     71  O         48.7920  -66.1300 -101.9000 O.2   266  MET266     -0.2864
     72  CB        50.4700  -63.6230 -103.4870 C.3   266  MET266      0.0413
     73  CG        50.4270  -62.2050 -104.0250 C.3   266  MET266      0.0598
     74  SD        52.0580  -61.5780 -104.4650 S.3   266  MET266     -0.1393
     75  CE        52.9440  -61.8310 -102.9300 C.3   266  MET266      0.0692
     76  N         49.7140  -65.5210  -98.6310 N.3   282  PRO282     -0.2116
     77  CA        49.5560  -64.2330  -97.9460 C.3   282  PRO282      0.1372
     78  C         48.3410  -63.4740  -98.4590 C.2   282  PRO282      0.2244
     79  O         48.0230  -63.4940  -99.6520 O.2   282  PRO282     -0.2868
     80  CB        50.8550  -63.4850  -98.2850 C.3   282  PRO282      0.0268
     81  CG        51.7600  -64.5070  -98.9380 C.3   282  PRO282      0.0207
     82  CD        50.8460  -65.5010  -99.5690 C.3   282  PRO282      0.0892
     83  N         46.0170  -59.6950  -97.7470 N.3   284  VAL284     -0.1245
     84  CA        45.9110  -58.3510  -97.1930 C.3   284  VAL284      0.1561
     85  C         44.5960  -57.7410  -97.6640 C.2   284  VAL284      0.2260
     86  O         44.2100  -57.9090  -98.8260 O.2   284  VAL284     -0.2867
     87  CB        47.1040  -57.4690  -97.6220 C.3   284  VAL284      0.0252
     88  CG1       46.9600  -56.0580  -97.0760 C.3   284  VAL284      0.0019
     89  CG2       48.4180  -58.0890  -97.1700 C.3   284  VAL284      0.0019
     90  N         45.7400  -58.3310  -92.1510 N.3   332  THR332     -0.1218
     91  CA        46.8140  -59.0820  -92.7830 C.3   332  THR332      0.1862
     92  C         46.8710  -60.4730  -92.1740 C.2   332  THR332      0.2287
     93  O         46.6670  -60.6400  -90.9680 O.2   332  THR332     -0.2866
     94  CB        48.1700  -58.3830  -92.6180 C.3   332  THR332      0.1770
     95  OG1       48.4480  -58.1900  -91.2260 O.3   332  THR332     -0.2211
     96  CG2       48.1640  -57.0350  -93.3230 C.3   332  THR332      0.0375
@<TRIPOS>BOND
     1    12    11    2
     2    19    16    1
     3    19    20    1
     4    16    17    1
     5    16    15    1
     6     8     6    1
     7    17    18    2
     8    11    15   am
     9    11    10    1
    10    35    36   ar
    11    35    33   ar
    12    22    20   am
    13    20    21    2
    14     7     6    1
    15     9    10    1
    16     9     3   am
    17    36    34   ar
    18     6     5    1
    19    10    13    1
    20     5     2    1
    21    33    30   ar
    22     2     3    1
    23     2     1    1
    24    13    14    1
    25     3     4    2
    26    23    24    1
    27    34    32   ar
    28    30    32   ar
    29    30    28   ar
    30    32    31   ar
    31    24    27    1
    32    24    25    1
    33    40    39    2
    34    28    27    1
    35    28    29   ar
    36    37    25   am
    37    37    38    1
    38    31    29   ar
    39    50    49    2
    40    25    26    2
    41    39    38    1
    42    39    41   am
    43    54    52    1
    44    42    45    1
    45    42    41    1
    46    42    43    1
    47    45    46    1
    48    47    48    1
    49    47    43   am
    50    51    48    1
    51    51    52    1
    52    49    48    1
    53    52    53    1
    54    43    44    2
    55    74    73    1
    56    74    75    1
    57    62    61    2
    58    73    72    1
    59    72    69    1
    60    69    70    1
    61    69    68    1
    62    61    68   am
    63    61    60    1
    64    70    71    2
    65    64    65    1
    66    64    63    1
    67    59    60    1
    68    59    57   am
    69    56    57    1
    70    56    55    1
    71    65    66    1
    72    60    63    1
    73    57    58    2
    74    66    67    1
    75    79    78    2
    76    82    81    1
    77    82    76    1
    78    81    80    1
    79    86    85    2
    80    76    77    1
    81    78    77    1
    82    80    77    1
    83    83    84    1
    84    85    84    1
    85    87    84    1
    86    87    89    1
    87    87    88    1
    88    96    94    1
    89    91    94    1
    90    91    92    1
    91    91    90    1
    92    94    95    1
    93    92    93    2
