@<TRIPOS>MOLECULE
tmp/5iv9A00.pdb
 102 96 0 0 0
SMALL
GASTEIGER

@<TRIPOS>ATOM
      1  N        118.8870   48.8690   28.6780 N.3   198  ASP198     -0.1225
      2  CA       120.0390   48.1260   29.1680 C.3   198  ASP198      0.1805
      3  C        119.9750   47.9460   30.6800 C.2   198  ASP198      0.2597
      4  O        119.3320   47.0200   31.1630 O.2   198  ASP198     -0.2718
      5  CB       121.3340   48.8320   28.7690 C.3   198  ASP198      0.1424
      6  CG       121.4370   49.0500   27.2720 C.2   198  ASP198      0.3668
      7  OD1      120.9030   50.0690   26.7830 O.co2 198  ASP198     -0.2456
      8  OD2      122.0430   48.2020   26.5840 O.co2 198  ASP198     -0.2456
      9  N        120.6290   48.8370   31.4210 N.am  199  LYS199     -0.1979
     10  CA       120.7240   48.7130   32.8760 C.3   199  LYS199      0.1596
     11  C        119.3470   48.5990   33.5340 C.2   199  LYS199      0.2287
     12  O        118.3470   49.0570   32.9760 O.2   199  LYS199     -0.2864
     13  CB       121.4860   49.9030   33.4680 C.3   199  LYS199      0.0298
     14  CG       122.3740   50.6460   32.4780 C.3   199  LYS199      0.0038
     15  CD       121.8520   52.0560   32.2230 C.3   199  LYS199      0.0206
     16  CE       122.7930   52.8510   31.3280 C.3   199  LYS199      0.1093
     17  NZ       122.3290   54.2520   31.1160 N.3   199  LYS199     -0.1314
     18  N        117.2420   45.6160   34.5950 N.3   201  ARG201     -0.1245
     19  CA       116.4340   44.7430   33.7530 C.3   201  ARG201      0.1563
     20  C        115.0340   44.5220   34.3030 C.2   201  ARG201      0.2260
     21  O        114.0920   45.2280   33.9400 O.2   201  ARG201     -0.2867
     22  CB       117.1160   43.3840   33.5810 C.3   201  ARG201      0.0307
     23  CG       118.5300   43.4500   33.0470 C.3   201  ARG201      0.0489
     24  CD       118.5710   44.1670   31.7160 C.3   201  ARG201      0.2205
     25  NE       117.6440   43.5970   30.7450 N.pl3 201  ARG201     -0.0865
     26  CZ       117.9620   42.6320   29.8900 C.cat 201  ARG201      0.5346
     27  NH1      117.0560   42.1720   29.0380 N.pl3 201  ARG201      0.1354
     28  NH2      119.1880   42.1250   29.8890 N.pl3 201  ARG201      0.1354
     29  N        115.0390   37.0000   38.0140 N.3   224  TYR224     -0.1241
     30  CA       116.0240   38.0700   38.1700 C.3   224  TYR224      0.1605
     31  C        115.4350   39.3010   38.8620 C.2   224  TYR224      0.2264
     32  O        114.4150   39.8410   38.4320 O.2   224  TYR224     -0.2867
     33  CB       116.5990   38.4630   36.8050 C.3   224  TYR224      0.0534
     34  CG       117.7120   39.4910   36.8630 C.ar  224  TYR224     -0.0201
     35  CD1      118.8210   39.3000   37.6770 C.ar  224  TYR224     -0.0009
     36  CD2      117.6630   40.6420   36.0860 C.ar  224  TYR224     -0.0009
     37  CE1      119.8430   40.2330   37.7260 C.ar  224  TYR224      0.0417
     38  CE2      118.6810   41.5790   36.1280 C.ar  224  TYR224      0.0417
     39  CZ       119.7670   41.3700   36.9490 C.ar  224  TYR224      0.1957
     40  OH       120.7790   42.3000   36.9910 O.3   224  TYR224     -0.2866
     41  N        116.5620   43.0800   40.1850 N.3   226  ASN226     -0.1240
     42  CA       117.5140   44.1730   40.3260 C.3   226  ASN226      0.1653
     43  C        117.0760   45.1350   41.4210 C.2   226  ASN226      0.2266
     44  O        116.0420   45.7920   41.3030 O.2   226  ASN226     -0.2867
     45  CB       117.6810   44.9210   39.0040 C.3   226  ASN226      0.1155
     46  CG       118.7410   46.0040   39.0780 C.2   226  ASN226      0.2627
     47  OD1      118.4590   47.1430   39.4550 O.2   226  ASN226     -0.2716
     48  ND2      119.9710   45.6540   38.7180 N.am  226  ASN226     -0.0877
     49  N        121.3310   50.0140   41.2500 N.3   229  PRO229     -0.2102
     50  CA       122.4620   50.1020   40.3160 C.3   229  PRO229      0.1504
     51  C        123.8300   49.8850   40.9670 C.2   229  PRO229      0.2575
     52  O        124.7110   50.7320   40.8200 O.2   229  PRO229     -0.2718
     53  CB       122.3520   51.5300   39.7730 C.3   229  PRO229      0.0282
     54  CG       120.9090   51.8580   39.8910 C.3   229  PRO229      0.0208
     55  CD       120.4520   51.1930   41.1550 C.3   229  PRO229      0.0893
     56  N        123.9890   48.7650   41.6700 N.am  230  ASN230     -0.1975
     57  CA       125.2630   48.3600   42.2590 C.3   230  ASN230      0.1688
     58  C        125.1880   46.9280   42.7870 C.2   230  ASN230      0.2292
     59  O        126.1780   46.1980   42.7500 O.2   230  ASN230     -0.2864
     60  CB       125.6890   49.3160   43.3790 C.3   230  ASN230      0.1181
     61  CG       124.6720   49.3990   44.4950 C.2   230  ASN230      0.2629
     62  OD1      123.4860   49.1510   44.2870 O.2   230  ASN230     -0.2716
     63  ND2      125.1310   49.7540   45.6900 N.am  230  ASN230     -0.0877
     64  N        122.3860   43.2950   43.0280 N.3   232  ASP232     -0.1239
     65  CA       121.1510   42.6430   42.6080 C.3   232  ASP232      0.1674
     66  C        121.1620   41.1540   42.9450 C.2   232  ASP232      0.2266
     67  O        122.2050   40.5900   43.2780 O.2   232  ASP232     -0.2867
     68  CB       120.9300   42.8420   41.1070 C.3   232  ASP232      0.1410
     69  CG       122.1740   42.5460   40.2880 C.2   232  ASP232      0.3668
     70  OD1      122.9990   41.7160   40.7260 O.co2 232  ASP232     -0.2456
     71  OD2      122.3290   43.1460   39.2040 O.co2 232  ASP232     -0.2456
     72  N        124.8790   39.4620   43.4220 N.3   253  ARG253     -0.1245
     73  CA       126.0430   40.2900   43.1230 C.3   253  ARG253      0.1563
     74  C        125.9630   41.6100   43.8750 C.2   253  ARG253      0.2260
     75  O        124.8860   42.1850   44.0040 O.2   253  ARG253     -0.2867
     76  CB       126.1570   40.5490   41.6180 C.3   253  ARG253      0.0307
     77  CG       126.3370   39.2980   40.7720 C.3   253  ARG253      0.0489
     78  CD       126.6440   39.6550   39.3240 C.3   253  ARG253      0.2205
     79  NE       125.6360   40.5470   38.7570 N.pl3 253  ARG253     -0.0865
     80  CZ       125.7120   41.0920   37.5470 C.cat 253  ARG253      0.5346
     81  NH1      126.7530   40.8390   36.7650 N.pl3 253  ARG253      0.1354
     82  NH2      124.7460   41.8930   37.1170 N.pl3 253  ARG253      0.1354
     83  N        128.3540   45.4650   44.8590 N.3   255  LEU255     -0.1245
     84  CA       129.4840   46.3410   44.5780 C.3   255  LEU255      0.1561
     85  C        129.4420   47.5590   45.4990 C.2   255  LEU255      0.2260
     86  O        128.5860   48.4290   45.3470 O.2   255  LEU255     -0.2867
     87  CB       129.4720   46.7690   43.1050 C.3   255  LEU255      0.0270
     88  CG       130.5990   47.6460   42.5450 C.3   255  LEU255      0.0019
     89  CD1      130.2660   49.1330   42.6430 C.3   255  LEU255      0.0001
     90  CD2      131.9280   47.3440   43.2290 C.3   255  LEU255      0.0001
     91  N        125.2830   41.0730   21.2160 N.3   739  TYR739     -0.1241
     92  CA       125.3630   39.6560   21.5590 C.3   739  TYR739      0.1605
     93  C        125.3710   38.7540   20.3310 C.2   739  TYR739      0.2264
     94  O        125.8470   39.1340   19.2610 O.2   739  TYR739     -0.2867
     95  CB       124.2020   39.2490   22.4710 C.3   739  TYR739      0.0534
     96  CG       124.1850   39.9500   23.8080 C.ar  739  TYR739     -0.0201
     97  CD1      123.4440   41.1050   23.9910 C.ar  739  TYR739     -0.0009
     98  CD2      124.9020   39.4540   24.8900 C.ar  739  TYR739     -0.0009
     99  CE1      123.4190   41.7570   25.2090 C.ar  739  TYR739      0.0417
    100  CE2      124.8830   40.0990   26.1170 C.ar  739  TYR739      0.0417
    101  CZ       124.1380   41.2520   26.2680 C.ar  739  TYR739      0.1957
    102  OH       124.1080   41.9050   27.4790 O.3   739  TYR739     -0.2866
@<TRIPOS>BOND
     1    94    93    2
     2    93    92    1
     3    91    92    1
     4    92    95    1
     5    95    96    1
     6    96    97   ar
     7    96    98   ar
     8    97    99   ar
     9    98   100   ar
    10    99   101   ar
    11   100   101   ar
    12   101   102    1
    13     8     6   ar
    14     7     6   ar
    15     6     5    1
    16     1     2    1
    17     5     2    1
    18    27    26    1
    19     2     3    1
    20    28    26    1
    21    26    25    2
    22     3     4    2
    23     3     9   am
    24    25    24    1
    25    17    16    1
    26    16    15    1
    27     9    10    1
    28    24    23    1
    29    15    14    1
    30    14    13    1
    31    10    13    1
    32    10    11    1
    33    12    11    2
    34    23    22    1
    35    22    19    1
    36    19    20    1
    37    19    18    1
    38    21    20    2
    39    36    38   ar
    40    36    34   ar
    41    38    39   ar
    42    81    80    1
    43    33    34    1
    44    33    30    1
    45    34    35   ar
    46    39    40    1
    47    39    37   ar
    48    82    80    1
    49    80    79    2
    50    35    37   ar
    51    29    30    1
    52    30    31    1
    53    32    31    2
    54    48    46   am
    55    79    78    1
    56    45    46    1
    57    45    42    1
    58    46    47    2
    59    71    69   ar
    60    78    77    1
    61    53    54    1
    62    53    50    1
    63    54    55    1
    64    41    42    1
    65    69    70   ar
    66    69    68    1
    67    50    51    1
    68    50    49    1
    69    42    43    1
    70    77    76    1
    71    52    51    2
    72    51    56   am
    73    68    65    1
    74    55    49    1
    75    44    43    2
    76    76    73    1
    77    56    57    1
    78    57    58    1
    79    57    60    1
    80    88    89    1
    81    88    87    1
    82    88    90    1
    83    65    66    1
    84    65    64    1
    85    59    58    2
    86    66    67    2
    87    87    84    1
    88    73    72    1
    89    73    74    1
    90    60    61    1
    91    74    75    2
    92    62    61    2
    93    61    63   am
    94    84    83    1
    95    84    85    1
    96    86    85    2
