@<TRIPOS>MOLECULE
tmp/5ivaA03.pdb
 111 110 0 0 0
SMALL
GASTEIGER

@<TRIPOS>ATOM
      1  N         29.0770   39.7130   58.9730 N.3   519  ALA519     -0.1231
      2  CA        30.2530   38.9240   58.6130 C.3   519  ALA519      0.1694
      3  C         31.3990   39.0790   59.6070 C.2   519  ALA519      0.2592
      4  O         31.4880   40.0770   60.3230 O.2   519  ALA519     -0.2718
      5  CB        30.7230   39.2960   57.2140 C.3   519  ALA519      0.0304
      6  N         32.2750   38.0780   59.6360 N.am  520  ARG520     -0.1966
      7  CA        33.4600   38.0970   60.4860 C.3   520  ARG520      0.1729
      8  C         34.4970   37.0960   59.9870 C.2   520  ARG520      0.2616
      9  O         34.1480   36.0200   59.5070 O.2   520  ARG520     -0.2715
     10  CB        33.0900   37.7950   61.9390 C.3   520  ARG520      0.0348
     11  CG        34.2740   37.7600   62.8940 C.3   520  ARG520      0.0492
     12  CD        33.8360   37.5640   64.3320 C.3   520  ARG520      0.2205
     13  NE        34.9640   37.6450   65.2540 N.pl3 520  ARG520     -0.0865
     14  CZ        34.8550   37.5750   66.5760 C.cat 520  ARG520      0.5346
     15  NH1       33.6630   37.4220   67.1350 N.pl3 520  ARG520      0.1354
     16  NH2       35.9360   37.6590   67.3390 N.pl3 520  ARG520      0.1354
     17  N         35.7720   37.4560   60.1000 N.am  521  TRP521     -0.1974
     18  CA        36.8510   36.5860   59.6510 C.3   521  TRP521      0.1640
     19  C         38.0980   36.7350   60.5180 C.2   521  TRP521      0.2290
     20  O         38.7490   37.7790   60.5100 O.2   521  TRP521     -0.2864
     21  CB        37.1990   36.8820   58.1910 C.3   521  TRP521      0.0576
     22  CG        38.2390   35.9670   57.6200 C.ar  521  TRP521      0.0006
     23  CD1       38.4990   34.6810   57.9960 C.ar  521  TRP521      0.0946
     24  CD2       39.1670   36.2720   56.5720 C.ar  521  TRP521      0.0152
     25  NE1       39.5260   34.1660   57.2440 N.ar  521  TRP521     -0.2442
     26  CE2       39.9530   35.1230   56.3640 C.ar  521  TRP521      0.0810
     27  CE3       39.4050   37.4050   55.7900 C.ar  521  TRP521      0.0012
     28  CZ2       40.9620   35.0750   55.4050 C.ar  521  TRP521      0.0191
     29  CZ3       40.4060   37.3550   54.8400 C.ar  521  TRP521      0.0001
     30  CH2       41.1730   36.1990   54.6560 C.ar  521  TRP521      0.0015
     31  N         41.8970   35.2000   61.2100 N.3   523  TYR523     -0.1241
     32  CA        42.9020   34.4390   60.4810 C.3   523  TYR523      0.1605
     33  C         44.2810   34.5260   61.1220 C.2   523  TYR523      0.2264
     34  O         44.7590   35.6110   61.4540 O.2   523  TYR523     -0.2867
     35  CB        42.9660   34.9230   59.0340 C.3   523  TYR523      0.0534
     36  CG        43.9200   34.1590   58.1500 C.ar  523  TYR523     -0.0201
     37  CD1       43.5910   32.8990   57.6710 C.ar  523  TYR523     -0.0009
     38  CD2       45.1400   34.7050   57.7750 C.ar  523  TYR523     -0.0009
     39  CE1       44.4550   32.1980   56.8560 C.ar  523  TYR523      0.0417
     40  CE2       46.0100   34.0130   56.9590 C.ar  523  TYR523      0.0417
     41  CZ        45.6630   32.7600   56.5030 C.ar  523  TYR523      0.1957
     42  OH        46.5260   32.0680   55.6880 O.3   523  TYR523     -0.2866
     43  N         48.9060   29.9680   58.8290 N.3   528  ASN528     -0.1225
     44  CA        48.1910   30.2470   57.5880 C.3   528  ASN528      0.1785
     45  C         46.8380   29.5450   57.6080 C.2   528  ASN528      0.2597
     46  O         46.4680   28.8460   56.6650 O.2   528  ASN528     -0.2718
     47  CB        49.0100   29.8240   56.3650 C.3   528  ASN528      0.1169
     48  CG        50.1320   30.7960   56.0530 C.2   528  ASN528      0.2627
     49  OD1       49.9200   31.8150   55.3950 O.2   528  ASN528     -0.2716
     50  ND2       51.3340   30.4850   56.5260 N.am  528  ASN528     -0.0877
     51  N         46.1100   29.7420   58.7030 N.am  529  ARG529     -0.1966
     52  CA        44.8810   29.0050   58.9720 C.3   529  ARG529      0.1729
     53  C         43.7720   29.9290   59.4710 C.2   529  ARG529      0.2616
     54  O         44.0160   30.8110   60.2900 O.2   529  ARG529     -0.2715
     55  CB        45.1520   27.9010   59.9990 C.3   529  ARG529      0.0348
     56  CG        44.0200   27.6560   60.9820 C.3   529  ARG529      0.0492
     57  CD        44.5480   27.1990   62.3350 C.3   529  ARG529      0.2205
     58  NE        45.2350   25.9130   62.2560 N.pl3 529  ARG529     -0.0865
     59  CZ        45.7510   25.2770   63.3030 C.cat 529  ARG529      0.5346
     60  NH1       45.6580   25.8050   64.5160 N.pl3 529  ARG529      0.1354
     61  NH2       46.3580   24.1100   63.1380 N.pl3 529  ARG529      0.1354
     62  N         42.5560   29.7210   58.9790 N.am  530  THR530     -0.1951
     63  CA        41.4110   30.5200   59.4030 C.3   530  THR530      0.1897
     64  C         40.7940   29.9680   60.6850 C.2   530  THR530      0.2313
     65  O         40.4140   28.8010   60.7420 O.2   530  THR530     -0.2863
     66  CB        40.3300   30.5800   58.3060 C.3   530  THR530      0.1794
     67  OG1       40.8280   31.3160   57.1830 O.3   530  THR530     -0.2208
     68  CG2       39.0730   31.2570   58.8270 C.3   530  THR530      0.0378
     69  N         35.1230   32.1220   60.4600 N.3   533  ALA533     -0.1231
     70  CA        34.6000   32.8710   59.3280 C.3   533  ALA533      0.1694
     71  C         33.1180   32.5750   59.1410 C.2   533  ALA533      0.2592
     72  O         32.7420   31.4560   58.7840 O.2   533  ALA533     -0.2718
     73  CB        35.3740   32.5370   58.0640 C.3   533  ALA533      0.0304
     74  N         32.2740   33.5690   59.4000 N.am  534  PHE534     -0.1962
     75  CA        30.8470   33.4130   59.1520 C.3   534  PHE534      0.1771
     76  C         30.2630   34.5990   58.3980 C.2   534  PHE534      0.2620
     77  O         30.7860   35.7100   58.4630 O.2   534  PHE534     -0.2715
     78  CB        30.0780   33.1850   60.4630 C.3   534  PHE534      0.0574
     79  CG        30.1030   34.3500   61.4180 C.ar  534  PHE534     -0.0200
     80  CD1       29.1730   35.3720   61.3160 C.ar  534  PHE534     -0.0042
     81  CD2       31.0260   34.3940   62.4490 C.ar  534  PHE534     -0.0042
     82  CE1       29.1850   36.4320   62.2030 C.ar  534  PHE534     -0.0003
     83  CE2       31.0400   35.4480   63.3420 C.ar  534  PHE534     -0.0003
     84  CZ        30.1180   36.4690   63.2170 C.ar  534  PHE534     -0.0000
     85  N         29.1740   34.3470   57.6800 N.am  535  GLY535     -0.1954
     86  CA        28.4980   35.3850   56.9230 C.3   535  GLY535      0.1869
     87  C         27.0370   35.0510   56.6940 C.2   535  GLY535      0.2309
     88  O         26.6810   33.8860   56.5430 O.2   535  GLY535     -0.2863
     89  N         31.8600   28.9110   59.9020 N.3   552  TYR552     -0.1241
     90  CA        32.9510   27.9430   59.9750 C.3   552  TYR552      0.1605
     91  C         33.8850   28.3250   61.1150 C.2   552  TYR552      0.2264
     92  O         34.3290   29.4640   61.1910 O.2   552  TYR552     -0.2867
     93  CB        33.7160   27.8870   58.6490 C.3   552  TYR552      0.0534
     94  CG        35.0650   27.2010   58.7300 C.ar  552  TYR552     -0.0201
     95  CD1       35.1730   25.8220   58.6090 C.ar  552  TYR552     -0.0009
     96  CD2       36.2320   27.9340   58.9160 C.ar  552  TYR552     -0.0009
     97  CE1       36.4020   25.1920   58.6780 C.ar  552  TYR552      0.0417
     98  CE2       37.4640   27.3120   58.9890 C.ar  552  TYR552      0.0417
     99  CZ        37.5430   25.9410   58.8680 C.ar  552  TYR552      0.1957
    100  OH        38.7670   25.3170   58.9380 O.3   552  TYR552     -0.2866
    101  N         31.7100   23.2910   60.1940 N.3   570  ARG570     -0.1245
    102  CA        30.8840   24.2100   59.4210 C.3   570  ARG570      0.1563
    103  C         29.4090   23.9320   59.6820 C.2   570  ARG570      0.2260
    104  O         29.0060   22.7770   59.7880 O.2   570  ARG570     -0.2867
    105  CB        31.1720   24.0770   57.9260 C.3   570  ARG570      0.0307
    106  CG        32.5790   23.6260   57.5800 C.3   570  ARG570      0.0489
    107  CD        32.6300   23.1140   56.1480 C.3   570  ARG570      0.2205
    108  NE        33.9870   22.8020   55.7120 N.pl3 570  ARG570     -0.0865
    109  CZ        34.7710   23.6480   55.0520 C.cat 570  ARG570      0.5346
    110  NH1       34.3320   24.8630   54.7530 N.pl3 570  ARG570      0.1354
    111  NH2       35.9930   23.2800   54.6900 N.pl3 570  ARG570      0.1354
@<TRIPOS>BOND
     1    30    29   ar
     2    30    28   ar
     3   111   109    1
     4   110   109    1
     5    29    27   ar
     6   109   108    2
     7    49    48    2
     8    28    26   ar
     9    42    41    1
    10   108   107    1
    11    27    24   ar
    12    48    47    1
    13    48    50   am
    14   107   106    1
    15    26    24   ar
    16    26    25   ar
    17    47    44    1
    18    41    39   ar
    19    41    40   ar
    20    88    87    2
    21    24    22   ar
    22    46    45    2
    23    87    86    1
    24    39    37   ar
    25    86    85    1
    26    40    38   ar
    27    67    66    1
    28     5     2    1
    29    25    23   ar
    30   106   105    1
    31    44    45    1
    32    44    43    1
    33    45    51   am
    34    22    23   ar
    35    22    21    1
    36    37    36   ar
    37    85    76   am
    38    38    36   ar
    39   105   102    1
    40    73    70    1
    41    36    35    1
    42    21    18    1
    43    66    68    1
    44    66    63    1
    45    76    77    2
    46    76    75    1
    47    95    97   ar
    48    95    94   ar
    49     2     1    1
    50     2     3    1
    51    93    94    1
    52    93    90    1
    53    97    99   ar
    54    51    52    1
    55    94    96   ar
    56    72    71    2
    57    99   100    1
    58    99    98   ar
    59    96    98   ar
    60    52    53    1
    61    52    55    1
    62    62    63    1
    63    62    53   am
    64    35    32    1
    65    71    70    1
    66    71    74   am
    67    75    74    1
    68    75    78    1
    69    70    69    1
    70    63    64    1
    71   102   103    1
    72   102   101    1
    73    53    54    2
    74     9     8    2
    75     3     6   am
    76     3     4    2
    77     6     7    1
    78    18    17    1
    79    18    19    1
    80   103   104    2
    81    89    90    1
    82    90    91    1
    83     8    17   am
    84     8     7    1
    85    55    56    1
    86    78    79    1
    87    32    33    1
    88    32    31    1
    89     7    10    1
    90    20    19    2
    91    64    65    2
    92    56    57    1
    93    91    92    2
    94    33    34    2
    95    80    79   ar
    96    80    82   ar
    97    79    81   ar
    98    10    11    1
    99    82    84   ar
   100    58    57    1
   101    58    59    2
   102    81    83   ar
   103    11    12    1
   104    61    59    1
   105    84    83   ar
   106    59    60    1
   107    12    13    1
   108    13    14    2
   109    14    15    1
   110    14    16    1
