@<TRIPOS>MOLECULE
tmp/5ivaA01.pdb
 121 116 0 0 0
SMALL
GASTEIGER

@<TRIPOS>ATOM
      1  N         22.2190   23.6260   62.3410 N.3    16  SER16      -0.1217
      2  CA        22.6480   22.3940   61.6840 C.3    16  SER16       0.1889
      3  C         24.1390   22.4640   61.3790 C.2    16  SER16       0.2288
      4  O         24.5470   23.0630   60.3880 O.2    16  SER16      -0.2866
      5  CB        21.8550   22.1480   60.3990 C.3    16  SER16       0.2089
      6  OG        22.1810   23.1030   59.4050 O.3    16  SER16      -0.2183
      7  N         26.3020   19.8470   61.0010 N.3    18  SER18      -0.1217
      8  CA        26.8290   18.6430   60.3460 C.3    18  SER18       0.1889
      9  C         27.8000   17.8540   61.2310 C.2    18  SER18       0.2288
     10  O         28.4540   16.9190   60.7690 O.2    18  SER18      -0.2866
     11  CB        27.5120   19.0080   59.0220 C.3    18  SER18       0.2089
     12  OG        28.6870   19.7730   59.2370 O.3    18  SER18      -0.2183
     13  N         23.7810   42.8630   56.1270 N.3   517  VAL517     -0.1245
     14  CA        24.7670   41.7920   56.0440 C.3   517  VAL517      0.1561
     15  C         25.6180   41.7300   57.3130 C.2   517  VAL517      0.2260
     16  O         26.0260   42.7610   57.8580 O.2   517  VAL517     -0.2867
     17  CB        25.6860   41.9630   54.8040 C.3   517  VAL517      0.0252
     18  CG1       26.4360   43.2870   54.8550 C.3   517  VAL517      0.0019
     19  CG2       26.6560   40.7960   54.6820 C.3   517  VAL517      0.0019
     20  N         29.0770   39.7130   58.9730 N.3   519  ALA519     -0.1245
     21  CA        30.2530   38.9240   58.6130 C.3   519  ALA519      0.1562
     22  C         31.3990   39.0790   59.6070 C.2   519  ALA519      0.2260
     23  O         31.4880   40.0770   60.3230 O.2   519  ALA519     -0.2867
     24  CB        30.7230   39.2960   57.2140 C.3   519  ALA519      0.0290
     25  N         35.1230   32.1220   60.4600 N.3   533  ALA533     -0.1231
     26  CA        34.6000   32.8710   59.3280 C.3   533  ALA533      0.1694
     27  C         33.1180   32.5750   59.1410 C.2   533  ALA533      0.2592
     28  O         32.7420   31.4560   58.7840 O.2   533  ALA533     -0.2718
     29  CB        35.3740   32.5370   58.0640 C.3   533  ALA533      0.0304
     30  N         32.2740   33.5690   59.4000 N.am  534  PHE534     -0.1962
     31  CA        30.8470   33.4130   59.1520 C.3   534  PHE534      0.1771
     32  C         30.2630   34.5990   58.3980 C.2   534  PHE534      0.2620
     33  O         30.7860   35.7100   58.4630 O.2   534  PHE534     -0.2715
     34  CB        30.0780   33.1850   60.4630 C.3   534  PHE534      0.0574
     35  CG        30.1030   34.3500   61.4180 C.ar  534  PHE534     -0.0200
     36  CD1       29.1730   35.3720   61.3160 C.ar  534  PHE534     -0.0042
     37  CD2       31.0260   34.3940   62.4490 C.ar  534  PHE534     -0.0042
     38  CE1       29.1850   36.4320   62.2030 C.ar  534  PHE534     -0.0003
     39  CE2       31.0400   35.4480   63.3420 C.ar  534  PHE534     -0.0003
     40  CZ        30.1180   36.4690   63.2170 C.ar  534  PHE534     -0.0000
     41  N         29.1740   34.3470   57.6800 N.am  535  GLY535     -0.1940
     42  CA        28.4980   35.3850   56.9230 C.3   535  GLY535      0.2014
     43  C         27.0370   35.0510   56.6940 C.2   535  GLY535      0.2639
     44  O         26.6810   33.8860   56.5430 O.2   535  GLY535     -0.2714
     45  N         26.1880   36.0730   56.6690 N.am  536  GLY536     -0.1939
     46  CA        24.7650   35.8600   56.4720 C.3   536  GLY536      0.2014
     47  C         23.9540   37.1360   56.3700 C.2   536  GLY536      0.2638
     48  O         24.4820   38.1950   56.0330 O.2   536  GLY536     -0.2714
     49  N         22.6620   37.0330   56.6640 N.am  537  PHE537     -0.1973
     50  CA        21.7650   38.1770   56.5590 C.3   537  PHE537      0.1639
     51  C         20.8750   38.3420   57.7870 C.2   537  PHE537      0.2290
     52  O         20.5810   37.3750   58.5040 O.2   537  PHE537     -0.2864
     53  CB        20.8860   38.0580   55.3110 C.3   537  PHE537      0.0560
     54  CG        21.6560   38.0170   54.0240 C.ar  537  PHE537     -0.0200
     55  CD1       22.0510   39.1870   53.3980 C.ar  537  PHE537     -0.0042
     56  CD2       21.9760   36.8070   53.4340 C.ar  537  PHE537     -0.0042
     57  CE1       22.7570   39.1500   52.2120 C.ar  537  PHE537     -0.0003
     58  CE2       22.6810   36.7630   52.2490 C.ar  537  PHE537     -0.0003
     59  CZ        23.0720   37.9360   51.6370 C.ar  537  PHE537     -0.0000
     60  N         20.1220   34.8290   59.9180 N.3   548  LEU548     -0.1245
     61  CA        20.6150   33.5600   59.3910 C.3   548  LEU548      0.1561
     62  C         22.0650   33.6820   58.9430 C.2   548  LEU548      0.2260
     63  O         22.3980   34.5560   58.1460 O.2   548  LEU548     -0.2867
     64  CB        19.7410   33.0830   58.2290 C.3   548  LEU548      0.0270
     65  CG        20.1160   31.7500   57.5770 C.3   548  LEU548      0.0019
     66  CD1       18.8650   30.9410   57.2890 C.3   548  LEU548      0.0001
     67  CD2       20.9100   31.9670   56.2970 C.3   548  LEU548      0.0001
     68  N         25.8690   31.4420   57.8450 N.3   550  ASN550     -0.1225
     69  CA        26.6920   30.2670   57.5930 C.3   550  ASN550      0.1785
     70  C         28.0300   30.4730   58.2860 C.2   550  ASN550      0.2597
     71  O         28.6920   31.4860   58.0680 O.2   550  ASN550     -0.2718
     72  CB        26.8820   30.0390   56.0920 C.3   550  ASN550      0.1169
     73  CG        27.4240   28.6560   55.7720 C.2   550  ASN550      0.2627
     74  OD1       28.0830   28.0250   56.5970 O.2   550  ASN550     -0.2716
     75  ND2       27.1440   28.1800   54.5640 N.am  550  ASN550     -0.0877
     76  N         28.4230   29.5150   59.1200 N.am  551  ARG551     -0.1966
     77  CA        29.5710   29.6960   60.0010 C.3   551  ARG551      0.1729
     78  C         30.5800   28.5520   59.9340 C.2   551  ARG551      0.2616
     79  O         30.2070   27.3820   59.9100 O.2   551  ARG551     -0.2715
     80  CB        29.0850   29.8730   61.4430 C.3   551  ARG551      0.0348
     81  CG        30.1880   29.8850   62.4860 C.3   551  ARG551      0.0492
     82  CD        29.6080   29.9800   63.8860 C.3   551  ARG551      0.2205
     83  NE        30.5520   29.5210   64.9000 N.pl3 551  ARG551     -0.0865
     84  CZ        31.2780   30.3260   65.6670 C.cat 551  ARG551      0.5346
     85  NH1       31.1640   31.6410   65.5460 N.pl3 551  ARG551      0.1354
     86  NH2       32.1130   29.8160   66.5610 N.pl3 551  ARG551      0.1354
     87  N         31.8600   28.9110   59.9020 N.am  552  TYR552     -0.1974
     88  CA        32.9510   27.9430   59.9750 C.3   552  TYR552      0.1639
     89  C         33.8850   28.3250   61.1150 C.2   552  TYR552      0.2290
     90  O         34.3290   29.4640   61.1910 O.2   552  TYR552     -0.2864
     91  CB        33.7160   27.8870   58.6490 C.3   552  TYR552      0.0560
     92  CG        35.0650   27.2010   58.7300 C.ar  552  TYR552     -0.0198
     93  CD1       35.1730   25.8220   58.6090 C.ar  552  TYR552     -0.0009
     94  CD2       36.2320   27.9340   58.9160 C.ar  552  TYR552     -0.0009
     95  CE1       36.4020   25.1920   58.6780 C.ar  552  TYR552      0.0417
     96  CE2       37.4640   27.3120   58.9890 C.ar  552  TYR552      0.0417
     97  CZ        37.5430   25.9410   58.8680 C.ar  552  TYR552      0.1957
     98  OH        38.7670   25.3170   58.9380 O.3   552  TYR552     -0.2866
     99  N         31.7100   23.2910   60.1940 N.3   570  ARG570     -0.1231
    100  CA        30.8840   24.2100   59.4210 C.3   570  ARG570      0.1698
    101  C         29.4090   23.9320   59.6820 C.2   570  ARG570      0.2632
    102  O         29.0060   22.7770   59.7880 O.2   570  ARG570     -0.2714
    103  CB        31.1720   24.0770   57.9260 C.3   570  ARG570      0.0321
    104  CG        32.5790   23.6260   57.5800 C.3   570  ARG570      0.0489
    105  CD        32.6300   23.1140   56.1480 C.3   570  ARG570      0.2205
    106  NE        33.9870   22.8020   55.7120 N.pl3 570  ARG570     -0.0865
    107  CZ        34.7710   23.6480   55.0520 C.cat 570  ARG570      0.5346
    108  NH1       34.3320   24.8630   54.7530 N.pl3 570  ARG570      0.1354
    109  NH2       35.9930   23.2800   54.6900 N.pl3 570  ARG570      0.1354
    110  N         28.6010   24.9830   59.7700 N.am  571  GLY571     -0.1718
    111  CA        27.1800   24.8100   60.0050 C.2   571  GLY571      0.1480
    112  C         26.3270   26.0320   59.7230 C.2   571  GLY571      0.2820
    113  O         26.8400   27.1330   59.5370 O.2   571  GLY571     -0.2669
    114  N         25.0140   25.8230   59.6880 N.am  572  ILE572     -0.1943
    115  CA        24.0480   26.9000   59.5000 C.3   572  ILE572      0.1599
    116  C         23.3610   27.2370   60.8190 C.2   572  ILE572      0.2287
    117  O         22.9010   26.3450   61.5340 O.2   572  ILE572     -0.2864
    118  CB        22.9730   26.5250   58.4560 C.3   572  ILE572      0.0276
    119  CG1       23.6200   26.1780   57.1140 C.3   572  ILE572      0.0022
    120  CG2       21.9680   27.6570   58.2830 C.3   572  ILE572      0.0022
    121  CD1       24.2980   27.3480   56.4450 C.3   572  ILE572      0.0001
@<TRIPOS>BOND
     1    59    57   ar
     2    59    58   ar
     3    57    55   ar
     4    58    56   ar
     5    55    54   ar
     6    56    54   ar
     7    54    53    1
     8    75    73   am
     9    19    17    1
    10   109   107    1
    11   108   107    1
    12    17    18    1
    13    17    14    1
    14   107   106    2
    15    53    50    1
    16   106   105    1
    17    73    72    1
    18    73    74    2
    19    48    47    2
    20    14    13    1
    21    14    15    1
    22    72    69    1
    23   105   104    1
    24    67    65    1
    25    47    46    1
    26    47    49   am
    27   121   119    1
    28    46    45    1
    29    44    43    2
    30    50    49    1
    31    50    51    1
    32    45    43   am
    33    43    42    1
    34    42    41    1
    35   119   118    1
    36    24    21    1
    37    66    65    1
    38    15    16    2
    39    65    64    1
    40   104   103    1
    41    69    68    1
    42    69    70    1
    43    41    32   am
    44    51    52    2
    45   103   100    1
    46    29    26    1
    47    71    70    2
    48    63    62    2
    49    64    61    1
    50   120   118    1
    51    70    76   am
    52    32    33    2
    53    32    31    1
    54   118   115    1
    55    93    95   ar
    56    93    92   ar
    57    21    20    1
    58    21    22    1
    59    91    92    1
    60    91    88    1
    61    95    97   ar
    62    92    94   ar
    63    28    27    2
    64    97    98    1
    65    97    96   ar
    66    94    96   ar
    67    62    61    1
    68    11    12    1
    69    11     8    1
    70    76    77    1
    71    27    26    1
    72    27    30   am
    73    31    30    1
    74    31    34    1
    75    26    25    1
    76    61    60    1
    77     6     5    1
    78   100   101    1
    79   100    99    1
    80   115   114    1
    81   115   116    1
    82   113   112    2
    83    22    23    2
    84   101   110    1
    85   101   102    2
    86   114   112   am
    87   112   111    1
    88   110   111    2
    89    87    78   am
    90    87    88    1
    91    79    78    2
    92    78    77    1
    93    88    89    1
    94    77    80    1
    95     8     7    1
    96     8     9    1
    97     4     3    2
    98     5     2    1
    99    34    35    1
   100    10     9    2
   101   116   117    2
   102    89    90    2
   103    36    35   ar
   104    36    38   ar
   105     3     2    1
   106    35    37   ar
   107    80    81    1
   108     2     1    1
   109    38    40   ar
   110    37    39   ar
   111    81    82    1
   112    40    39   ar
   113    82    83    1
   114    83    84    2
   115    85    84    1
   116    84    86    1
