@<TRIPOS>MOLECULE
tmp/5ivaA00.pdb
 109 107 0 0 0
SMALL
GASTEIGER

@<TRIPOS>ATOM
      1  N         44.4970   43.9770   63.9430 N.3   475  TYR475     -0.1241
      2  CA        45.7340   43.2640   63.6390 C.3   475  TYR475      0.1605
      3  C         46.5640   43.0900   64.9040 C.2   475  TYR475      0.2264
      4  O         46.8270   44.0580   65.6120 O.2   475  TYR475     -0.2867
      5  CB        46.5470   44.0060   62.5770 C.3   475  TYR475      0.0534
      6  CG        46.0330   43.8330   61.1660 C.ar  475  TYR475     -0.0201
      7  CD1       46.4540   42.7680   60.3820 C.ar  475  TYR475     -0.0009
      8  CD2       45.1360   44.7390   60.6150 C.ar  475  TYR475     -0.0009
      9  CE1       45.9910   42.6040   59.0900 C.ar  475  TYR475      0.0417
     10  CE2       44.6670   44.5840   59.3230 C.ar  475  TYR475      0.0417
     11  CZ        45.0990   43.5150   58.5660 C.ar  475  TYR475      0.1957
     12  OH        44.6370   43.3530   57.2800 O.3   475  TYR475     -0.2866
     13  N         44.6500   38.4140   62.2640 N.3   503  HIS503     -0.1241
     14  CA        43.7600   39.5260   61.9650 C.3   503  HIS503      0.1621
     15  C         42.3170   39.1410   62.2600 C.2   503  HIS503      0.2264
     16  O         41.9200   37.9860   62.0880 O.2   503  HIS503     -0.2867
     17  CB        43.9120   39.9900   60.5110 C.3   503  HIS503      0.0745
     18  CG        43.1410   39.1680   59.5190 C.ar  503  HIS503      0.0817
     19  ND1       41.7760   39.2610   59.3750 N.ar  503  HIS503     -0.2268
     20  CD2       43.5570   38.2620   58.6070 C.ar  503  HIS503      0.1154
     21  CE1       41.3760   38.4330   58.4290 C.ar  503  HIS503      0.1986
     22  NE2       42.4400   37.8160   57.9390 N.ar  503  HIS503     -0.2212
     23  N         38.4860   40.5510   61.3450 N.3   505  PHE505     -0.1241
     24  CA        37.5830   41.4540   60.6430 C.3   505  PHE505      0.1605
     25  C         36.1490   41.1810   61.0720 C.2   505  PHE505      0.2264
     26  O         35.7970   40.0500   61.3910 O.2   505  PHE505     -0.2867
     27  CB        37.7230   41.3010   59.1260 C.3   505  PHE505      0.0534
     28  CG        39.1040   41.5870   58.6080 C.ar  505  PHE505     -0.0203
     29  CD1       39.9820   42.3770   59.3290 C.ar  505  PHE505     -0.0042
     30  CD2       39.5210   41.0680   57.3950 C.ar  505  PHE505     -0.0042
     31  CE1       41.2500   42.6380   58.8550 C.ar  505  PHE505     -0.0003
     32  CE2       40.7880   41.3270   56.9130 C.ar  505  PHE505     -0.0003
     33  CZ        41.6540   42.1130   57.6440 C.ar  505  PHE505     -0.0000
     34  N         31.8900   42.9520   60.4270 N.3   507  VAL507     -0.1245
     35  CA        31.0740   43.9760   59.7900 C.3   507  VAL507      0.1561
     36  C         29.5750   43.6780   59.8450 C.2   507  VAL507      0.2260
     37  O         29.1380   42.5420   59.6470 O.2   507  VAL507     -0.2867
     38  CB        31.5000   44.1820   58.3090 C.3   507  VAL507      0.0252
     39  CG1       31.3190   42.9040   57.5010 C.3   507  VAL507      0.0019
     40  CG2       30.7380   45.3380   57.6790 C.3   507  VAL507      0.0019
     41  N         29.0770   39.7130   58.9730 N.3   519  ALA519     -0.1231
     42  CA        30.2530   38.9240   58.6130 C.3   519  ALA519      0.1694
     43  C         31.3990   39.0790   59.6070 C.2   519  ALA519      0.2592
     44  O         31.4880   40.0770   60.3230 O.2   519  ALA519     -0.2718
     45  CB        30.7230   39.2960   57.2140 C.3   519  ALA519      0.0304
     46  N         32.2750   38.0780   59.6360 N.am  520  ARG520     -0.1966
     47  CA        33.4600   38.0970   60.4860 C.3   520  ARG520      0.1729
     48  C         34.4970   37.0960   59.9870 C.2   520  ARG520      0.2616
     49  O         34.1480   36.0200   59.5070 O.2   520  ARG520     -0.2715
     50  CB        33.0900   37.7950   61.9390 C.3   520  ARG520      0.0348
     51  CG        34.2740   37.7600   62.8940 C.3   520  ARG520      0.0492
     52  CD        33.8360   37.5640   64.3320 C.3   520  ARG520      0.2205
     53  NE        34.9640   37.6450   65.2540 N.pl3 520  ARG520     -0.0865
     54  CZ        34.8550   37.5750   66.5760 C.cat 520  ARG520      0.5346
     55  NH1       33.6630   37.4220   67.1350 N.pl3 520  ARG520      0.1354
     56  NH2       35.9360   37.6590   67.3390 N.pl3 520  ARG520      0.1354
     57  N         35.7720   37.4560   60.1000 N.am  521  TRP521     -0.1974
     58  CA        36.8510   36.5860   59.6510 C.3   521  TRP521      0.1640
     59  C         38.0980   36.7350   60.5180 C.2   521  TRP521      0.2290
     60  O         38.7490   37.7790   60.5100 O.2   521  TRP521     -0.2864
     61  CB        37.1990   36.8820   58.1910 C.3   521  TRP521      0.0576
     62  CG        38.2390   35.9670   57.6200 C.ar  521  TRP521      0.0006
     63  CD1       38.4990   34.6810   57.9960 C.ar  521  TRP521      0.0946
     64  CD2       39.1670   36.2720   56.5720 C.ar  521  TRP521      0.0152
     65  NE1       39.5260   34.1660   57.2440 N.ar  521  TRP521     -0.2442
     66  CE2       39.9530   35.1230   56.3640 C.ar  521  TRP521      0.0810
     67  CE3       39.4050   37.4050   55.7900 C.ar  521  TRP521      0.0012
     68  CZ2       40.9620   35.0750   55.4050 C.ar  521  TRP521      0.0191
     69  CZ3       40.4060   37.3550   54.8400 C.ar  521  TRP521      0.0001
     70  CH2       41.1730   36.1990   54.6560 C.ar  521  TRP521      0.0015
     71  N         41.8970   35.2000   61.2100 N.3   523  TYR523     -0.1241
     72  CA        42.9020   34.4390   60.4810 C.3   523  TYR523      0.1605
     73  C         44.2810   34.5260   61.1220 C.2   523  TYR523      0.2264
     74  O         44.7590   35.6110   61.4540 O.2   523  TYR523     -0.2867
     75  CB        42.9660   34.9230   59.0340 C.3   523  TYR523      0.0534
     76  CG        43.9200   34.1590   58.1500 C.ar  523  TYR523     -0.0201
     77  CD1       43.5910   32.8990   57.6710 C.ar  523  TYR523     -0.0009
     78  CD2       45.1400   34.7050   57.7750 C.ar  523  TYR523     -0.0009
     79  CE1       44.4550   32.1980   56.8560 C.ar  523  TYR523      0.0417
     80  CE2       46.0100   34.0130   56.9590 C.ar  523  TYR523      0.0417
     81  CZ        45.6630   32.7600   56.5030 C.ar  523  TYR523      0.1957
     82  OH        46.5260   32.0680   55.6880 O.3   523  TYR523     -0.2866
     83  N         48.1540   34.0740   60.5560 N.3   525  TYR525     -0.1241
     84  CA        49.1720   34.0330   59.5140 C.3   525  TYR525      0.1605
     85  C         50.3050   33.0760   59.8680 C.2   525  TYR525      0.2264
     86  O         51.0860   32.6800   59.0030 O.2   525  TYR525     -0.2867
     87  CB        49.7350   35.4310   59.2640 C.3   525  TYR525      0.0534
     88  CG        48.7440   36.4110   58.6790 C.ar  525  TYR525     -0.0201
     89  CD1       48.6350   36.5800   57.3050 C.ar  525  TYR525     -0.0009
     90  CD2       47.9230   37.1760   59.4990 C.ar  525  TYR525     -0.0009
     91  CE1       47.7360   37.4780   56.7640 C.ar  525  TYR525      0.0417
     92  CE2       47.0200   38.0760   58.9660 C.ar  525  TYR525      0.0417
     93  CZ        46.9310   38.2230   57.5980 C.ar  525  TYR525      0.1957
     94  OH        46.0350   39.1170   57.0590 O.3   525  TYR525     -0.2866
     95  N         48.9060   29.9680   58.8290 N.3   528  ASN528     -0.1240
     96  CA        48.1910   30.2470   57.5880 C.3   528  ASN528      0.1653
     97  C         46.8380   29.5450   57.6080 C.2   528  ASN528      0.2266
     98  O         46.4680   28.8460   56.6650 O.2   528  ASN528     -0.2867
     99  CB        49.0100   29.8240   56.3650 C.3   528  ASN528      0.1155
    100  CG        50.1320   30.7960   56.0530 C.2   528  ASN528      0.2627
    101  OD1       49.9200   31.8150   55.3950 O.2   528  ASN528     -0.2716
    102  ND2       51.3340   30.4850   56.5260 N.am  528  ASN528     -0.0877
    103  N         42.5560   29.7210   58.9790 N.3   530  THR530     -0.1218
    104  CA        41.4110   30.5200   59.4030 C.3   530  THR530      0.1862
    105  C         40.7940   29.9680   60.6850 C.2   530  THR530      0.2287
    106  O         40.4140   28.8010   60.7420 O.2   530  THR530     -0.2866
    107  CB        40.3300   30.5800   58.3060 C.3   530  THR530      0.1770
    108  OG1       40.8280   31.3160   57.1830 O.3   530  THR530     -0.2211
    109  CG2       39.0730   31.2570   58.8270 C.3   530  THR530      0.0375
@<TRIPOS>BOND
     1    70    69   ar
     2    70    68   ar
     3    69    67   ar
     4   101   100    2
     5    68    66   ar
     6    82    81    1
     7    67    64   ar
     8   100    99    1
     9   100   102   am
    10    66    64   ar
    11    66    65   ar
    12    99    96    1
    13    81    79   ar
    14    81    80   ar
    15    64    62   ar
    16    98    97    2
    17    91    89   ar
    18    91    93   ar
    19    79    77   ar
    20    32    30   ar
    21    32    33   ar
    22    80    78   ar
    23    94    93    1
    24   108   107    1
    25    45    42    1
    26    65    63   ar
    27    12    11    1
    28    89    88   ar
    29    30    28   ar
    30    39    38    1
    31    96    97    1
    32    96    95    1
    33    93    92   ar
    34    62    63   ar
    35    62    61    1
    36    33    31   ar
    37    77    76   ar
    38    40    38    1
    39    78    76   ar
    40    22    21   ar
    41    22    20   ar
    42    76    75    1
    43    61    58    1
    44   107   109    1
    45   107   104    1
    46    38    35    1
    47    21    19   ar
    48    11     9   ar
    49    11    10   ar
    50    20    18   ar
    51    28    27    1
    52    28    29   ar
    53    42    41    1
    54    42    43    1
    55    88    87    1
    56    88    90   ar
    57    31    29   ar
    58    92    90   ar
    59   103   104    1
    60    86    85    2
    61    75    72    1
    62     9     7   ar
    63    27    24    1
    64    87    84    1
    65    10     8   ar
    66    19    18   ar
    67   104   105    1
    68    49    48    2
    69    84    85    1
    70    84    83    1
    71    18    17    1
    72    43    46   am
    73    43    44    2
    74    46    47    1
    75    37    36    2
    76    58    57    1
    77    58    59    1
    78    35    36    1
    79    35    34    1
    80    48    57   am
    81    48    47    1
    82     7     6   ar
    83    72    73    1
    84    72    71    1
    85    47    50    1
    86    60    59    2
    87    17    14    1
    88     8     6   ar
    89    24    25    1
    90    24    23    1
    91   105   106    2
    92    25    26    2
    93    73    74    2
    94     6     5    1
    95    50    51    1
    96    14    15    1
    97    14    13    1
    98    16    15    2
    99     5     2    1
   100    51    52    1
   101     2     1    1
   102     2     3    1
   103    52    53    1
   104     3     4    2
   105    53    54    2
   106    54    55    1
   107    54    56    1
