@<TRIPOS>MOLECULE
tmp/5ivaA02.pdb
 115 111 0 0 0
SMALL
GASTEIGER

@<TRIPOS>ATOM
      1  N         27.1900   23.0360   87.3310 N.3    92  TYR92      -0.1241
      2  CA        26.5080   23.8950   88.2940 C.3    92  TYR92       0.1605
      3  C         27.4710   24.8910   88.9270 C.2    92  TYR92       0.2264
      4  O         28.5650   24.5300   89.3610 O.2    92  TYR92      -0.2867
      5  CB        25.8020   23.0580   89.3700 C.3    92  TYR92       0.0534
      6  CG        26.6920   22.5180   90.4680 C.ar   92  TYR92      -0.0201
      7  CD1       27.3640   21.3130   90.3170 C.ar   92  TYR92      -0.0009
      8  CD2       26.8410   23.2030   91.6680 C.ar   92  TYR92      -0.0009
      9  CE1       28.1710   20.8130   91.3230 C.ar   92  TYR92       0.0417
     10  CE2       27.6470   22.7130   92.6770 C.ar   92  TYR92       0.0417
     11  CZ        28.3090   21.5170   92.5000 C.ar   92  TYR92       0.1957
     12  OH        29.1120   21.0230   93.5030 O.3    92  TYR92      -0.2866
     13  N         32.0750   30.3990   91.7780 N.3   110  TYR110     -0.1241
     14  CA        32.2130   28.9500   91.7650 C.3   110  TYR110      0.1605
     15  C         31.6120   28.3590   90.4980 C.2   110  TYR110      0.2264
     16  O         30.6070   28.8560   89.9900 O.2   110  TYR110     -0.2867
     17  CB        31.5460   28.3430   93.0000 C.3   110  TYR110      0.0534
     18  CG        31.8790   26.8860   93.2290 C.ar  110  TYR110     -0.0201
     19  CD1       32.9520   26.5190   94.0280 C.ar  110  TYR110     -0.0009
     20  CD2       31.1180   25.8790   92.6500 C.ar  110  TYR110     -0.0009
     21  CE1       33.2600   25.1920   94.2430 C.ar  110  TYR110      0.0417
     22  CE2       31.4200   24.5490   92.8570 C.ar  110  TYR110      0.0417
     23  CZ        32.4910   24.2120   93.6550 C.ar  110  TYR110      0.1957
     24  OH        32.7930   22.8890   93.8640 O.3   110  TYR110     -0.2866
     25  N         31.4080   24.2120   88.8570 N.3   112  ARG112     -0.1245
     26  CA        31.8240   22.8170   88.7890 C.3   112  ARG112      0.1563
     27  C         31.2080   22.1030   87.5890 C.2   112  ARG112      0.2260
     28  O         29.9870   22.1240   87.3960 O.2   112  ARG112     -0.2867
     29  CB        31.4590   22.0800   90.0800 C.3   112  ARG112      0.0307
     30  CG        32.0130   20.6650   90.1530 C.3   112  ARG112      0.0489
     31  CD        31.5660   19.9440   91.4130 C.3   112  ARG112      0.2205
     32  NE        32.1070   18.5900   91.4830 N.pl3 112  ARG112     -0.0865
     33  CZ        31.7320   17.6790   92.3760 C.cat 112  ARG112      0.5346
     34  NH1       30.8060   17.9740   93.2780 N.pl3 112  ARG112      0.1354
     35  NH2       32.2800   16.4720   92.3640 N.pl3 112  ARG112      0.1354
     36  N         36.7960   28.3950   90.8730 N.3   136  GLN136     -0.1231
     37  CA        36.1940   27.9170   92.1100 C.3   136  GLN136      0.1698
     38  C         36.7210   28.7390   93.2740 C.2   136  GLN136      0.2592
     39  O         37.5610   28.2710   94.0410 O.2   136  GLN136     -0.2718
     40  CB        36.4950   26.4350   92.3360 C.3   136  GLN136      0.0381
     41  CG        35.8600   25.4980   91.3300 C.3   136  GLN136      0.0905
     42  CD        36.1370   24.0450   91.6510 C.2   136  GLN136      0.2608
     43  OE1       36.8380   23.7340   92.6140 O.2   136  GLN136     -0.2717
     44  NE2       35.5870   23.1440   90.8460 N.am  136  GLN136     -0.0878
     45  N         36.2350   29.9680   93.4040 N.am  137  ARG137     -0.1966
     46  CA        36.7620   30.8700   94.4180 C.3   137  ARG137      0.1729
     47  C         35.6700   31.4740   95.2960 C.2   137  ARG137      0.2616
     48  O         34.5170   31.5980   94.8850 O.2   137  ARG137     -0.2715
     49  CB        37.5750   31.9880   93.7600 C.3   137  ARG137      0.0348
     50  CG        36.7540   33.1840   93.3140 C.3   137  ARG137      0.0492
     51  CD        37.6260   34.2540   92.6810 C.3   137  ARG137      0.2205
     52  NE        36.8940   35.5020   92.4800 N.pl3 137  ARG137     -0.0865
     53  CZ        36.8600   36.4950   93.3620 C.cat 137  ARG137      0.5346
     54  NH1       37.5190   36.3860   94.5060 N.pl3 137  ARG137      0.1354
     55  NH2       36.1690   37.5960   93.1010 N.pl3 137  ARG137      0.1354
     56  N         36.0520   31.8390   96.5150 N.am  138  GLY138     -0.1955
     57  CA        35.1600   32.5050   97.4450 C.3   138  GLY138      0.1869
     58  C         35.9430   33.5350   98.2330 C.2   138  GLY138      0.2309
     59  O         36.9620   33.2110   98.8400 O.2   138  GLY138     -0.2863
     60  N         39.6730   32.2660   99.2130 N.3   153  ALA153     -0.1231
     61  CA        39.8490   30.8420   98.9630 C.3   153  ALA153      0.1694
     62  C         39.6110   30.5570   97.4890 C.2   153  ALA153      0.2592
     63  O         38.4760   30.3460   97.0650 O.2   153  ALA153     -0.2718
     64  CB        38.9070   30.0230   99.8280 C.3   153  ALA153      0.0304
     65  N         40.6860   30.5570   96.7100 N.am  154  GLN154     -0.1966
     66  CA        40.5720   30.4670   95.2620 C.3   154  GLN154      0.1733
     67  C         41.1870   29.1920   94.7020 C.2   154  GLN154      0.2616
     68  O         42.3030   28.8170   95.0590 O.2   154  GLN154     -0.2715
     69  CB        41.2240   31.6870   94.6130 C.3   154  GLN154      0.0408
     70  CG        41.1000   31.7390   93.1040 C.3   154  GLN154      0.0908
     71  CD        41.5130   33.0820   92.5430 C.2   154  GLN154      0.2608
     72  OE1       42.0550   33.9250   93.2580 O.2   154  GLN154     -0.2717
     73  NE2       41.2520   33.2940   91.2580 N.am  154  GLN154     -0.0878
     74  N         40.4470   28.5320   93.8180 N.am  155  ALA155     -0.1963
     75  CA        40.9340   27.3370   93.1460 C.3   155  ALA155      0.1728
     76  C         40.4390   27.3170   91.7060 C.2   155  ALA155      0.2616
     77  O         39.6560   28.1750   91.3010 O.2   155  ALA155     -0.2715
     78  CB        40.4890   26.0880   93.8860 C.3   155  ALA155      0.0334
     79  N         40.9020   26.3400   90.9330 N.am  156  TYR156     -0.1960
     80  CA        40.5220   26.2390   89.5300 C.3   156  TYR156      0.1771
     81  C         40.2340   24.7980   89.1400 C.2   156  TYR156      0.2619
     82  O         40.9010   23.8740   89.6040 O.2   156  TYR156     -0.2715
     83  CB        41.6230   26.8050   88.6300 C.3   156  TYR156      0.0574
     84  CG        42.1250   28.1700   89.0430 C.ar  156  TYR156     -0.0198
     85  CD1       43.1910   28.3010   89.9220 C.ar  156  TYR156     -0.0009
     86  CD2       41.5360   29.3270   88.5520 C.ar  156  TYR156     -0.0009
     87  CE1       43.6550   29.5430   90.3040 C.ar  156  TYR156      0.0417
     88  CE2       41.9940   30.5760   88.9280 C.ar  156  TYR156      0.0417
     89  CZ        43.0540   30.6770   89.8040 C.ar  156  TYR156      0.1957
     90  OH        43.5160   31.9160   90.1840 O.3   156  TYR156     -0.2866
     91  N         39.2390   24.6100   88.2810 N.am  157  GLN157     -0.1977
     92  CA        38.9330   23.2830   87.7620 C.3   157  GLN157      0.1601
     93  C         39.2240   23.2060   86.2680 C.2   157  GLN157      0.2287
     94  O         38.6450   23.9470   85.4770 O.2   157  GLN157     -0.2864
     95  CB        37.4760   22.9150   88.0310 C.3   157  GLN157      0.0394
     96  CG        37.1020   21.5310   87.5260 C.3   157  GLN157      0.0908
     97  CD        35.6850   21.1380   87.8840 C.2   157  GLN157      0.2608
     98  OE1       34.9640   21.8930   88.5370 O.2   157  GLN157     -0.2717
     99  NE2       35.2770   19.9490   87.4600 N.am  157  GLN157     -0.0878
    100  N         46.3970   25.7240   94.3050 N.3   168  ASP168     -0.1239
    101  CA        45.2910   26.2160   95.1130 C.3   168  ASP168      0.1674
    102  C         45.7820   27.2050   96.1610 C.2   168  ASP168      0.2266
    103  O         46.7920   26.9720   96.8220 O.2   168  ASP168     -0.2867
    104  CB        44.5590   25.0570   95.7940 C.3   168  ASP168      0.1410
    105  CG        44.0410   24.0330   94.8060 C.2   168  ASP168      0.3668
    106  OD1       43.6740   24.4240   93.6780 O.co2 168  ASP168     -0.2456
    107  OD2       44.0010   22.8350   95.1580 O.co2 168  ASP168     -0.2456
    108  N         44.3300   28.0130   99.1610 N.3   170  LEU170     -0.1245
    109  CA        43.2390   27.6110  100.0420 C.3   170  LEU170      0.1561
    110  C         42.9430   28.6690  101.1220 C.2   170  LEU170      0.2260
    111  O         41.7860   29.0490  101.2980 O.2   170  LEU170     -0.2867
    112  CB        43.5420   26.2400  100.6590 C.3   170  LEU170      0.0270
    113  CG        42.3490   25.3890  101.0890 C.3   170  LEU170      0.0019
    114  CD1       41.5110   25.0060   99.8800 C.3   170  LEU170      0.0001
    115  CD2       42.8260   24.1510  101.8300 C.3   170  LEU170      0.0001
@<TRIPOS>BOND
     1    94    93    2
     2    93    92    1
     3     1     2    1
     4    28    27    2
     5    99    97   am
     6    96    97    1
     7    96    95    1
     8    27    26    1
     9    92    95    1
    10    92    91    1
    11    97    98    2
    12    91    81   am
    13     2     3    1
    14     2     5    1
    15    86    88   ar
    16    86    84   ar
    17    83    84    1
    18    83    80    1
    19    26    25    1
    20    26    29    1
    21     3     4    2
    22    88    89   ar
    23    84    85   ar
    24    81    80    1
    25    81    82    2
    26     5     6    1
    27    80    79    1
    28    89    90    1
    29    89    87   ar
    30    85    87   ar
    31    16    15    2
    32    29    30    1
    33    30    31    1
    34     7     6   ar
    35     7     9   ar
    36     6     8   ar
    37    15    14    1
    38    44    42   am
    39    36    37    1
    40    79    76   am
    41    73    71   am
    42    77    76    2
    43     9    11   ar
    44    41    42    1
    45    41    40    1
    46    31    32    1
    47    32    33    2
    48    42    43    2
    49     8    10   ar
    50    76    75    1
    51    14    13    1
    52    14    17    1
    53    37    40    1
    54    37    38    1
    55    35    33    1
    56    33    34    1
    57    52    51    1
    58    52    53    2
    59    11    10   ar
    60    11    12    1
    61    71    70    1
    62    71    72    2
    63    20    22   ar
    64    20    18   ar
    65    51    50    1
    66    22    23   ar
    67    17    18    1
    68    55    53    1
    69    70    69    1
    70    75    74    1
    71    75    78    1
    72    18    19   ar
    73    38    45   am
    74    38    39    2
    75    50    49    1
    76    53    54    1
    77    45    46    1
    78    23    24    1
    79    23    21   ar
    80   106   105   ar
    81    49    46    1
    82    74    67   am
    83    19    21   ar
    84   100   101    1
    85    46    47    1
    86    69    66    1
    87    67    68    2
    88    67    66    1
    89   105   107   ar
    90   105   104    1
    91    48    47    2
    92   101   104    1
    93   101   102    1
    94    66    65    1
    95    47    56   am
    96   102   103    2
    97    56    57    1
    98    65    62   am
    99    63    62    2
   100    57    58    1
   101    62    61    1
   102    58    59    2
   103    61    60    1
   104    61    64    1
   105   108   109    1
   106   114   113    1
   107   109   112    1
   108   109   110    1
   109   112   113    1
   110   113   115    1
   111   110   111    2
