@<TRIPOS>MOLECULE
tmp/5ivcA00.pdb
 167 160 0 0 0
SMALL
GASTEIGER

@<TRIPOS>ATOM
      1  N        -26.6990   30.6390   11.3810 N.3    62  ARG62      -0.1245
      2  CA       -28.0340   30.8130   10.8430 C.3    62  ARG62       0.1563
      3  C        -29.0660   30.1860   11.7690 C.2    62  ARG62       0.2260
      4  O        -28.8310   29.1500   12.3970 O.2    62  ARG62      -0.2867
      5  CB       -28.1370   30.2000    9.4470 C.3    62  ARG62       0.0307
      6  CG       -28.0450   28.7040    9.4070 C.3    62  ARG62       0.0489
      7  CD       -27.8280   28.2660    7.9570 C.3    62  ARG62       0.2205
      8  NE       -26.5180   28.7050    7.4870 N.pl3  62  ARG62      -0.0865
      9  CZ       -26.1780   28.8330    6.2080 C.cat  62  ARG62       0.5346
     10  NH1      -27.0640   28.5770    5.2520 N.pl3  62  ARG62       0.1354
     11  NH2      -24.9540   29.2420    5.8860 N.pl3  62  ARG62       0.1354
     12  N        -32.4400   28.2200   12.6390 N.3    64  GLN64      -0.1245
     13  CA       -33.1670   27.1040   12.0450 C.3    64  GLN64       0.1566
     14  C        -34.4200   26.8270   12.8550 C.2    64  GLN64       0.2260
     15  O        -34.3330   26.4620   14.0340 O.2    64  GLN64      -0.2867
     16  CB       -32.3050   25.8410   11.9620 C.3    64  GLN64       0.0367
     17  CG       -31.0680   25.9880   11.0840 C.3    64  GLN64       0.0905
     18  CD       -30.3900   24.6690   10.8390 C.2    64  GLN64       0.2608
     19  OE1      -30.1840   23.8770   11.7690 O.2    64  GLN64      -0.2717
     20  NE2      -30.0490   24.4060    9.5830 N.am   64  GLN64      -0.0878
     21  N        -27.0470   27.2600   13.7180 N.3   135  TYR135     -0.1241
     22  CA       -26.0630   26.3900   13.0790 C.3   135  TYR135      0.1605
     23  C        -24.9530   27.2470   12.4880 C.2   135  TYR135      0.2264
     24  O        -25.2060   28.0540   11.5900 O.2   135  TYR135     -0.2867
     25  CB       -26.7190   25.5520   11.9760 C.3   135  TYR135      0.0534
     26  CG       -25.9610   24.3160   11.5420 C.ar  135  TYR135     -0.0201
     27  CD1      -24.7950   23.9140   12.1800 C.ar  135  TYR135     -0.0009
     28  CD2      -26.4280   23.5350   10.4790 C.ar  135  TYR135     -0.0009
     29  CE1      -24.1220   22.7680   11.7790 C.ar  135  TYR135      0.0417
     30  CE2      -25.7720   22.3970   10.0780 C.ar  135  TYR135      0.0417
     31  CZ       -24.6050   22.0160   10.7210 C.ar  135  TYR135      0.1957
     32  OH       -23.9410   20.8770   10.3370 O.3   135  TYR135     -0.2866
     33  N        -22.9990   27.0830   10.0410 N.3   137  ALA137     -0.1231
     34  CA       -22.8310   26.2720    8.8390 C.3   137  ALA137      0.1694
     35  C        -22.1080   27.0580    7.7510 C.2   137  ALA137      0.2592
     36  O        -22.1620   28.2900    7.7050 O.2   137  ALA137     -0.2718
     37  CB       -24.1930   25.7980    8.3240 C.3   137  ALA137      0.0304
     38  N        -21.3940   26.3330    6.8910 N.am  138  ASP138     -0.1974
     39  CA       -20.8400   26.9140    5.6680 C.3   138  ASP138      0.1709
     40  C        -19.8750   28.0700    5.9640 C.2   138  ASP138      0.2293
     41  O        -19.9320   29.1390    5.3510 O.2   138  ASP138     -0.2864
     42  CB       -21.9750   27.3640    4.7440 C.3   138  ASP138      0.1436
     43  CG       -21.5960   27.3010    3.2780 C.2   138  ASP138      0.3671
     44  OD1      -20.8480   26.3740    2.8970 O.co2 138  ASP138     -0.2456
     45  OD2      -22.0480   28.1780    2.5080 O.co2 138  ASP138     -0.2456
     46  N        -18.3160   23.4730    9.8350 N.3   192  TYR192     -0.1241
     47  CA       -19.6760   23.4000   10.3690 C.3   192  TYR192      0.1605
     48  C        -19.5990   23.2920   11.8840 C.2   192  TYR192      0.2264
     49  O        -19.1420   22.2710   12.4080 O.2   192  TYR192     -0.2867
     50  CB       -20.4320   22.2030    9.7830 C.3   192  TYR192      0.0534
     51  CG       -20.6020   22.3030    8.2970 C.ar  192  TYR192     -0.0201
     52  CD1      -19.5960   21.8770    7.4400 C.ar  192  TYR192     -0.0009
     53  CD2      -21.7490   22.8600    7.7530 C.ar  192  TYR192     -0.0009
     54  CE1      -19.7390   21.9980    6.0780 C.ar  192  TYR192      0.0417
     55  CE2      -21.8980   22.9790    6.4000 C.ar  192  TYR192      0.0417
     56  CZ       -20.8910   22.5470    5.5720 C.ar  192  TYR192      0.1957
     57  OH       -21.0390   22.6630    4.2140 O.3   192  TYR192     -0.2866
     58  N        -29.2550   21.1100   11.6710 N.3   199  SER199     -0.1202
     59  CA       -29.5180   20.0460   10.7050 C.3   199  SER199      0.2020
     60  C        -29.2610   20.4870    9.2690 C.2   199  SER199      0.2619
     61  O        -29.1680   21.6800    8.9600 O.2   199  SER199     -0.2717
     62  CB       -30.9610   19.5470   10.8340 C.3   199  SER199      0.2103
     63  OG       -31.8840   20.5280   10.3900 O.3   199  SER199     -0.2182
     64  N        -29.1730   19.4850    8.3840 N.am  200  PHE200     -0.1961
     65  CA       -29.1000   19.6950    6.9420 C.3   200  PHE200      0.1771
     66  C        -30.1270   18.7950    6.2770 C.2   200  PHE200      0.2619
     67  O        -30.2520   17.6250    6.6440 O.2   200  PHE200     -0.2715
     68  CB       -27.6900   19.4390    6.3610 C.3   200  PHE200      0.0574
     69  CG       -27.0690   18.1140    6.7390 C.ar  200  PHE200     -0.0200
     70  CD1      -26.4630   17.9340    7.9850 C.ar  200  PHE200     -0.0042
     71  CD2      -27.0280   17.0740    5.8130 C.ar  200  PHE200     -0.0042
     72  CE1      -25.8620   16.7140    8.3190 C.ar  200  PHE200     -0.0003
     73  CE2      -26.4320   15.8640    6.1340 C.ar  200  PHE200     -0.0003
     74  CZ       -25.8560   15.6780    7.3810 C.ar  200  PHE200     -0.0000
     75  N        -30.8750   19.3420    5.3170 N.am  201  CYS201     -0.1968
     76  CA       -31.9490   18.5620    4.7190 C.3   201  CYS201      0.1712
     77  C        -31.4350   17.7700    3.5190 C.2   201  CYS201      0.2296
     78  O        -30.2520   17.8170    3.1640 O.2   201  CYS201     -0.2864
     79  CB       -33.1210   19.4580    4.3410 C.3   201  CYS201      0.0983
     80  SG       -32.7480   20.6810    3.1210 S.3   201  CYS201     -0.0798
     81  N        -30.2370   16.3610    0.1810 N.3   203  HIS203     -0.1226
     82  CA       -29.6520   16.9670   -1.0130 C.3   203  HIS203      0.1752
     83  C        -28.6320   16.0180   -1.6240 C.2   203  HIS203      0.2596
     84  O        -28.1880   15.0580   -0.9890 O.2   203  HIS203     -0.2718
     85  CB       -28.9740   18.3050   -0.6840 C.3   203  HIS203      0.0759
     86  CG       -27.7860   18.1420    0.2030 C.ar  203  HIS203      0.0818
     87  ND1      -27.9110   17.8690    1.5480 N.ar  203  HIS203     -0.2268
     88  CD2      -26.4590   18.1350   -0.0640 C.ar  203  HIS203      0.1154
     89  CE1      -26.7080   17.7250    2.0770 C.ar  203  HIS203      0.1986
     90  NE2      -25.8090   17.8810    1.1240 N.ar  203  HIS203     -0.2212
     91  N        -28.2740   16.3070   -2.8780 N.am  204  ILE204     -0.1966
     92  CA       -27.0860   15.7480   -3.5060 C.3   204  ILE204      0.1727
     93  C        -26.1280   16.8920   -3.8320 C.2   204  ILE204      0.2616
     94  O        -26.4770   18.0660   -3.7370 O.2   204  ILE204     -0.2715
     95  CB       -27.4120   14.9190   -4.7620 C.3   204  ILE204      0.0290
     96  CG1      -28.3110   15.7270   -5.6990 C.3   204  ILE204      0.0022
     97  CG2      -28.0850   13.6000   -4.3410 C.3   204  ILE204      0.0023
     98  CD1      -28.6430   15.0270   -7.0040 C.3   204  ILE204      0.0001
     99  N        -24.9000   16.5300   -4.1980 N.am  205  GLU205     -0.1977
    100  CA       -23.8550   17.5150   -4.4490 C.3   205  GLU205      0.1602
    101  C        -23.8980   18.0190   -5.8840 C.2   205  GLU205      0.2287
    102  O        -24.3490   17.3220   -6.8000 O.2   205  GLU205     -0.2864
    103  CB       -22.4710   16.9210   -4.1630 C.3   205  GLU205      0.0415
    104  CG       -22.2950   16.3970   -2.7430 C.3   205  GLU205      0.1163
    105  CD       -22.5580   17.4670   -1.6970 C.2   205  GLU205      0.3649
    106  OE1      -23.2870   17.1730   -0.7230 O.co2 205  GLU205     -0.2457
    107  OE2      -22.0650   18.6020   -1.8720 O.co2 205  GLU205     -0.2457
    108  N        -18.5270   13.4750   -1.6920 N.3   211  SER211     -0.1217
    109  CA       -18.0680   14.3660   -0.6300 C.3   211  SER211      0.1889
    110  C        -17.4290   13.5400    0.4790 C.2   211  SER211      0.2288
    111  O        -17.6990   12.3460    0.6410 O.2   211  SER211     -0.2866
    112  CB       -19.1960   15.2550   -0.0710 C.3   211  SER211      0.2089
    113  OG       -19.9630   14.6230    0.9380 O.3   211  SER211     -0.2183
    114  N        -16.2820   13.9950    4.7540 N.3   213  ASN213     -0.1240
    115  CA       -16.6590   14.7820    5.9170 C.3   213  ASN213      0.1653
    116  C        -15.9000   14.2610    7.1280 C.2   213  ASN213      0.2266
    117  O        -15.9150   13.0570    7.3880 O.2   213  ASN213     -0.2867
    118  CB       -18.1730   14.6720    6.1390 C.3   213  ASN213      0.1155
    119  CG       -18.9780   15.0260    4.8770 C.2   213  ASN213      0.2627
    120  OD1      -19.5250   16.1280    4.7700 O.2   213  ASN213     -0.2716
    121  ND2      -19.0370   14.0910    3.9070 N.am  213  ASN213     -0.0877
    122  N        -22.4900   13.5690   14.8020 N.3   221  LYS221     -0.1245
    123  CA       -23.3320   14.0720   13.7290 C.3   221  LYS221      0.1561
    124  C        -24.0760   12.8650   13.1820 C.2   221  LYS221      0.2260
    125  O        -23.4460   11.8730   12.8020 O.2   221  LYS221     -0.2867
    126  CB       -22.4790   14.7510   12.6560 C.3   221  LYS221      0.0271
    127  CG       -23.2570   15.2980   11.4630 C.3   221  LYS221      0.0035
    128  CD       -22.3140   15.8680   10.3930 C.3   221  LYS221      0.0206
    129  CE       -21.5120   17.0940   10.8730 C.3   221  LYS221      0.1093
    130  NZ       -22.3510   18.3360   11.0870 N.3   221  LYS221     -0.1314
    131  N        -26.3620   10.9370   10.5150 N.3   223  TRP223     -0.1241
    132  CA       -26.5130   10.9690    9.0660 C.3   223  TRP223      0.1605
    133  C        -27.6020   10.0120    8.6030 C.2   223  TRP223      0.2264
    134  O        -27.7770    8.9320    9.1720 O.2   223  TRP223     -0.2867
    135  CB       -25.2210   10.5260    8.3650 C.3   223  TRP223      0.0550
    136  CG       -24.0830   11.4620    8.4730 C.ar  223  TRP223      0.0003
    137  CD1      -23.3230   11.7120    9.5860 C.ar  223  TRP223      0.0946
    138  CD2      -23.5510   12.2810    7.4230 C.ar  223  TRP223      0.0152
    139  NE1      -22.3450   12.6430    9.2860 N.ar  223  TRP223     -0.2442
    140  CE2      -22.4580   12.9980    7.9630 C.ar  223  TRP223      0.0810
    141  CE3      -23.8780   12.4600    6.0700 C.ar  223  TRP223      0.0012
    142  CZ2      -21.7090   13.9020    7.2080 C.ar  223  TRP223      0.0191
    143  CZ3      -23.1260   13.3580    5.3110 C.ar  223  TRP223      0.0001
    144  CH2      -22.0470   14.0630    5.8780 C.ar  223  TRP223      0.0015
    145  N        -32.9720   23.4560   -0.5820 N.3   256  LEU256     -0.1245
    146  CA       -32.8100   24.2850    0.6010 C.3   256  LEU256      0.1561
    147  C        -33.8550   23.9650    1.6620 C.2   256  LEU256      0.2260
    148  O        -33.6380   24.2880    2.8290 O.2   256  LEU256     -0.2867
    149  CB       -32.8790   25.7680    0.2170 C.3   256  LEU256      0.0270
    150  CG       -31.7210   26.2240   -0.6770 C.3   256  LEU256      0.0019
    151  CD1      -31.8850   27.6770   -1.0760 C.3   256  LEU256      0.0001
    152  CD2      -30.3900   26.0070    0.0290 C.3   256  LEU256      0.0001
    153  N        -28.4160   12.7400    0.9450 N.3   291  HIS291     -0.1241
    154  CA       -28.0970   12.6320    2.3620 C.3   291  HIS291      0.1621
    155  C        -28.6860   13.8110    3.1320 C.2   291  HIS291      0.2264
    156  O        -28.9690   14.8730    2.5780 O.2   291  HIS291     -0.2867
    157  CB       -26.5760   12.5060    2.6040 C.3   291  HIS291      0.0745
    158  CG       -25.7410   13.5630    1.9400 C.ar  291  HIS291      0.0817
    159  ND1      -25.4260   13.5270    0.5950 N.ar  291  HIS291     -0.2268
    160  CD2      -25.0970   14.6390    2.4480 C.ar  291  HIS291      0.1154
    161  CE1      -24.6470   14.5540    0.2990 C.ar  291  HIS291      0.1986
    162  NE2      -24.4430   15.2540    1.4070 N.ar  291  HIS291     -0.2212
    163  N        -17.2230   20.1630   12.3590 N.3   301  ALA301     -0.1245
    164  CA       -17.0270   19.3080   11.1950 C.3   301  ALA301      0.1562
    165  C        -16.3460   20.0790   10.0740 C.2   301  ALA301      0.2260
    166  O        -16.4390   21.3090    9.9850 O.2   301  ALA301     -0.2867
    167  CB       -18.3590   18.7460   10.6800 C.3   301  ALA301      0.0290
@<TRIPOS>BOND
     1    98    96    1
     2   102   101    2
     3   101   100    1
     4    96    95    1
     5    95    97    1
     6    95    92    1
     7   100    99    1
     8   100   103    1
     9    99    93   am
    10   103   104    1
    11    93    94    2
    12    93    92    1
    13    92    91    1
    14    91    83   am
    15   104   105    1
    16   107   105   ar
    17   105   106   ar
    18   108   109    1
    19    83    82    1
    20    83    84    2
    21   151   150    1
    22    82    85    1
    23    82    81    1
    24    85    86    1
    25   150   152    1
    26   150   149    1
    27   109   112    1
    28   109   110    1
    29   145   146    1
    30   112   113    1
    31    88    86   ar
    32    88    90   ar
    33    86    87   ar
    34   149   146    1
    35   161   159   ar
    36   161   162   ar
    37   110   111    2
    38   159   158   ar
    39   146   147    1
    40   153   154    1
    41    90    89   ar
    42   162   160   ar
    43    87    89   ar
    44   147   148    2
    45   158   160   ar
    46   158   157    1
    47   154   157    1
    48   154   155    1
    49    45    43   ar
    50   156   155    2
    51    44    43   ar
    52    80    79    1
    53    78    77    2
    54    43    42    1
    55    77    76    1
    56   121   119   am
    57    57    56    1
    58    79    76    1
    59    76    75    1
    60    42    39    1
    61   114   115    1
    62   120   119    2
    63   119   118    1
    64    10     9    1
    65   143   144   ar
    66   143   141   ar
    67    75    66   am
    68    41    40    2
    69    56    54   ar
    70    56    55   ar
    71    39    40    1
    72    39    38    1
    73    71    73   ar
    74    71    69   ar
    75   144   142   ar
    76    11     9    1
    77   115   118    1
    78   115   116    1
    79   141   138   ar
    80    54    52   ar
    81    73    74   ar
    82     9     8    2
    83    66    67    2
    84    66    65    1
    85    68    69    1
    86    68    65    1
    87    55    53   ar
    88    69    70   ar
    89    38    35   am
    90    65    64    1
    91   116   117    2
    92   142   140   ar
    93    74    72   ar
    94   138   140   ar
    95   138   136   ar
    96    52    51   ar
    97     8     7    1
    98    36    35    2
    99    35    34    1
   100    53    51   ar
   101     7     6    1
   102   140   139   ar
   103    70    72   ar
   104    51    50    1
   105    37    34    1
   106   135   136    1
   107   135   132    1
   108    64    60   am
   109   136   137   ar
   110   133   132    1
   111   133   134    2
   112    34    33    1
   113    61    60    2
   114   132   131    1
   115    60    59    1
   116   139   137   ar
   117     6     5    1
   118     5     2    1
   119    20    18   am
   120    50    47    1
   121    46    47    1
   122   166   165    2
   123   165   164    1
   124    30    28   ar
   125    30    31   ar
   126    32    31    1
   127    47    48    1
   128    63    62    1
   129   128   129    1
   130   128   127    1
   131    28    26   ar
   132   167   164    1
   133    59    62    1
   134    59    58    1
   135    31    29   ar
   136    18    17    1
   137    18    19    2
   138     2     1    1
   139     2     3    1
   140   129   130    1
   141    17    16    1
   142   164   163    1
   143   127   126    1
   144    26    25    1
   145    26    27   ar
   146    24    23    2
   147     3     4    2
   148    29    27   ar
   149    48    49    2
   150    16    13    1
   151    25    22    1
   152    13    12    1
   153    13    14    1
   154    23    22    1
   155   126   123    1
   156   125   124    2
   157    14    15    2
   158    22    21    1
   159   124   123    1
   160   123   122    1
