@<TRIPOS>MOLECULE
tmp/5iveA00.pdb
 142 138 0 0 0
SMALL
GASTEIGER

@<TRIPOS>ATOM
      1  N        -26.9200   31.1100   12.1730 N.3    63  ARG63      -0.1245
      2  CA       -28.2660   31.3460   11.6930 C.3    63  ARG63       0.1563
      3  C        -29.2510   30.5180   12.5030 C.2    63  ARG63       0.2260
      4  O        -28.9100   29.4890   13.0880 O.2    63  ARG63      -0.2867
      5  CB       -28.3920   31.0050   10.2160 C.3    63  ARG63       0.0307
      6  CG       -28.2310   29.5460    9.9480 C.3    63  ARG63       0.0489
      7  CD       -28.3020   29.3120    8.4670 C.3    63  ARG63       0.2205
      8  NE       -26.9800   29.3000    7.8620 N.pl3  63  ARG63      -0.0865
      9  CZ       -26.7530   28.9150    6.6130 C.cat  63  ARG63       0.5346
     10  NH1      -27.7660   28.5190    5.8460 N.pl3  63  ARG63       0.1354
     11  NH2      -25.5190   28.9170    6.1350 N.pl3  63  ARG63       0.1354
     12  N        -26.9500   27.4970   14.2820 N.3   136  TYR136     -0.1227
     13  CA       -25.7740   26.7470   13.8600 C.3   136  TYR136      0.1736
     14  C        -24.8920   27.5870   12.9420 C.2   136  TYR136      0.2596
     15  O        -25.3330   28.5800   12.3590 O.2   136  TYR136     -0.2718
     16  CB       -26.1660   25.4410   13.1550 C.3   136  TYR136      0.0548
     17  CG       -26.9480   25.6160   11.8630 C.ar  136  TYR136     -0.0200
     18  CD1      -26.2930   25.7850   10.6560 C.ar  136  TYR136     -0.0009
     19  CD2      -28.3410   25.5740   11.8580 C.ar  136  TYR136     -0.0009
     20  CE1      -26.9920   25.9250    9.4740 C.ar  136  TYR136      0.0417
     21  CE2      -29.0550   25.7050   10.6690 C.ar  136  TYR136      0.0417
     22  CZ       -28.3690   25.8850    9.4850 C.ar  136  TYR136      0.1957
     23  OH       -29.0460   26.0210    8.2950 O.3   136  TYR136     -0.2866
     24  N        -23.6430   27.1460   12.8000 N.am  137  GLY137     -0.1942
     25  CA       -22.7190   27.7770   11.8760 C.3   137  GLY137      0.2014
     26  C        -22.4930   26.9660   10.6130 C.2   137  GLY137      0.2638
     27  O        -22.0970   25.8020   10.6840 O.2   137  GLY137     -0.2714
     28  N        -22.7660   27.5770    9.4570 N.am  138  ALA138     -0.1977
     29  CA       -22.5150   26.9890    8.1440 C.3   138  ALA138      0.1597
     30  C        -22.2770   28.1340    7.1590 C.2   138  ALA138      0.2287
     31  O        -22.3840   29.3130    7.5140 O.2   138  ALA138     -0.2864
     32  CB       -23.6750   26.0690    7.7310 C.3   138  ALA138      0.0319
     33  N        -18.5150   23.4680    9.7460 N.3   189  TYR189     -0.1227
     34  CA       -19.8650   23.3430   10.2820 C.3   189  TYR189      0.1736
     35  C        -19.7930   23.3580   11.8020 C.2   189  TYR189      0.2595
     36  O        -19.1030   22.5260   12.3910 O.2   189  TYR189     -0.2718
     37  CB       -20.5310   22.0430    9.8280 C.3   189  TYR189      0.0548
     38  CG       -20.7190   21.9260    8.3310 C.ar  189  TYR189     -0.0200
     39  CD1      -21.7470   22.5890    7.6870 C.ar  189  TYR189     -0.0009
     40  CD2      -19.8730   21.1320    7.5740 C.ar  189  TYR189     -0.0009
     41  CE1      -21.9280   22.4780    6.3290 C.ar  189  TYR189      0.0417
     42  CE2      -20.0440   21.0110    6.2160 C.ar  189  TYR189      0.0417
     43  CZ       -21.0740   21.6840    5.5960 C.ar  189  TYR189      0.1957
     44  OH       -21.2480   21.5700    4.2370 O.3   189  TYR189     -0.2866
     45  N        -20.5080   24.2760   12.4360 N.am  190  VAL190     -0.1980
     46  CA       -20.5390   24.3440   13.8970 C.3   190  VAL190      0.1595
     47  C        -21.9520   23.9820   14.3160 C.2   190  VAL190      0.2287
     48  O        -22.8930   24.7410   14.0550 O.2   190  VAL190     -0.2864
     49  CB       -20.1440   25.7230   14.4320 C.3   190  VAL190      0.0276
     50  CG1      -20.0470   25.6810   15.9730 C.3   190  VAL190      0.0022
     51  CG2      -18.8270   26.1840   13.8230 C.3   190  VAL190      0.0022
     52  N        -29.7180   20.9140   15.4020 N.3   195  SER195     -0.1202
     53  CA       -29.4480   21.6290   14.1570 C.3   195  SER195      0.2020
     54  C        -29.2800   20.6280   13.0210 C.2   195  SER195      0.2619
     55  O        -28.6520   19.5810   13.1860 O.2   195  SER195     -0.2717
     56  CB       -28.2090   22.5190   14.2920 C.3   195  SER195      0.2103
     57  OG       -27.0520   21.7520   14.5460 O.3   195  SER195     -0.2182
     58  N        -29.8670   20.9300   11.8610 N.am  196  SER196     -0.1937
     59  CA       -30.0960   19.8500   10.9130 C.3   196  SER196      0.2055
     60  C        -29.8990   20.3330    9.4780 C.2   196  SER196      0.2643
     61  O        -29.9250   21.5330    9.1860 O.2   196  SER196     -0.2714
     62  CB       -31.5010   19.2530   11.0820 C.3   196  SER196      0.2130
     63  OG       -32.5220   20.2130   10.8340 O.3   196  SER196     -0.2179
     64  N        -29.7220   19.3710    8.5770 N.am  197  PHE197     -0.1973
     65  CA       -29.6270   19.6690    7.1540 C.3   197  PHE197      0.1639
     66  C        -30.5460   18.7220    6.4000 C.2   197  PHE197      0.2290
     67  O        -30.6440   17.5420    6.7400 O.2   197  PHE197     -0.2864
     68  CB       -28.1690   19.5730    6.6320 C.3   197  PHE197      0.0560
     69  CG       -27.4430   18.2710    6.9610 C.ar  197  PHE197     -0.0200
     70  CD1      -26.8640   18.0680    8.2100 C.ar  197  PHE197     -0.0042
     71  CD2      -27.2800   17.2890    5.9900 C.ar  197  PHE197     -0.0042
     72  CE1      -26.1690   16.8860    8.4940 C.ar  197  PHE197     -0.0003
     73  CE2      -26.5850   16.1020    6.2570 C.ar  197  PHE197     -0.0003
     74  CZ       -26.0400   15.8900    7.5100 C.ar  197  PHE197     -0.0000
     75  N        -30.3420   16.3030    0.2570 N.3   200  HIS200     -0.1241
     76  CA       -29.7350   16.9430   -0.9040 C.3   200  HIS200      0.1621
     77  C        -28.6730   16.0210   -1.4870 C.2   200  HIS200      0.2264
     78  O        -28.2120   15.0700   -0.8380 O.2   200  HIS200     -0.2867
     79  CB       -29.0970   18.2880   -0.5310 C.3   200  HIS200      0.0745
     80  CG       -27.9260   18.1450    0.3940 C.ar  200  HIS200      0.0817
     81  ND1      -28.0730   17.8850    1.7410 N.ar  200  HIS200     -0.2268
     82  CD2      -26.5900   18.1820    0.1610 C.ar  200  HIS200      0.1154
     83  CE1      -26.8800   17.7830    2.3020 C.ar  200  HIS200      0.1986
     84  NE2      -25.9630   17.9610    1.3670 N.ar  200  HIS200     -0.2212
     85  N        -24.9640   16.6240   -4.0340 N.3   202  GLU202     -0.1245
     86  CA       -23.9610   17.6500   -4.3080 C.3   202  GLU202      0.1567
     87  C        -24.0010   18.0740   -5.7620 C.2   202  GLU202      0.2260
     88  O        -24.4030   17.3050   -6.6380 O.2   202  GLU202     -0.2867
     89  CB       -22.5490   17.1480   -3.9950 C.3   202  GLU202      0.0388
     90  CG       -22.3860   16.5560   -2.6020 C.3   202  GLU202      0.1160
     91  CD       -22.7840   17.5230   -1.4920 C.2   202  GLU202      0.3649
     92  OE1      -22.5020   18.7340   -1.6170 O.co2 202  GLU202     -0.2457
     93  OE2      -23.3980   17.0730   -0.5100 O.co2 202  GLU202     -0.2457
     94  N        -16.5390   14.1500    4.9540 N.3   210  ASN210     -0.1240
     95  CA       -16.7800   15.0190    6.0920 C.3   210  ASN210      0.1653
     96  C        -16.0040   14.4480    7.2640 C.2   210  ASN210      0.2266
     97  O        -16.0730   13.2420    7.5000 O.2   210  ASN210     -0.2867
     98  CB       -18.2810   15.0640    6.4220 C.3   210  ASN210      0.1155
     99  CG       -18.6160   15.9860    7.6010 C.2   210  ASN210      0.2627
    100  OD1      -18.2850   15.7020    8.7520 O.2   210  ASN210     -0.2716
    101  ND2      -19.3290   17.0770    7.3120 N.am  210  ASN210     -0.0877
    102  N        -22.6400   13.4570   15.0430 N.3   218  LYS218     -0.1245
    103  CA       -23.4710   13.9520   13.9510 C.3   218  LYS218      0.1561
    104  C        -24.2050   12.7480   13.3750 C.2   218  LYS218      0.2260
    105  O        -23.5750   11.7610   12.9850 O.2   218  LYS218     -0.2867
    106  CB       -22.6060   14.6450   12.8980 C.3   218  LYS218      0.0271
    107  CG       -23.3850   15.2510   11.7150 C.3   218  LYS218      0.0035
    108  CD       -22.4360   15.7670   10.6110 C.3   218  LYS218      0.0206
    109  CE       -21.4780   16.8410   11.1040 C.3   218  LYS218      0.1093
    110  NZ       -22.2030   18.0890   11.4730 N.3   218  LYS218     -0.1314
    111  N        -26.4190   10.8920   10.6120 N.3   220  TRP220     -0.1241
    112  CA       -26.6130   10.9530    9.1630 C.3   220  TRP220      0.1605
    113  C        -27.6640    9.9510    8.7050 C.2   220  TRP220      0.2264
    114  O        -27.8440    8.8840    9.3040 O.2   220  TRP220     -0.2867
    115  CB       -25.3290   10.6100    8.3820 C.3   220  TRP220      0.0550
    116  CG       -24.1680   11.5170    8.5580 C.ar  220  TRP220      0.0003
    117  CD1      -23.4000   11.6600    9.6850 C.ar  220  TRP220      0.0946
    118  CD2      -23.5980   12.3800    7.5690 C.ar  220  TRP220      0.0152
    119  NE1      -22.4000   12.5720    9.4550 N.ar  220  TRP220     -0.2442
    120  CE2      -22.5010   13.0300    8.1650 C.ar  220  TRP220      0.0810
    121  CE3      -23.9110   12.6680    6.2310 C.ar  220  TRP220      0.0012
    122  CZ2      -21.7200   13.9520    7.4810 C.ar  220  TRP220      0.0191
    123  CZ3      -23.1280   13.5880    5.5490 C.ar  220  TRP220      0.0001
    124  CH2      -22.0460   14.2170    6.1700 C.ar  220  TRP220      0.0015
    125  N        -28.5050   12.6900    1.0320 N.3   288  HIS288     -0.1241
    126  CA       -28.2130   12.5650    2.4500 C.3   288  HIS288      0.1621
    127  C        -28.8160   13.7280    3.2210 C.2   288  HIS288      0.2264
    128  O        -29.1230   14.7900    2.6730 O.2   288  HIS288     -0.2867
    129  CB       -26.6970   12.4480    2.7320 C.3   288  HIS288      0.0745
    130  CG       -25.8670   13.5190    2.1000 C.ar  288  HIS288      0.0817
    131  ND1      -25.5640   13.5290    0.7560 N.ar  288  HIS288     -0.2268
    132  CD2      -25.2650   14.6100    2.6290 C.ar  288  HIS288      0.1154
    133  CE1      -24.8130   14.5830    0.4830 C.ar  288  HIS288      0.1986
    134  NE2      -24.6150   15.2550    1.6040 N.ar  288  HIS288     -0.2212
    135  N        -27.2930   17.2320   14.2560 N.3   292  ASN292     -0.1240
    136  CA       -26.2350   17.1330   15.2440 C.3   292  ASN292      0.1653
    137  C        -26.8070   16.7750   16.6070 C.2   292  ASN292      0.2266
    138  O        -27.8650   17.2690   16.9970 O.2   292  ASN292     -0.2867
    139  CB       -25.4510   18.4440   15.2940 C.3   292  ASN292      0.1155
    140  CG       -24.6850   18.6760   14.0140 C.2   292  ASN292      0.2627
    141  OD1      -23.7910   17.9140   13.6830 O.2   292  ASN292     -0.2716
    142  ND2      -25.0620   19.6960   13.2650 N.am  292  ASN292     -0.0877
@<TRIPOS>BOND
     1    88    87    2
     2    87    86    1
     3    86    85    1
     4    86    89    1
     5    89    90    1
     6    90    91    1
     7    92    91   ar
     8    91    93   ar
     9    77    76    1
    10    77    78    2
    11    76    79    1
    12    76    75    1
    13    79    80    1
    14    82    80   ar
    15    82    84   ar
    16    80    81   ar
    17   133   131   ar
    18   133   134   ar
    19   131   130   ar
    20   125   126    1
    21    84    83   ar
    22   134   132   ar
    23    81    83   ar
    24   130   132   ar
    25   130   129    1
    26   126   129    1
    27   126   127    1
    28   128   127    2
    29    44    43    1
    30    94    95    1
    31   123   124   ar
    32   123   121   ar
    33    43    42   ar
    34    43    41   ar
    35    10     9    1
    36    71    73   ar
    37    71    69   ar
    38    95    98    1
    39    95    96    1
    40    11     9    1
    41   124   122   ar
    42    42    40   ar
    43   121   118   ar
    44    73    74   ar
    45    41    39   ar
    46    66    67    2
    47    66    65    1
    48    98    99    1
    49     9     8    2
    50    68    69    1
    51    68    65    1
    52    69    70   ar
    53    65    64    1
    54    30    31    2
    55    30    29    1
    56    96    97    2
    57   101    99   am
    58   122   120   ar
    59    74    72   ar
    60   118   120   ar
    61   118   116   ar
    62    40    38   ar
    63    99   100    2
    64    39    38   ar
    65    32    29    1
    66     8     7    1
    67    29    28    1
    68   120   119   ar
    69    70    72   ar
    70    23    22    1
    71    38    37    1
    72   115   116    1
    73   115   112    1
    74     7     6    1
    75   116   117   ar
    76    64    60   am
    77   113   112    1
    78   113   114    2
    79   112   111    1
    80    61    60    2
    81   119   117   ar
    82    28    26   am
    83    20    22   ar
    84    20    18   ar
    85    60    59    1
    86    22    21   ar
    87    33    34    1
    88    37    34    1
    89     6     5    1
    90     5     2    1
    91    34    35    1
    92   108   109    1
    93   108   107    1
    94    26    27    2
    95    26    25    1
    96    18    17   ar
    97    21    19   ar
    98    63    62    1
    99    59    62    1
   100    59    58    1
   101   109   110    1
   102     2     1    1
   103     2     3    1
   104   107   106    1
   105    35    36    2
   106    35    45   am
   107    19    17   ar
   108    58    54   am
   109    17    16    1
   110    25    24    1
   111    15    14    2
   112    45    46    1
   113     3     4    2
   114    24    14   am
   115   106   103    1
   116    14    13    1
   117   105   104    2
   118    54    55    2
   119    54    53    1
   120    16    13    1
   121   142   140   am
   122   104   103    1
   123   141   140    2
   124    51    49    1
   125    13    12    1
   126    46    47    1
   127    46    49    1
   128   103   102    1
   129   140   139    1
   130    48    47    2
   131    53    56    1
   132    53    52    1
   133   135   136    1
   134    56    57    1
   135    49    50    1
   136   136   139    1
   137   136   137    1
   138   137   138    2
