@<TRIPOS>MOLECULE
tmp/5ivfA00.pdb
 167 160 0 0 0
SMALL
GASTEIGER

@<TRIPOS>ATOM
      1  N        -26.6690   30.6540   11.6060 N.3    62  ARG62      -0.1245
      2  CA       -28.0020   30.8790   11.0800 C.3    62  ARG62       0.1563
      3  C        -29.0380   30.2240   11.9750 C.2    62  ARG62       0.2260
      4  O        -28.7640   29.2440   12.6690 O.2    62  ARG62      -0.2867
      5  CB       -28.1230   30.3620    9.6530 C.3    62  ARG62       0.0307
      6  CG       -27.9980   28.8840    9.5320 C.3    62  ARG62       0.0489
      7  CD       -28.0490   28.5190    8.0590 C.3    62  ARG62       0.2205
      8  NE       -26.7390   28.5780    7.4200 N.pl3  62  ARG62      -0.0865
      9  CZ       -26.5370   28.3960    6.1180 C.cat  62  ARG62       0.5346
     10  NH1      -27.5650   28.1570    5.3130 N.pl3  62  ARG62       0.1354
     11  NH2      -25.3090   28.4510    5.6230 N.pl3  62  ARG62       0.1354
     12  N        -32.4740   28.2540   12.8630 N.3    64  GLN64      -0.1245
     13  CA       -33.2550   27.1590   12.2930 C.3    64  GLN64       0.1566
     14  C        -34.4790   26.9010   13.1570 C.2    64  GLN64       0.2260
     15  O        -34.3490   26.6030   14.3490 O.2    64  GLN64      -0.2867
     16  CB       -32.4150   25.8820   12.1810 C.3    64  GLN64       0.0367
     17  CG       -31.1840   25.9910   11.2870 C.3    64  GLN64       0.0905
     18  CD       -30.5710   24.6330   11.0200 C.2    64  GLN64       0.2608
     19  OE1      -30.2500   23.8940   11.9510 O.2    64  GLN64      -0.2717
     20  NE2      -30.4250   24.2840    9.7530 N.am   64  GLN64      -0.0878
     21  N        -27.0140   27.2840   13.9060 N.3   135  TYR135     -0.1241
     22  CA       -26.0610   26.4050   13.2380 C.3   135  TYR135      0.1605
     23  C        -24.9790   27.2720   12.6210 C.2   135  TYR135      0.2264
     24  O        -25.2810   28.1100   11.7690 O.2   135  TYR135     -0.2867
     25  CB       -26.7590   25.5760   12.1530 C.3   135  TYR135      0.0534
     26  CG       -26.0280   24.3430   11.6830 C.ar  135  TYR135     -0.0201
     27  CD1      -24.7950   23.9930   12.2020 C.ar  135  TYR135     -0.0009
     28  CD2      -26.5820   23.5300   10.6930 C.ar  135  TYR135     -0.0009
     29  CE1      -24.1360   22.8470   11.7650 C.ar  135  TYR135      0.0417
     30  CE2      -25.9370   22.3930   10.2580 C.ar  135  TYR135      0.0417
     31  CZ       -24.7130   22.0630   10.7990 C.ar  135  TYR135      0.1957
     32  OH       -24.0600   20.9350   10.3740 O.3   135  TYR135     -0.2866
     33  N        -23.0000   27.0640   10.0760 N.3   137  ALA137     -0.1231
     34  CA       -22.8270   26.1960    8.9160 C.3   137  ALA137      0.1694
     35  C        -22.1820   26.9400    7.7560 C.2   137  ALA137      0.2592
     36  O        -22.3280   28.1570    7.6150 O.2   137  ALA137     -0.2718
     37  CB       -24.1730   25.6230    8.4710 C.3   137  ALA137      0.0304
     38  N        -21.4710   26.1800    6.9190 N.am  138  ASP138     -0.1974
     39  CA       -20.8980   26.6920    5.6760 C.3   138  ASP138      0.1709
     40  C        -19.9420   27.8540    5.9470 C.2   138  ASP138      0.2293
     41  O        -20.0090   28.9100    5.3180 O.2   138  ASP138     -0.2864
     42  CB       -21.9990   27.0960    4.6890 C.3   138  ASP138      0.1436
     43  CG       -22.9480   25.9510    4.3710 C.2   138  ASP138      0.3671
     44  OD1      -22.4770   24.8540    3.9930 O.co2 138  ASP138     -0.2456
     45  OD2      -24.1730   26.1470    4.5080 O.co2 138  ASP138     -0.2456
     46  N        -18.3430   23.4470    9.9140 N.3   192  TYR192     -0.1241
     47  CA       -19.7050   23.3420   10.4410 C.3   192  TYR192      0.1605
     48  C        -19.6240   23.2310   11.9540 C.2   192  TYR192      0.2264
     49  O        -19.1110   22.2320   12.4630 O.2   192  TYR192     -0.2867
     50  CB       -20.4290   22.1250    9.8470 C.3   192  TYR192      0.0534
     51  CG       -20.5510   22.2400    8.3400 C.ar  192  TYR192     -0.0201
     52  CD1      -19.5300   21.8080    7.5110 C.ar  192  TYR192     -0.0009
     53  CD2      -21.6660   22.8290    7.7650 C.ar  192  TYR192     -0.0009
     54  CE1      -19.6220   21.9530    6.1240 C.ar  192  TYR192      0.0417
     55  CE2      -21.7690   22.9730    6.3900 C.ar  192  TYR192      0.0417
     56  CZ       -20.7510   22.5310    5.5860 C.ar  192  TYR192      0.1957
     57  OH       -20.8610   22.6990    4.2280 O.3   192  TYR192     -0.2866
     58  N        -29.3460   21.0800   11.7630 N.3   199  SER199     -0.1202
     59  CA       -29.6240   20.0350   10.7870 C.3   199  SER199      0.2020
     60  C        -29.4010   20.5270    9.3660 C.2   199  SER199      0.2619
     61  O        -29.2860   21.7260    9.0990 O.2   199  SER199     -0.2717
     62  CB       -31.0660   19.5220   10.9430 C.3   199  SER199      0.2103
     63  OG       -32.0140   20.5250   10.5860 O.3   199  SER199     -0.2182
     64  N        -29.3580   19.5600    8.4490 N.am  200  PHE200     -0.1961
     65  CA       -29.2790   19.8250    7.0180 C.3   200  PHE200      0.1771
     66  C        -30.2640   18.8970    6.3200 C.2   200  PHE200      0.2619
     67  O        -30.4200   17.7450    6.7230 O.2   200  PHE200     -0.2715
     68  CB       -27.8290   19.6620    6.5020 C.3   200  PHE200      0.0574
     69  CG       -27.2060   18.2910    6.7370 C.ar  200  PHE200     -0.0200
     70  CD1      -26.6750   17.9510    7.9760 C.ar  200  PHE200     -0.0042
     71  CD2      -27.1000   17.3730    5.6980 C.ar  200  PHE200     -0.0042
     72  CE1      -26.0740   16.7090    8.1920 C.ar  200  PHE200     -0.0003
     73  CE2      -26.4920   16.1420    5.8950 C.ar  200  PHE200     -0.0003
     74  CZ       -25.9930   15.7950    7.1470 C.ar  200  PHE200     -0.0000
     75  N        -30.9670   19.4000    5.3090 N.am  201  CYS201     -0.1968
     76  CA       -32.0060   18.5810    4.7060 C.3   201  CYS201      0.1712
     77  C        -31.4550   17.7920    3.5210 C.2   201  CYS201      0.2296
     78  O        -30.2820   17.8910    3.1550 O.2   201  CYS201     -0.2864
     79  CB       -33.1950   19.4370    4.2880 C.3   201  CYS201      0.0983
     80  SG       -32.7650   20.6920    3.1080 S.3   201  CYS201     -0.0798
     81  N        -30.2320   16.2730    0.1870 N.3   203  HIS203     -0.1226
     82  CA       -29.6460   16.9090   -0.9870 C.3   203  HIS203      0.1752
     83  C        -28.5960   15.9880   -1.5920 C.2   203  HIS203      0.2596
     84  O        -28.1470   15.0170   -0.9690 O.2   203  HIS203     -0.2718
     85  CB       -29.0020   18.2470   -0.6200 C.3   203  HIS203      0.0759
     86  CG       -27.7940   18.0720    0.2390 C.ar  203  HIS203      0.0818
     87  ND1      -27.8820   17.7940    1.5880 N.ar  203  HIS203     -0.2268
     88  CD2      -26.4760   18.0670   -0.0640 C.ar  203  HIS203      0.1154
     89  CE1      -26.6670   17.6350    2.0800 C.ar  203  HIS203      0.1986
     90  NE2      -25.7970   17.7860    1.0980 N.ar  203  HIS203     -0.2212
     91  N        -28.2150   16.3050   -2.8290 N.am  204  ILE204     -0.1966
     92  CA       -27.0220   15.7460   -3.4430 C.3   204  ILE204      0.1727
     93  C        -26.1000   16.9130   -3.7740 C.2   204  ILE204      0.2616
     94  O        -26.4780   18.0800   -3.6560 O.2   204  ILE204     -0.2715
     95  CB       -27.3490   14.9120   -4.6950 C.3   204  ILE204      0.0290
     96  CG1      -28.2600   15.7140   -5.6330 C.3   204  ILE204      0.0022
     97  CG2      -28.0030   13.5750   -4.2780 C.3   204  ILE204      0.0023
     98  CD1      -28.6640   14.9460   -6.9070 C.3   204  ILE204      0.0001
     99  N        -24.8760   16.5860   -4.1750 N.am  205  GLU205     -0.1977
    100  CA       -23.8700   17.5990   -4.4510 C.3   205  GLU205      0.1602
    101  C        -23.9470   18.0700   -5.8960 C.2   205  GLU205      0.2287
    102  O        -24.4140   17.3550   -6.7880 O.2   205  GLU205     -0.2864
    103  CB       -22.4690   17.0570   -4.1810 C.3   205  GLU205      0.0415
    104  CG       -22.3290   16.4260   -2.8190 C.3   205  GLU205      0.1163
    105  CD       -22.6350   17.4250   -1.7040 C.2   205  GLU205      0.3649
    106  OE1      -22.2100   18.6020   -1.7970 O.co2 205  GLU205     -0.2457
    107  OE2      -23.3260   17.0380   -0.7490 O.co2 205  GLU205     -0.2457
    108  N        -18.4460   13.4060   -1.6650 N.3   211  SER211     -0.1217
    109  CA       -18.0380   14.3190   -0.6200 C.3   211  SER211      0.1889
    110  C        -17.4800   13.5090    0.5420 C.2   211  SER211      0.2288
    111  O        -17.7550   12.3120    0.6900 O.2   211  SER211     -0.2866
    112  CB       -19.1940   15.2130   -0.1610 C.3   211  SER211      0.2089
    113  OG       -19.9980   14.5630    0.8140 O.3   211  SER211     -0.2183
    114  N        -16.3850   14.0110    4.8660 N.3   213  ASN213     -0.1240
    115  CA       -16.6770   14.8360    6.0330 C.3   213  ASN213      0.1653
    116  C        -15.8750   14.2700    7.1870 C.2   213  ASN213      0.2266
    117  O        -15.8740   13.0580    7.3850 O.2   213  ASN213     -0.2867
    118  CB       -18.1780   14.8010    6.3770 C.3   213  ASN213      0.1155
    119  CG       -18.5710   15.7540    7.5280 C.2   213  ASN213      0.2627
    120  OD1      -18.1890   15.5610    8.6960 O.2   213  ASN213     -0.2716
    121  ND2      -19.3940   16.7550    7.2040 N.am  213  ASN213     -0.0877
    122  N        -22.5500   13.5640   14.8870 N.3   221  LYS221     -0.1245
    123  CA       -23.3930   14.0490   13.8040 C.3   221  LYS221      0.1561
    124  C        -24.1330   12.8330   13.2700 C.2   221  LYS221      0.2260
    125  O        -23.5000   11.8310   12.9210 O.2   221  LYS221     -0.2867
    126  CB       -22.5400   14.7090   12.7200 C.3   221  LYS221      0.0271
    127  CG       -23.3220   15.3130   11.5400 C.3   221  LYS221      0.0035
    128  CD       -22.3570   15.8030   10.4570 C.3   221  LYS221      0.0206
    129  CE       -21.5610   17.0500   10.8960 C.3   221  LYS221      0.1093
    130  NZ       -22.4490   18.2240   11.1350 N.3   221  LYS221     -0.1314
    131  N        -26.3900   10.9220   10.5670 N.3   223  TRP223     -0.1241
    132  CA       -26.5710   10.9790    9.1210 C.3   223  TRP223      0.1605
    133  C        -27.6590   10.0210    8.6630 C.2   223  TRP223      0.2264
    134  O        -27.8400    8.9450    9.2300 O.2   223  TRP223     -0.2867
    135  CB       -25.3070   10.5730    8.3640 C.3   223  TRP223      0.0550
    136  CG       -24.1610   11.4550    8.5110 C.ar  223  TRP223      0.0003
    137  CD1      -23.4100   11.6600    9.6430 C.ar  223  TRP223      0.0946
    138  CD2      -23.5680   12.2490    7.4830 C.ar  223  TRP223      0.0152
    139  NE1      -22.4010   12.5580    9.3800 N.ar  223  TRP223     -0.2442
    140  CE2      -22.4680   12.9250    8.0580 C.ar  223  TRP223      0.0810
    141  CE3      -23.8610   12.4560    6.1300 C.ar  223  TRP223      0.0012
    142  CZ2      -21.6700   13.7990    7.3350 C.ar  223  TRP223      0.0191
    143  CZ3      -23.0590   13.3210    5.4050 C.ar  223  TRP223      0.0001
    144  CH2      -21.9740   13.9780    6.0030 C.ar  223  TRP223      0.0015
    145  N        -33.1090   23.4480   -0.5770 N.3   256  LEU256     -0.1245
    146  CA       -33.0020   24.2640    0.6190 C.3   256  LEU256      0.1561
    147  C        -34.0820   23.9310    1.6420 C.2   256  LEU256      0.2260
    148  O        -33.9260   24.2780    2.8140 O.2   256  LEU256     -0.2867
    149  CB       -33.0760   25.7500    0.2480 C.3   256  LEU256      0.0270
    150  CG       -32.0340   26.2220   -0.7740 C.3   256  LEU256      0.0019
    151  CD1      -32.1980   27.7100   -1.0780 C.3   256  LEU256      0.0001
    152  CD2      -30.6150   25.9300   -0.2990 C.3   256  LEU256      0.0001
    153  N        -28.4130   12.7510    1.0090 N.3   291  HIS291     -0.1241
    154  CA       -28.1130   12.6400    2.4350 C.3   291  HIS291      0.1621
    155  C        -28.6910   13.8260    3.1950 C.2   291  HIS291      0.2264
    156  O        -28.9450   14.8990    2.6480 O.2   291  HIS291     -0.2867
    157  CB       -26.6010   12.4830    2.6940 C.3   291  HIS291      0.0745
    158  CG       -25.7380   13.5160    2.0380 C.ar  291  HIS291      0.0817
    159  ND1      -25.4850   13.5330    0.6770 N.ar  291  HIS291     -0.2268
    160  CD2      -25.0380   14.5490    2.5620 C.ar  291  HIS291      0.1154
    161  CE1      -24.6820   14.5460    0.3960 C.ar  291  HIS291      0.1986
    162  NE2      -24.3930   15.1770    1.5220 N.ar  291  HIS291     -0.2212
    163  N        -15.8190   19.6040    5.7450 N.3   303  ALA303     -0.1245
    164  CA       -16.2830   18.8080    4.6160 C.3   303  ALA303      0.1562
    165  C        -15.7900   19.4030    3.3060 C.2   303  ALA303      0.2260
    166  O        -15.5730   20.6100    3.2010 O.2   303  ALA303     -0.2867
    167  CB       -17.8110   18.7140    4.6030 C.3   303  ALA303      0.0290
@<TRIPOS>BOND
     1    98    96    1
     2   102   101    2
     3   101   100    1
     4    96    95    1
     5    95    97    1
     6    95    92    1
     7   100   103    1
     8   100    99    1
     9   103   104    1
    10    99    93   am
    11    93    94    2
    12    93    92    1
    13    92    91    1
    14    91    83   am
    15   104   105    1
    16   106   105   ar
    17   105   107   ar
    18   108   109    1
    19    83    82    1
    20    83    84    2
    21   151   150    1
    22    82    85    1
    23    82    81    1
    24   150   152    1
    25   150   149    1
    26    85    86    1
    27   109   112    1
    28   109   110    1
    29   145   146    1
    30   112   113    1
    31    88    86   ar
    32    88    90   ar
    33    86    87   ar
    34   149   146    1
    35   161   159   ar
    36   161   162   ar
    37   110   111    2
    38   146   147    1
    39   159   158   ar
    40   153   154    1
    41    90    89   ar
    42   162   160   ar
    43    87    89   ar
    44   147   148    2
    45   158   160   ar
    46   158   157    1
    47   154   157    1
    48   154   155    1
    49   156   155    2
    50    80    79    1
    51    78    77    2
    52   166   165    2
    53   165   164    1
    54    77    76    1
    55    44    43   ar
    56    57    56    1
    57    79    76    1
    58    43    45   ar
    59    43    42    1
    60   167   164    1
    61   164   163    1
    62    42    39    1
    63    76    75    1
    64   114   115    1
    65    75    66   am
    66    10     9    1
    67    41    40    2
    68   143   144   ar
    69   143   141   ar
    70    56    54   ar
    71    56    55   ar
    72    11     9    1
    73    39    40    1
    74    39    38    1
    75    71    73   ar
    76    71    69   ar
    77    73    74   ar
    78   144   142   ar
    79   115   118    1
    80   115   116    1
    81     9     8    2
    82    54    52   ar
    83   141   138   ar
    84    66    67    2
    85    66    65    1
    86   118   119    1
    87    55    53   ar
    88    68    69    1
    89    68    65    1
    90    69    70   ar
    91    38    35   am
    92    65    64    1
    93    74    72   ar
    94   116   117    2
    95   121   119   am
    96   142   140   ar
    97     8     7    1
    98   138   140   ar
    99   138   136   ar
   100    52    51   ar
   101   119   120    2
   102    36    35    2
   103    35    34    1
   104    53    51   ar
   105    70    72   ar
   106   140   139   ar
   107     7     6    1
   108    51    50    1
   109   135   136    1
   110   135   132    1
   111    64    60   am
   112    37    34    1
   113   136   137   ar
   114   133   132    1
   115   133   134    2
   116    34    33    1
   117    61    60    2
   118   132   131    1
   119    60    59    1
   120   139   137   ar
   121     6     5    1
   122     5     2    1
   123    20    18   am
   124    50    47    1
   125    46    47    1
   126    30    28   ar
   127    30    31   ar
   128    32    31    1
   129    47    48    1
   130   128   129    1
   131   128   127    1
   132    63    62    1
   133    28    26   ar
   134    59    62    1
   135    59    58    1
   136    31    29   ar
   137   129   130    1
   138    18    17    1
   139    18    19    2
   140     2     1    1
   141     2     3    1
   142    17    16    1
   143   127   126    1
   144    26    25    1
   145    26    27   ar
   146    29    27   ar
   147    24    23    2
   148    48    49    2
   149     3     4    2
   150    25    22    1
   151    16    13    1
   152    13    12    1
   153    13    14    1
   154    23    22    1
   155   126   123    1
   156   125   124    2
   157    14    15    2
   158    22    21    1
   159   124   123    1
   160   123   122    1
