@<TRIPOS>MOLECULE
tmp/5ivjA00.pdb
 158 149 0 0 0
SMALL
GASTEIGER

@<TRIPOS>ATOM
      1  N        -26.9330   30.6470   11.5310 N.3    62  ARG62      -0.1245
      2  CA       -28.2620   30.8770   10.9850 C.3    62  ARG62       0.1563
      3  C        -29.3190   30.2330   11.8620 C.2    62  ARG62       0.2260
      4  O        -29.1030   29.1850   12.4650 O.2    62  ARG62      -0.2867
      5  CB       -28.3620   30.3090    9.5500 C.3    62  ARG62       0.0307
      6  CG       -28.2370   28.7880    9.4870 C.3    62  ARG62       0.0489
      7  CD       -28.2270   28.4580    7.9510 C.3    62  ARG62       0.2205
      8  NE       -26.9220   28.8180    7.4140 N.pl3  62  ARG62      -0.0865
      9  CZ       -26.5890   28.7750    6.1150 C.cat  62  ARG62       0.5346
     10  NH1      -27.5070   28.4710    5.2320 N.pl3  62  ARG62       0.1354
     11  NH2      -25.3580   29.0800    5.7320 N.pl3  62  ARG62       0.1354
     12  N        -32.5860   28.1120   12.6030 N.3    64  GLN64      -0.1245
     13  CA       -33.3400   27.0050   12.0180 C.3    64  GLN64       0.1566
     14  C        -34.5930   26.7130   12.8420 C.2    64  GLN64       0.2260
     15  O        -34.4980   26.2980   14.0070 O.2    64  GLN64      -0.2867
     16  CB       -32.4710   25.7560   11.9370 C.3    64  GLN64       0.0367
     17  CG       -31.1980   25.9340   11.0830 C.3    64  GLN64       0.0905
     18  CD       -30.5060   24.6150   10.8370 C.2    64  GLN64       0.2608
     19  OE1      -30.2930   23.8310   11.7610 O.2    64  GLN64      -0.2717
     20  NE2      -30.1150   24.3460    9.5680 N.am   64  GLN64      -0.0878
     21  N        -27.3280   27.1830   13.7040 N.3   129  TYR129     -0.1241
     22  CA       -26.2780   26.3580   13.1270 C.3   129  TYR129      0.1605
     23  C        -25.1930   27.2390   12.5290 C.2   129  TYR129      0.2264
     24  O        -25.4770   28.0460   11.6340 O.2   129  TYR129     -0.2867
     25  CB       -26.9050   25.4330   12.0460 C.3   129  TYR129      0.0534
     26  CG       -26.0960   24.2200   11.6080 C.ar  129  TYR129     -0.0201
     27  CD1      -24.8850   23.8800   12.2350 C.ar  129  TYR129     -0.0009
     28  CD2      -26.5580   23.3940   10.5580 C.ar  129  TYR129     -0.0009
     29  CE1      -24.1970   22.7120   11.8840 C.ar  129  TYR129      0.0417
     30  CE2      -25.8730   22.2690   10.1780 C.ar  129  TYR129      0.0417
     31  CZ       -24.6600   21.9220   10.8250 C.ar  129  TYR129      0.1957
     32  OH       -23.9920   20.7640   10.4760 O.3   129  TYR129     -0.2866
     33  N        -23.2390   27.1990    9.9500 N.3   131  ALA131     -0.1231
     34  CA       -23.1090   26.3330    8.7730 C.3   131  ALA131      0.1694
     35  C        -22.4040   27.0890    7.6610 C.2   131  ALA131      0.2592
     36  O        -22.5360   28.3130    7.5380 O.2   131  ALA131     -0.2718
     37  CB       -24.4980   25.8650    8.3230 C.3   131  ALA131      0.0304
     38  N        -21.6330   26.3390    6.8480 N.am  132  ASP132     -0.1974
     39  CA       -21.0510   26.8900    5.5980 C.3   132  ASP132      0.1709
     40  C        -20.1050   28.0380    5.9140 C.2   132  ASP132      0.2293
     41  O        -20.1480   29.1260    5.3060 O.2   132  ASP132     -0.2864
     42  CB       -22.1310   27.3560    4.6220 C.3   132  ASP132      0.1436
     43  CG       -22.8500   26.2220    3.9670 C.2   132  ASP132      0.3671
     44  OD1      -22.3370   25.0910    4.0270 O.co2 132  ASP132     -0.2456
     45  OD2      -23.9280   26.4630    3.3790 O.co2 132  ASP132     -0.2456
     46  N        -18.6250   23.4590    9.8040 N.3   180  TYR180     -0.1241
     47  CA       -19.9870   23.3860   10.3470 C.3   180  TYR180      0.1605
     48  C        -19.8760   23.3000   11.8650 C.2   180  TYR180      0.2264
     49  O        -19.3620   22.2980   12.3760 O.2   180  TYR180     -0.2867
     50  CB       -20.7300   22.1510    9.8090 C.3   180  TYR180      0.0534
     51  CG       -20.8860   22.2210    8.3060 C.ar  180  TYR180     -0.0201
     52  CD1      -21.9870   22.8740    7.7560 C.ar  180  TYR180     -0.0009
     53  CD2      -19.8560   21.7650    7.4670 C.ar  180  TYR180     -0.0009
     54  CE1      -22.0860   23.0020    6.3600 C.ar  180  TYR180      0.0417
     55  CE2      -19.9580   21.9140    6.0780 C.ar  180  TYR180      0.0417
     56  CZ       -21.0810   22.5240    5.5750 C.ar  180  TYR180      0.1957
     57  OH       -21.1910   22.7090    4.2030 O.3   180  TYR180     -0.2866
     58  N        -29.3580   21.0590   11.7080 N.3   187  SER187     -0.1202
     59  CA       -29.5920   20.0030   10.7260 C.3   187  SER187      0.2020
     60  C        -29.3130   20.4470    9.3000 C.2   187  SER187      0.2618
     61  O        -29.1570   21.6270    8.9790 O.2   187  SER187     -0.2717
     62  CB       -31.0490   19.5010   10.8460 C.3   187  SER187      0.2103
     63  OG       -31.9710   20.4850   10.3880 O.3   187  SER187     -0.2182
     64  N        -29.2290   19.4490    8.4500 N.am  188  PHE188     -0.1975
     65  CA       -29.1100   19.6620    7.0110 C.3   188  PHE188      0.1639
     66  C        -30.1200   18.7910    6.2800 C.2   188  PHE188      0.2290
     67  O        -30.2670   17.6190    6.5980 O.2   188  PHE188     -0.2864
     68  CB       -27.6690   19.4020    6.4890 C.3   188  PHE188      0.0560
     69  CG       -27.0390   18.0490    6.8620 C.ar  188  PHE188     -0.0200
     70  CD1      -26.5030   17.8250    8.1230 C.ar  188  PHE188     -0.0042
     71  CD2      -26.9380   17.0270    5.8780 C.ar  188  PHE188     -0.0042
     72  CE1      -25.8540   16.5930    8.4440 C.ar  188  PHE188     -0.0003
     73  CE2      -26.3140   15.8320    6.1760 C.ar  188  PHE188     -0.0003
     74  CZ       -25.7930   15.5920    7.4630 C.ar  188  PHE188     -0.0000
     75  N        -30.1670   16.2980    0.1920 N.3   191  HIS191     -0.1241
     76  CA       -29.5900   16.8820   -1.0240 C.3   191  HIS191      0.1621
     77  C        -28.5500   15.9450   -1.5990 C.2   191  HIS191      0.2264
     78  O        -28.1290   14.9610   -0.9460 O.2   191  HIS191     -0.2867
     79  CB       -28.8950   18.2310   -0.7280 C.3   191  HIS191      0.0745
     80  CG       -27.7040   18.1070    0.1680 C.ar  191  HIS191      0.0817
     81  ND1      -27.8520   17.8790    1.5210 N.ar  191  HIS191     -0.2268
     82  CD2      -26.3630   18.0930   -0.0660 C.ar  191  HIS191      0.1154
     83  CE1      -26.6610   17.7700    2.0850 C.ar  191  HIS191      0.1986
     84  NE2      -25.7330   17.9030    1.1560 N.ar  191  HIS191     -0.2212
     85  N        -24.8180   16.4590   -4.1140 N.3   193  GLU193     -0.1245
     86  CA       -23.8110   17.4800   -4.3760 C.3   193  GLU193      0.1567
     87  C        -23.9030   18.0170   -5.7990 C.2   193  GLU193      0.2260
     88  O        -24.3420   17.3380   -6.7440 O.2   193  GLU193     -0.2867
     89  CB       -22.3870   16.9610   -4.1650 C.3   193  GLU193      0.0388
     90  CG       -22.1920   16.3360   -2.7710 C.3   193  GLU193      0.1160
     91  CD       -22.6140   17.2810   -1.6210 C.2   193  GLU193      0.3649
     92  OE1      -22.4080   18.5200   -1.7050 O.co2 193  GLU193     -0.2457
     93  OE2      -23.1660   16.7710   -0.6160 O.co2 193  GLU193     -0.2457
     94  N        -18.5670   13.3780   -1.6530 N.3   199  SER199     -0.1217
     95  CA       -18.0830   14.2830   -0.6160 C.3   199  SER199      0.1889
     96  C        -17.4600   13.4910    0.5360 C.2   199  SER199      0.2288
     97  O        -17.7280   12.2800    0.7200 O.2   199  SER199     -0.2866
     98  CB       -19.1930   15.1860   -0.0610 C.3   199  SER199      0.2089
     99  OG       -20.0470   14.5500    0.8890 O.3   199  SER199     -0.2183
    100  N        -16.3900   14.0150    4.7770 N.3   201  ASN201     -0.1240
    101  CA       -16.8000   14.8060    5.9240 C.3   201  ASN201      0.1653
    102  C        -16.0180   14.3080    7.1230 C.2   201  ASN201      0.2266
    103  O        -16.0370   13.1160    7.3940 O.2   201  ASN201     -0.2867
    104  CB       -18.3140   14.6060    6.1220 C.3   201  ASN201      0.1155
    105  CG       -19.1120   14.9750    4.8830 C.2   201  ASN201      0.2627
    106  OD1      -19.6280   16.0880    4.8080 O.2   201  ASN201     -0.2716
    107  ND2      -19.2180   14.0550    3.8730 N.am  201  ASN201     -0.0877
    108  N        -22.6100   13.5030   14.9250 N.3   209  LYS209     -0.1245
    109  CA       -23.4560   13.9860   13.8380 C.3   209  LYS209      0.1561
    110  C        -24.2210   12.7770   13.3120 C.2   209  LYS209      0.2260
    111  O        -23.6000   11.7800   12.9340 O.2   209  LYS209     -0.2867
    112  CB       -22.5920   14.6330   12.7710 C.3   209  LYS209      0.0271
    113  CG       -23.3620   15.1850   11.5220 C.3   209  LYS209      0.0035
    114  CD       -22.3960   15.7820   10.4780 C.3   209  LYS209      0.0206
    115  CE       -21.5840   16.9690   11.0320 C.3   209  LYS209      0.1093
    116  NZ       -22.4620   18.2370   11.1870 N.3   209  LYS209     -0.1314
    117  N        -26.4980   10.8320   10.6030 N.3   211  TRP211     -0.1241
    118  CA       -26.6370   10.9160    9.1500 C.3   211  TRP211      0.1605
    119  C        -27.7100    9.9380    8.6630 C.2   211  TRP211      0.2264
    120  O        -27.8830    8.8620    9.2500 O.2   211  TRP211     -0.2867
    121  CB       -25.3570   10.4300    8.4370 C.3   211  TRP211      0.0550
    122  CG       -24.2000   11.3280    8.5570 C.ar  211  TRP211      0.0003
    123  CD1      -23.4200   11.5450    9.6910 C.ar  211  TRP211      0.0946
    124  CD2      -23.6690   12.1540    7.5240 C.ar  211  TRP211      0.0152
    125  NE1      -22.4410   12.4690    9.4090 N.ar  211  TRP211     -0.2442
    126  CE2      -22.5440   12.8410    8.0800 C.ar  211  TRP211      0.0810
    127  CE3      -24.0170   12.3560    6.1680 C.ar  211  TRP211      0.0012
    128  CZ2      -21.7800   13.7380    7.3410 C.ar  211  TRP211      0.0191
    129  CZ3      -23.2600   13.2350    5.4160 C.ar  211  TRP211      0.0001
    130  CH2      -22.1470   13.9160    5.9930 C.ar  211  TRP211      0.0015
    131  N        -33.1170   23.5060   -0.6660 N.3   244  LEU244     -0.1245
    132  CA       -33.0110   24.3040    0.5370 C.3   244  LEU244      0.1561
    133  C        -34.0640   23.9290    1.5710 C.2   244  LEU244      0.2260
    134  O        -33.8990   24.2810    2.7370 O.2   244  LEU244     -0.2867
    135  CB       -33.1530   25.8000    0.1940 C.3   244  LEU244      0.0270
    136  CG       -32.1020   26.2590   -0.8200 C.3   244  LEU244      0.0019
    137  CD1      -32.3380   27.7290   -1.0920 C.3   244  LEU244      0.0001
    138  CD2      -30.6550   26.0360   -0.3690 C.3   244  LEU244      0.0001
    139  N        -28.4420   12.6830    0.9700 N.3   279  HIS279     -0.1241
    140  CA       -28.1480   12.5630    2.4000 C.3   279  HIS279      0.1621
    141  C        -28.7300   13.7550    3.1550 C.2   279  HIS279      0.2264
    142  O        -28.9700   14.8270    2.5980 O.2   279  HIS279     -0.2867
    143  CB       -26.6270   12.3860    2.6540 C.3   279  HIS279      0.0745
    144  CG       -25.7570   13.4200    2.0280 C.ar  279  HIS279      0.0817
    145  ND1      -25.5000   13.4170    0.6570 N.ar  279  HIS279     -0.2268
    146  CD2      -25.1730   14.5370    2.5290 C.ar  279  HIS279      0.1154
    147  CE1      -24.7280   14.4620    0.3740 C.ar  279  HIS279      0.1986
    148  NE2      -24.5050   15.1530    1.4920 N.ar  279  HIS279     -0.2212
    149  N        -17.3990   20.1930   12.3900 N.3   289  ALA289     -0.1245
    150  CA       -17.1940   19.3180   11.2430 C.3   289  ALA289      0.1562
    151  C        -16.5730   20.1060   10.0840 C.2   289  ALA289      0.2260
    152  O        -16.7060   21.3320    9.9970 O.2   289  ALA289     -0.2867
    153  CB       -18.5370   18.6900   10.8080 C.3   289  ALA289      0.0290
    154  N        -16.0020   19.6400    5.6870 N.3   291  ALA291     -0.1245
    155  CA       -16.4630   18.8380    4.5520 C.3   291  ALA291      0.1562
    156  C        -15.9250   19.3950    3.2400 C.2   291  ALA291      0.2260
    157  O        -15.7180   20.6040    3.0840 O.2   291  ALA291     -0.2867
    158  CB       -17.9940   18.7950    4.4800 C.3   291  ALA291      0.0290
@<TRIPOS>BOND
     1    88    87    2
     2    87    86    1
     3    86    89    1
     4    86    85    1
     5    89    90    1
     6    90    91    1
     7    92    91   ar
     8    94    95    1
     9    91    93   ar
    10    77    76    1
    11    77    78    2
    12   137   136    1
    13    76    79    1
    14    76    75    1
    15   136   138    1
    16   136   135    1
    17    79    80    1
    18   131   132    1
    19    95    98    1
    20    95    96    1
    21    82    80   ar
    22    82    84   ar
    23    98    99    1
    24    80    81   ar
    25   135   132    1
    26   147   145   ar
    27   147   148   ar
    28    96    97    2
    29   132   133    1
    30   145   144   ar
    31   139   140    1
    32    84    83   ar
    33   148   146   ar
    34    81    83   ar
    35   133   134    2
    36   144   146   ar
    37   144   143    1
    38   140   143    1
    39   140   141    1
    40   142   141    2
    41   157   156    2
    42   156   155    1
    43    45    43   ar
    44   107   105   am
    45    43    44   ar
    46    43    42    1
    47    57    56    1
    48   158   155    1
    49   155   154    1
    50    42    39    1
    51   100   101    1
    52   106   105    2
    53   105   104    1
    54    10     9    1
    55    41    40    2
    56   129   130   ar
    57   129   127   ar
    58    56    55   ar
    59    56    54   ar
    60    39    40    1
    61    39    38    1
    62    11     9    1
    63    71    73   ar
    64    71    69   ar
    65   101   104    1
    66   101   102    1
    67   130   128   ar
    68    55    53   ar
    69     9     8    2
    70   127   124   ar
    71    73    74   ar
    72    66    67    2
    73    66    65    1
    74    54    52   ar
    75    68    69    1
    76    68    65    1
    77    38    35   am
    78    69    70   ar
    79    65    64    1
    80   102   103    2
    81   128   126   ar
    82     8     7    1
    83    74    72   ar
    84    53    51   ar
    85   124   126   ar
    86   124   122   ar
    87    36    35    2
    88    35    34    1
    89    52    51   ar
    90     7     6    1
    91   126   125   ar
    92    70    72   ar
    93    51    50    1
    94    37    34    1
    95   121   122    1
    96   121   118    1
    97    64    60   am
    98   122   123   ar
    99   119   118    1
   100   119   120    2
   101    34    33    1
   102    61    60    2
   103   118   117    1
   104    60    59    1
   105   125   123   ar
   106     6     5    1
   107     5     2    1
   108    20    18   am
   109    46    47    1
   110    50    47    1
   111   152   151    2
   112   151   150    1
   113    30    28   ar
   114    30    31   ar
   115    47    48    1
   116    63    62    1
   117    32    31    1
   118   114   115    1
   119   114   113    1
   120    28    26   ar
   121    59    62    1
   122    59    58    1
   123   153   150    1
   124    31    29   ar
   125    18    17    1
   126    18    19    2
   127     2     1    1
   128     2     3    1
   129   115   116    1
   130    17    16    1
   131   150   149    1
   132   113   112    1
   133    26    25    1
   134    26    27   ar
   135    24    23    2
   136     3     4    2
   137    48    49    2
   138    29    27   ar
   139    16    13    1
   140    13    12    1
   141    13    14    1
   142    25    22    1
   143    23    22    1
   144   112   109    1
   145    14    15    2
   146   111   110    2
   147    22    21    1
   148   110   109    1
   149   109   108    1
