@<TRIPOS>MOLECULE
tmp/5ivoA00.pdb
 121 118 0 0 0
SMALL
GASTEIGER

@<TRIPOS>ATOM
      1  N         15.0080   -2.5850   -8.7080 N.3    33  GLY33      -0.1225
      2  CA        14.8300   -2.7630   -7.2970 C.3    33  GLY33       0.1811
      3  C         15.5020   -1.6710   -6.4990 C.2    33  GLY33       0.2280
      4  O         16.5320   -1.2160   -6.8890 O.2    33  GLY33      -0.2866
      5  N         17.1980   -1.0670   -2.7700 N.3    35  PHE35      -0.1241
      6  CA        17.8000   -1.8210   -1.6750 C.3    35  PHE35       0.1605
      7  C         18.2970   -0.8450   -0.6130 C.2    35  PHE35       0.2264
      8  O         18.4580    0.3440   -0.8900 O.2    35  PHE35      -0.2867
      9  CB        18.9840   -2.6610   -2.1760 C.3    35  PHE35       0.0534
     10  CG        18.6220   -3.6150   -3.2940 C.ar   35  PHE35      -0.0203
     11  CD1       18.4340   -3.1540   -4.5900 C.ar   35  PHE35      -0.0042
     12  CD2       18.4720   -4.9720   -3.0380 C.ar   35  PHE35      -0.0042
     13  CE1       18.0950   -4.0350   -5.6270 C.ar   35  PHE35      -0.0003
     14  CE2       18.1260   -5.8520   -4.0680 C.ar   35  PHE35      -0.0003
     15  CZ        17.9350   -5.3760   -5.3580 C.ar   35  PHE35      -0.0000
     16  N         16.4390   -5.9250    0.3170 N.3    45  GLY45      -0.1210
     17  CA        15.5720   -5.4210   -0.7260 C.3    45  GLY45       0.1956
     18  C         14.4220   -4.6700   -0.0960 C.2    45  GLY45       0.2612
     19  O         13.8370   -5.1360    0.8900 O.2    45  GLY45      -0.2717
     20  N         14.1100   -3.5000   -0.6500 N.am   46  VAL46      -0.1965
     21  CA        13.0400   -2.6560   -0.1320 C.3    46  VAL46       0.1727
     22  C         11.7940   -2.6810   -1.0130 C.2    46  VAL46       0.2617
     23  O         10.6730   -2.8430   -0.5280 O.2    46  VAL46      -0.2715
     24  CB        13.5560   -1.1960    0.0130 C.3    46  VAL46       0.0290
     25  CG1       12.4340   -0.2500    0.3400 C.3    46  VAL46       0.0023
     26  CG2       14.6520   -1.1500    1.0860 C.3    46  VAL46       0.0023
     27  N         11.9990   -2.4940   -2.3110 N.am   47  SER47      -0.1936
     28  CA        10.9010   -2.3970   -3.2760 C.3    47  SER47       0.2055
     29  C         11.4150   -2.7620   -4.6630 C.2    47  SER47       0.2643
     30  O         12.6100   -2.6630   -4.9290 O.2    47  SER47      -0.2714
     31  CB        10.3090   -0.9810   -3.2970 C.3    47  SER47       0.2130
     32  OG        10.1280   -0.4810   -1.9830 O.3    47  SER47      -0.2179
     33  N         10.5130   -3.1570   -5.5520 N.am   48  CYS48      -0.1967
     34  CA        10.9200   -3.5030   -6.9090 C.3    48  CYS48       0.1712
     35  C          9.8020   -3.1690   -7.8860 C.2    48  CYS48       0.2296
     36  O          8.6200   -3.3920   -7.5900 O.2    48  CYS48      -0.2864
     37  CB        11.2930   -4.9970   -6.9930 C.3    48  CYS48       0.0983
     38  SG        12.1390   -5.4850   -8.5340 S.3    48  CYS48      -0.0798
     39  N          6.5490   -4.5890   -5.9830 N.3    57  TYR57      -0.1227
     40  CA         6.7770   -5.4380   -4.8040 C.3    57  TYR57       0.1736
     41  C          7.3550   -4.6140   -3.6550 C.2    57  TYR57       0.2595
     42  O          8.1350   -3.6970   -3.9080 O.2    57  TYR57      -0.2718
     43  CB         7.7550   -6.5680   -5.1370 C.3    57  TYR57       0.0548
     44  CG         7.3240   -7.4580   -6.2780 C.ar   57  TYR57      -0.0200
     45  CD1        7.3740   -7.0150   -7.5940 C.ar   57  TYR57      -0.0009
     46  CD2        6.8780   -8.7500   -6.0390 C.ar   57  TYR57      -0.0009
     47  CE1        6.9830   -7.8340   -8.6470 C.ar   57  TYR57       0.0417
     48  CE2        6.4860   -9.5790   -7.0830 C.ar   57  TYR57       0.0417
     49  CZ         6.5410   -9.1130   -8.3850 C.ar   57  TYR57       0.1957
     50  OH         6.1530   -9.9280   -9.4270 O.3    57  TYR57      -0.2866
     51  N          7.0180   -4.9610   -2.4090 N.am   58  TYR58      -0.1962
     52  CA         7.5380   -4.2410   -1.2390 C.3    58  TYR58       0.1771
     53  C          7.9160   -5.1900   -0.1080 C.2    58  TYR58       0.2619
     54  O          7.2550   -6.2020    0.0840 O.2    58  TYR58      -0.2715
     55  CB         6.5020   -3.2430   -0.7200 C.3    58  TYR58       0.0574
     56  CG         6.0830   -2.2370   -1.7530 C.ar   58  TYR58      -0.0198
     57  CD1        6.8580   -1.1030   -1.9830 C.ar   58  TYR58      -0.0009
     58  CD2        4.9280   -2.4120   -2.5100 C.ar   58  TYR58      -0.0009
     59  CE1        6.5030   -0.1780   -2.9300 C.ar   58  TYR58       0.0417
     60  CE2        4.5550   -1.4600   -3.4710 C.ar   58  TYR58       0.0417
     61  CZ         5.3640   -0.3550   -3.6700 C.ar   58  TYR58       0.1957
     62  OH         5.0550    0.6060   -4.6020 O.3    58  TYR58      -0.2866
     63  N          8.9760   -4.8630    0.6260 N.am   59  ALA59      -0.1977
     64  CA         9.3020   -5.5960    1.8480 C.3    59  ALA59       0.1597
     65  C          8.1750   -5.4050    2.8530 C.2    59  ALA59       0.2287
     66  O          7.5680   -4.3370    2.8960 O.2    59  ALA59      -0.2864
     67  CB        10.6300   -5.1300    2.4360 C.3    59  ALA59       0.0319
     68  N         16.9410   -5.7130  -11.1840 N.3    97  ALA97      -0.1245
     69  CA        16.5030   -6.9020  -10.4740 C.3    97  ALA97       0.1562
     70  C         15.4920   -7.6400  -11.3350 C.2    97  ALA97       0.2260
     71  O         14.2850   -7.4670  -11.1750 O.2    97  ALA97      -0.2867
     72  CB        15.8910   -6.5300   -9.1100 C.3    97  ALA97       0.0290
     73  N         12.0020   -9.0730  -10.3490 N.3   100  CYS100     -0.1221
     74  CA        11.7650   -8.7870   -8.9290 C.3   100  CYS100      0.1808
     75  C         11.6780  -10.0650   -8.0980 C.2   100  CYS100      0.2601
     76  O         10.8220  -10.1900   -7.2170 O.2   100  CYS100     -0.2717
     77  CB        10.4870   -7.9600   -8.7610 C.3   100  CYS100      0.0970
     78  SG        10.5710   -6.2900   -9.5790 S.3   100  CYS100     -0.0800
     79  N         12.5600  -11.0170   -8.4050 N.am  101  LYS101     -0.1965
     80  CA        12.5890  -12.3110   -7.7180 C.3   101  LYS101      0.1728
     81  C         13.0330  -12.1420   -6.2660 C.2   101  LYS101      0.2616
     82  O         14.0760  -11.5390   -5.9970 O.2   101  LYS101     -0.2715
     83  CB        13.5120  -13.2850   -8.4640 C.3   101  LYS101      0.0311
     84  CG        13.3700  -14.7190   -8.0230 C.3   101  LYS101      0.0038
     85  CD        14.6070  -15.5400   -8.3930 C.3   101  LYS101      0.0206
     86  CE        14.6760  -16.8480   -7.5840 C.3   101  LYS101      0.1093
     87  NZ        14.3930  -16.6310   -6.1160 N.3   101  LYS101     -0.1314
     88  N         12.2500  -12.6800   -5.3340 N.am  102  ARG102     -0.1977
     89  CA        12.4120  -12.3680   -3.9140 C.3   102  ARG102      0.1597
     90  C         13.5610  -13.0880   -3.1950 C.2   102  ARG102      0.2287
     91  O         13.9610  -12.6830   -2.0990 O.2   102  ARG102     -0.2864
     92  CB        11.1040  -12.6640   -3.1730 C.3   102  ARG102      0.0334
     93  CG        10.0000  -11.6430   -3.4300 C.3   102  ARG102      0.0492
     94  CD         8.7950  -11.8800   -2.5250 C.3   102  ARG102      0.2205
     95  NE         8.6450  -10.8180   -1.5330 N.pl3 102  ARG102     -0.0865
     96  CZ         7.6310   -9.9550   -1.5150 C.cat 102  ARG102      0.5346
     97  NH1        6.6760  -10.0440   -2.4320 N.pl3 102  ARG102      0.1354
     98  NH2        7.5660   -9.0110   -0.5790 N.pl3 102  ARG102      0.1354
     99  N         16.8600  -13.5220   -4.0440 N.3   104  ARG104     -0.1245
    100  CA        18.1840  -13.2660   -4.6110 C.3   104  ARG104      0.1563
    101  C         18.9380  -12.1970   -3.8270 C.2   104  ARG104      0.2260
    102  O         18.3540  -11.1980   -3.4080 O.2   104  ARG104     -0.2867
    103  CB        18.0440  -12.8540   -6.0760 C.3   104  ARG104      0.0307
    104  CG        19.2990  -12.3140   -6.7130 C.3   104  ARG104      0.0489
    105  CD        19.1210  -12.1550   -8.2200 C.3   104  ARG104      0.2205
    106  NE        20.2270  -11.4060   -8.8140 N.pl3 104  ARG104     -0.0865
    107  CZ        20.1660  -10.7550   -9.9710 C.cat 104  ARG104      0.5346
    108  NH1       19.0430  -10.7550  -10.6750 N.pl3 104  ARG104      0.1354
    109  NH2       21.2320  -10.0930  -10.4180 N.pl3 104  ARG104      0.1354
    110  N         23.4900   -8.5830   -6.6290 N.3   107  TYR107     -0.1241
    111  CA        23.1080   -7.6850   -7.7180 C.3   107  TYR107      0.1605
    112  C         24.3100   -6.8600   -8.1580 C.2   107  TYR107      0.2264
    113  O         25.3110   -6.7790   -7.4460 O.2   107  TYR107     -0.2867
    114  CB        21.9490   -6.7630   -7.2890 C.3   107  TYR107      0.0534
    115  CG        20.6670   -7.5090   -7.0070 C.ar  107  TYR107     -0.0201
    116  CD1       19.7440   -7.7490   -8.0170 C.ar  107  TYR107     -0.0009
    117  CD2       20.3840   -7.9940   -5.7330 C.ar  107  TYR107     -0.0009
    118  CE1       18.5780   -8.4590   -7.7730 C.ar  107  TYR107      0.0417
    119  CE2       19.2170   -8.6990   -5.4790 C.ar  107  TYR107      0.0417
    120  CZ        18.3190   -8.9250   -6.5030 C.ar  107  TYR107      0.1957
    121  OH        17.1550   -9.6120   -6.2530 O.3   107  TYR107     -0.2866
@<TRIPOS>BOND
     1    70    71    2
     2    70    69    1
     3    68    69    1
     4   108   107    1
     5    69    72    1
     6   109   107    1
     7    73    74    1
     8   107   106    2
     9    78    77    1
    10    78    38    1
    11    50    49    1
    12    74    77    1
    13    74    75    1
    14   106   105    1
    15     1     2    1
    16    47    49   ar
    17    47    45   ar
    18    38    37    1
    19    83    84    1
    20    83    80    1
    21    79    75   am
    22    79    80    1
    23    85    84    1
    24    85    86    1
    25    49    48   ar
    26   105   104    1
    27   112   111    1
    28   112   113    2
    29    75    76    2
    30   116   118   ar
    31   116   115   ar
    32    35    36    2
    33    35    34    1
    34   118   120   ar
    35    80    81    1
    36   111   114    1
    37   111   110    1
    38    45    44   ar
    39    86    87    1
    40     2     3    1
    41   114   115    1
    42    48    46   ar
    43   115   117   ar
    44    37    34    1
    45    34    33    1
    46     4     3    2
    47   104   103    1
    48   120   121    1
    49   120   119   ar
    50    44    46   ar
    51    44    43    1
    52    81    82    2
    53    81    88   am
    54   103   100    1
    55    39    40    1
    56   117   119   ar
    57    13    15   ar
    58    13    11   ar
    59    33    29   am
    60    15    14   ar
    61    88    89    1
    62    43    40    1
    63    30    29    2
    64    40    41    1
    65    29    28    1
    66   100    99    1
    67   100   101    1
    68    62    61    1
    69    11    10   ar
    70    14    12   ar
    71    89    90    1
    72    89    92    1
    73    42    41    2
    74   101   102    2
    75    61    60   ar
    76    61    59   ar
    77    41    51   am
    78    60    58   ar
    79    93    92    1
    80    93    94    1
    81    31    28    1
    82    31    32    1
    83    10    12   ar
    84    10     9    1
    85    28    27    1
    86    90    91    2
    87    59    57   ar
    88     5     6    1
    89    94    95    1
    90    58    56   ar
    91    97    96    1
    92    51    52    1
    93    27    22   am
    94     9     6    1
    95    57    56   ar
    96    56    55    1
    97     6     7    1
    98    95    96    2
    99    96    98    1
   100    52    55    1
   101    52    53    1
   102    22    23    2
   103    22    21    1
   104     8     7    2
   105    17    18    1
   106    17    16    1
   107    20    21    1
   108    20    18   am
   109    21    24    1
   110    53    54    2
   111    53    63   am
   112    18    19    2
   113    24    25    1
   114    24    26    1
   115    63    64    1
   116    64    67    1
   117    64    65    1
   118    65    66    2
