@<TRIPOS>MOLECULE
tmp/5ivqB00.pdb
 78 71 0 0 0
SMALL
GASTEIGER

@<TRIPOS>ATOM
      1  N        -20.1590    8.5440    1.4030 N.3     8  ARG8       -0.1245
      2  CA       -19.4480    9.8060    1.5360 C.3     8  ARG8        0.1563
      3  C        -18.5240    9.7790    2.7730 C.2     8  ARG8        0.2260
      4  O        -18.9550    9.3200    3.8290 O.2     8  ARG8       -0.2867
      5  CB       -20.4180   10.9850    1.6710 C.3     8  ARG8        0.0307
      6  CG       -21.1960   11.2890    0.4060 C.3     8  ARG8        0.0489
      7  CD       -22.2390   12.3520    0.6630 C.3     8  ARG8        0.2205
      8  NE       -22.9190   12.6980   -0.5840 N.pl3   8  ARG8       -0.0865
      9  CZ       -24.1400   13.2150   -0.6550 C.cat   8  ARG8        0.5346
     10  NH1      -24.6690   13.5210   -1.8320 N.pl3   8  ARG8        0.1354
     11  NH2      -24.8340   13.4530    0.4520 N.pl3   8  ARG8        0.1354
     12  N        -17.8310   11.3680    5.3990 N.3    10  LEU10      -0.1245
     13  CA       -18.2920   12.3740    6.3540 C.3    10  LEU10       0.1561
     14  C        -17.7060   12.0260    7.7070 C.2    10  LEU10       0.2260
     15  O        -17.7560   10.8680    8.1370 O.2    10  LEU10      -0.2867
     16  CB       -19.8380   12.4040    6.4280 C.3    10  LEU10       0.0270
     17  CG       -20.5770   13.0120    5.2330 C.3    10  LEU10       0.0019
     18  CD1      -22.0170   12.5480    5.2110 C.3    10  LEU10       0.0001
     19  CD2      -20.5660   14.5580    5.2750 C.3    10  LEU10       0.0001
     20  N        -17.1490   16.8380    5.1080 N.3    23  LEU23      -0.1245
     21  CA       -16.7100   15.9060    4.0900 C.3    23  LEU23       0.1561
     22  C        -15.2080   16.0160    3.8370 C.2    23  LEU23       0.2260
     23  O        -14.7150   17.1130    3.5780 O.2    23  LEU23      -0.2867
     24  CB       -17.4870   16.3080    2.8220 C.3    23  LEU23       0.0270
     25  CG       -17.4620   15.4110    1.6050 C.3    23  LEU23       0.0019
     26  CD1      -18.0460   14.0350    1.9150 C.3    23  LEU23       0.0001
     27  CD2      -18.2760   16.0550    0.4790 C.3    23  LEU23       0.0001
     28  N        -12.5320   16.0670    1.4570 N.3    25  ASP25      -0.1239
     29  CA       -12.5320   16.2750    0.0170 C.3    25  ASP25       0.1674
     30  C        -11.1540   16.5200   -0.5850 C.2    25  ASP25       0.2266
     31  O        -10.6410   17.6420   -0.5750 O.2    25  ASP25      -0.2867
     32  CB       -13.4960   17.4510   -0.2820 C.3    25  ASP25       0.1410
     33  CG       -13.7940   17.7590   -1.7460 C.2    25  ASP25       0.3668
     34  OD1      -13.1810   17.1170   -2.6330 O.co2  25  ASP25      -0.2456
     35  OD2      -14.6520   18.6300   -2.0030 O.co2  25  ASP25      -0.2456
     36  N        -10.4560   16.7880   -3.5450 N.3    27  GLY27      -0.1210
     37  CA       -10.6150   17.6470   -4.7210 C.3    27  GLY27       0.1956
     38  C        -10.6940   19.1270   -4.3880 C.2    27  GLY27       0.2611
     39  O        -10.7760   19.9680   -5.2880 O.2    27  GLY27      -0.2717
     40  N        -10.6590   19.4560   -3.0890 N.am   28  ALA28      -0.1979
     41  CA       -10.7470   20.8390   -2.6300 C.3    28  ALA28       0.1597
     42  C         -9.3860   21.3070   -2.1430 C.2    28  ALA28       0.2287
     43  O         -8.7570   20.6390   -1.3110 O.2    28  ALA28      -0.2864
     44  CB       -11.7440   20.9270   -1.4900 C.3    28  ALA28       0.0319
     45  N        -16.0160   26.3640   -7.8810 N.3    49  GLY49      -0.1210
     46  CA       -16.5880   25.0370   -7.7220 C.3    49  GLY49       0.1956
     47  C        -17.1000   24.5320   -9.0520 C.2    49  GLY49       0.2611
     48  O        -16.8600   25.1490  -10.1020 O.2    49  GLY49      -0.2717
     49  N        -17.8240   23.4100   -9.0220 N.am   50  ILE50      -0.1979
     50  CA       -18.3360   22.8490  -10.2610 C.3    50  ILE50       0.1595
     51  C        -19.3130   23.7960  -10.9720 C.2    50  ILE50       0.2287
     52  O        -19.3370   23.8190  -12.2090 O.2    50  ILE50      -0.2864
     53  CB       -18.9070   21.4300  -10.0190 C.3    50  ILE50       0.0276
     54  CG1      -18.7070   20.5410  -11.2400 C.3    50  ILE50       0.0022
     55  CG2      -20.3310   21.4060   -9.5280 C.3    50  ILE50       0.0022
     56  CD1      -17.5680   19.7440  -11.1100 C.3    50  ILE50       0.0001
     57  N        -22.6290   23.7560   -0.3290 N.3    81  PRO81      -0.2102
     58  CA       -23.6570   22.7160   -0.1690 C.3    81  PRO81       0.1504
     59  C        -23.4040   21.8400    1.0620 C.2    81  PRO81       0.2575
     60  O        -24.3420   21.3390    1.6450 O.2    81  PRO81      -0.2718
     61  CB       -23.5070   21.8760   -1.4470 C.3    81  PRO81       0.0282
     62  CG       -22.8500   22.7540   -2.4010 C.3    81  PRO81       0.0208
     63  CD       -21.9040   23.5770   -1.6050 C.3    81  PRO81       0.0893
     64  N        -22.1160   21.6700    1.4610 N.am   82  VAL82      -0.1980
     65  CA       -21.7160   20.8580    2.6290 C.3    82  VAL82       0.1595
     66  C        -20.4340   21.3990    3.2050 C.2    82  VAL82       0.2287
     67  O        -19.5860   21.9020    2.4570 O.2    82  VAL82      -0.2864
     68  CB       -21.3050   19.3950    2.2990 C.3    82  VAL82       0.0276
     69  CG1      -22.0620   18.3250    3.0500 C.3    82  VAL82       0.0022
     70  CG2      -20.9340   19.1160    0.8440 C.3    82  VAL82       0.0022
     71  N        -16.7380   21.2510    3.9790 N.3    84  ILE84      -0.1245
     72  CA       -15.6680   20.5230    3.3070 C.3    84  ILE84       0.1561
     73  C        -14.3450   20.7310    3.9820 C.2    84  ILE84       0.2260
     74  O        -13.9860   21.8770    4.2840 O.2    84  ILE84      -0.2867
     75  CB       -15.6030   21.0770    1.8460 C.3    84  ILE84       0.0252
     76  CG1      -16.8120   20.5540    1.0150 C.3    84  ILE84       0.0019
     77  CG2      -14.2770   20.7890    1.1540 C.3    84  ILE84       0.0019
     78  CD1      -17.2200   21.6230    0.0220 C.3    84  ILE84       0.0001
@<TRIPOS>BOND
     1    52    51    2
     2    54    56    1
     3    54    53    1
     4    51    50    1
     5    50    53    1
     6    50    49    1
     7    48    47    2
     8    53    55    1
     9    47    49   am
    10    47    46    1
    11    45    46    1
    12    39    38    2
    13    37    38    1
    14    37    36    1
    15    38    40   am
    16    40    41    1
    17    34    33   ar
    18    41    42    1
    19    41    44    1
    20    62    63    1
    21    62    61    1
    22    42    43    2
    23    35    33   ar
    24    10     9    1
    25    33    32    1
    26    63    57    1
    27    61    58    1
    28     9     8    2
    29     9    11    1
    30    30    31    2
    31    30    29    1
    32     8     7    1
    33    57    58    1
    34    32    29    1
    35    58    59    1
    36    29    28    1
    37    78    76    1
    38     6     7    1
    39     6     5    1
    40    27    25    1
    41    70    68    1
    42    76    75    1
    43    59    64   am
    44    59    60    2
    45    77    75    1
    46     1     2    1
    47    64    65    1
    48     2     5    1
    49     2     3    1
    50    25    26    1
    51    25    24    1
    52    75    72    1
    53    68    65    1
    54    68    69    1
    55    67    66    2
    56    65    66    1
    57     3     4    2
    58    24    21    1
    59    72    71    1
    60    72    73    1
    61    23    22    2
    62    22    21    1
    63    73    74    2
    64    21    20    1
    65    18    17    1
    66    17    19    1
    67    17    16    1
    68    12    13    1
    69    13    16    1
    70    13    14    1
    71    14    15    2
