@<TRIPOS>MOLECULE
tmp/5ivrA00.pdb
 113 105 0 0 0
SMALL
GASTEIGER

@<TRIPOS>ATOM
      1  N         -2.5210   18.9620   -5.7650 N.3     8  ARG8       -0.1245
      2  CA        -3.7720   18.3680   -6.2050 C.3     8  ARG8        0.1563
      3  C         -3.4730   16.9480   -6.7060 C.2     8  ARG8        0.2260
      4  O         -2.4880   16.7650   -7.4470 O.2     8  ARG8       -0.2867
      5  CB        -4.3680   19.1700   -7.3730 C.3     8  ARG8        0.0307
      6  CG        -4.8160   20.5540   -6.9650 C.3     8  ARG8        0.0489
      7  CD        -5.2450   21.3580   -8.1610 C.3     8  ARG8        0.2205
      8  NE        -5.7350   22.6620   -7.7240 N.pl3   8  ARG8       -0.0865
      9  CZ        -5.8020   23.7360   -8.5040 C.cat   8  ARG8        0.5346
     10  NH1       -5.3960   23.6750   -9.7700 N.pl3   8  ARG8        0.1354
     11  NH2       -6.2640   24.8810   -8.0230 N.pl3   8  ARG8        0.1354
     12  N         -3.6660   14.7880   -9.1150 N.3    10  LEU10      -0.1245
     13  CA        -3.9350   14.6460  -10.5460 C.3    10  LEU10       0.1561
     14  C         -3.2630   13.4040  -11.0670 C.2    10  LEU10       0.2260
     15  O         -2.0830   13.1510  -10.7700 O.2    10  LEU10      -0.2867
     16  CB        -3.4420   15.8830  -11.2920 C.3    10  LEU10       0.0270
     17  CG        -4.2410   17.1580  -11.0050 C.3    10  LEU10       0.0019
     18  CD1       -3.4970   18.3740  -11.5240 C.3    10  LEU10       0.0001
     19  CD2       -5.6280   17.1120  -11.6620 C.3    10  LEU10       0.0001
     20  N         -8.6420   14.6660  -11.6540 N.3    23  LEU23      -0.1245
     21  CA        -8.4460   14.8450  -10.2250 C.3    23  LEU23       0.1561
     22  C         -9.1150   13.7280   -9.4220 C.2    23  LEU23       0.2260
     23  O        -10.3020   13.4840   -9.6120 O.2    23  LEU23      -0.2867
     24  CB        -9.0950   16.1870   -9.8790 C.3    23  LEU23       0.0270
     25  CG        -9.0160   16.6990   -8.4540 C.3    23  LEU23       0.0019
     26  CD1       -7.5810   17.0280   -8.0800 C.3    23  LEU23       0.0001
     27  CD2       -9.8740   17.9550   -8.3190 C.3    23  LEU23       0.0001
     28  N        -11.0530   12.7620   -6.5850 N.3    25  ASP25      -0.1239
     29  CA       -11.8880   13.6220   -5.7560 C.3    25  ASP25       0.1674
     30  C        -12.7960   12.9040   -4.7970 C.2    25  ASP25       0.2266
     31  O        -13.8980   12.4850   -5.1800 O.2    25  ASP25      -0.2867
     32  CB       -12.6720   14.5000   -6.7290 C.3    25  ASP25       0.1410
     33  CG       -13.3740   15.6660   -6.0920 C.2    25  ASP25       0.3668
     34  OD1      -13.4670   15.6910   -4.8530 O.co2  25  ASP25      -0.2456
     35  OD2      -13.8320   16.5560   -6.8440 O.co2  25  ASP25      -0.2456
     36  N        -14.5410   14.0690   -2.4830 N.3    27  GLY27      -0.1210
     37  CA       -15.7310   14.8540   -2.1840 C.3    27  GLY27       0.1956
     38  C        -16.7650   14.7690   -3.2870 C.2    27  GLY27       0.2612
     39  O        -17.8630   15.2960   -3.1100 O.2    27  GLY27      -0.2717
     40  N        -16.4460   14.0780   -4.4110 N.am   28  ALA28      -0.1965
     41  CA       -17.3720   13.9500   -5.5320 C.3    28  ALA28       0.1728
     42  C        -18.1030   12.6230   -5.4850 C.2    28  ALA28       0.2616
     43  O        -17.4480   11.5870   -5.4660 O.2    28  ALA28      -0.2715
     44  CB       -16.5960   14.0400   -6.8280 C.3    28  ALA28       0.0334
     45  N        -19.4450   12.6310   -5.5390 N.am   29  ASP29      -0.1957
     46  CA       -20.1260   11.3340   -5.5530 C.3    29  ASP29       0.1840
     47  C        -19.9300   10.6550   -6.9140 C.2    29  ASP29       0.2622
     48  O        -19.8990    9.4140   -7.0080 O.2    29  ASP29      -0.2715
     49  CB       -21.6440   11.5380   -5.3960 C.3    29  ASP29       0.1450
     50  CG       -22.0980   12.1490   -4.0950 C.2    29  ASP29       0.3671
     51  OD1      -23.2110   12.7530   -4.0800 O.co2  29  ASP29      -0.2456
     52  OD2      -21.3730   11.9970   -3.0730 O.co2  29  ASP29      -0.2456
     53  N        -19.9000   11.4870   -7.9800 N.am   30  ASP30      -0.1971
     54  CA       -19.8370   11.0310   -9.3530 C.3    30  ASP30       0.1709
     55  C        -18.5970   11.5080  -10.0870 C.2    30  ASP30       0.2293
     56  O        -17.8750   12.3960   -9.6150 O.2    30  ASP30      -0.2864
     57  CB       -21.0750   11.5850  -10.1070 C.3    30  ASP30       0.1436
     58  CG       -22.4300   11.4210   -9.4250 C.2    30  ASP30       0.3671
     59  OD1      -22.7130   10.3080   -8.9130 O.co2  30  ASP30      -0.2456
     60  OD2      -23.2050   12.3980   -9.4140 O.co2  30  ASP30      -0.2456
     61  N        -17.0600   13.2650  -13.3960 N.3    32  VAL32      -0.1245
     62  CA       -17.5170   14.2530  -14.3780 C.3    32  VAL32       0.1561
     63  C        -16.3430   14.7280  -15.1680 C.2    32  VAL32       0.2260
     64  O        -15.3420   15.1720  -14.5960 O.2    32  VAL32      -0.2867
     65  CB       -18.2060   15.4590  -13.7010 C.3    32  VAL32       0.0252
     66  CG1      -18.9740   16.3010  -14.7420 C.3    32  VAL32       0.0019
     67  CG2      -19.0990   15.0090  -12.5340 C.3    32  VAL32       0.0019
     68  N        -26.0360   18.3810  -11.7290 N.3    47  ILE47      -0.1231
     69  CA       -25.1620   18.1270  -10.5900 C.3    47  ILE47       0.1692
     70  C        -24.8030   19.4580   -9.9880 C.2    47  ILE47       0.2593
     71  O        -24.6420   20.4510  -10.7130 O.2    47  ILE47      -0.2718
     72  CB       -23.9330   17.2850  -10.9410 C.3    47  ILE47       0.0266
     73  CG1      -23.1150   17.9500  -12.0500 C.3    47  ILE47       0.0019
     74  CG2      -24.3710   15.8590  -11.2970 C.3    47  ILE47       0.0020
     75  CD1      -21.7490   17.2620  -12.2790 C.3    47  ILE47       0.0001
     76  N        -24.7370   19.4940   -8.6690 N.am   48  GLY48      -0.1942
     77  CA       -24.5080   20.7650   -8.0070 C.3    48  GLY48       0.2014
     78  C        -23.4720   20.7420   -6.9380 C.2    48  GLY48       0.2639
     79  O        -23.1660   19.6930   -6.3860 O.2    48  GLY48      -0.2714
     80  N        -22.9260   21.9160   -6.6870 N.am   49  GLY49      -0.1939
     81  CA       -21.9040   22.1040   -5.6730 C.3    49  GLY49       0.2014
     82  C        -21.6880   23.5750   -5.4670 C.2    49  GLY49       0.2638
     83  O        -22.6120   24.3710   -5.6020 O.2    49  GLY49      -0.2714
     84  N        -20.4510   23.9470   -5.1500 N.am   50  ILE50      -0.1977
     85  CA       -20.1690   25.3550   -4.9350 C.3    50  ILE50       0.1596
     86  C        -20.4250   26.0920   -6.2500 C.2    50  ILE50       0.2287
     87  O        -20.0050   25.6180   -7.2960 O.2    50  ILE50      -0.2864
     88  CB       -18.7390   25.4940   -4.3820 C.3    50  ILE50       0.0276
     89  CG1      -18.7550   25.1380   -2.8700 C.3    50  ILE50       0.0022
     90  CG2      -18.1810   26.9280   -4.6170 C.3    50  ILE50       0.0022
     91  CD1      -17.3980   24.9630   -2.2500 C.3    50  ILE50       0.0001
     92  N        -15.1180   22.5600  -14.4840 N.3    81  PRO81      -0.2102
     93  CA       -13.8390   23.2810  -14.6940 C.3    81  PRO81       0.1504
     94  C        -12.6010   22.3660  -14.7290 C.2    81  PRO81       0.2575
     95  O        -11.5210   22.8130  -15.1320 O.2    81  PRO81      -0.2718
     96  CB       -13.7640   24.2270  -13.4960 C.3    81  PRO81       0.0282
     97  CG       -14.6470   23.6370  -12.4620 C.3    81  PRO81       0.0208
     98  CD       -15.6990   22.8320  -13.1490 C.3    81  PRO81       0.0893
     99  N        -12.7480   21.1050  -14.3070 N.am   82  VAL82      -0.1980
    100  CA       -11.6630   20.1140  -14.2500 C.3    82  VAL82       0.1595
    101  C        -12.2370   18.7030  -14.3710 C.2    82  VAL82       0.2287
    102  O        -13.3510   18.4480  -13.9200 O.2    82  VAL82      -0.2864
    103  CB       -10.8460   20.3000  -12.9180 C.3    82  VAL82       0.0276
    104  CG1      -11.7000   20.0540  -11.6820 C.3    82  VAL82       0.0022
    105  CG2       -9.5900   19.4290  -12.8740 C.3    82  VAL82       0.0022
    106  N        -12.9210   15.2630  -13.1200 N.3    84  ILE84      -0.1245
    107  CA       -13.0410   14.6980  -11.7610 C.3    84  ILE84       0.1561
    108  C        -13.3350   13.2100  -11.7580 C.2    84  ILE84       0.2260
    109  O        -14.3170   12.7640  -12.3740 O.2    84  ILE84      -0.2867
    110  CB       -14.2170   15.4520  -11.0610 C.3    84  ILE84       0.0252
    111  CG1      -13.8580   16.9390  -10.8260 C.3    84  ILE84       0.0019
    112  CG2      -14.6990   14.7610   -9.7510 C.3    84  ILE84       0.0019
    113  CD1      -15.0820   17.8110  -10.5140 C.3    84  ILE84       0.0001
@<TRIPOS>BOND
     1    63    64    2
     2    63    62    1
     3    95    94    2
     4    66    65    1
     5    94    93    1
     6    94    99   am
     7    93    92    1
     8    93    96    1
     9    92    98    1
    10    62    65    1
    11    62    61    1
    12   101   100    1
    13   101   102    2
    14    99   100    1
    15   100   103    1
    16    65    67    1
    17    96    97    1
    18    98    97    1
    19   106   107    1
    20   103   105    1
    21   103   104    1
    22   109   108    2
    23    75    73    1
    24    73    72    1
    25   107   108    1
    26   107   110    1
    27    68    69    1
    28    19    17    1
    29    20    21    1
    30    18    17    1
    31    74    72    1
    32    16    17    1
    33    16    13    1
    34    14    15    2
    35    14    13    1
    36   110   111    1
    37   110   112    1
    38    72    69    1
    39   111   113    1
    40    71    70    2
    41    69    70    1
    42    13    12    1
    43    21    24    1
    44    21    22    1
    45    57    58    1
    46    57    54    1
    47    55    56    2
    48    55    54    1
    49    70    76   am
    50    24    25    1
    51    10     9    1
    52    23    22    2
    53    58    60   ar
    54    58    59   ar
    55    54    53    1
    56    76    77    1
    57     9    11    1
    58     9     8    2
    59    25    27    1
    60    25    26    1
    61     7     8    1
    62     7     6    1
    63    77    78    1
    64    53    47   am
    65     4     3    2
    66     5     6    1
    67     5     2    1
    68    87    86    2
    69    48    47    2
    70    78    80   am
    71    78    79    2
    72    47    46    1
    73    35    33   ar
    74    44    41    1
    75    32    33    1
    76    32    29    1
    77     3     2    1
    78    80    81    1
    79    28    29    1
    80    86    85    1
    81     2     1    1
    82    33    34   ar
    83    29    30    1
    84    81    82    1
    85    83    82    2
    86    46    45    1
    87    46    49    1
    88    45    42   am
    89    41    42    1
    90    41    40    1
    91    42    43    2
    92    82    84   am
    93    49    50    1
    94    31    30    2
    95    84    85    1
    96    85    88    1
    97    90    88    1
    98    40    38   am
    99    88    89    1
   100    50    51   ar
   101    50    52   ar
   102    38    39    2
   103    38    37    1
   104    89    91    1
   105    36    37    1
