@<TRIPOS>MOLECULE
tmp/5ivsB00.pdb
 98 91 0 0 0
SMALL
GASTEIGER

@<TRIPOS>ATOM
      1  N        -19.9350    8.5500    1.4800 N.3     8  ARG8       -0.1245
      2  CA       -19.2070    9.8070    1.6060 C.3     8  ARG8        0.1563
      3  C        -18.2840    9.7500    2.8610 C.2     8  ARG8        0.2260
      4  O        -18.7340    9.3230    3.9250 O.2     8  ARG8       -0.2867
      5  CB       -20.1880   10.9640    1.7810 C.3     8  ARG8        0.0307
      6  CG       -20.9760   11.2540    0.5220 C.3     8  ARG8        0.0489
      7  CD       -22.0580   12.2760    0.7760 C.3     8  ARG8        0.2205
      8  NE       -22.8190   12.5490   -0.4460 N.pl3   8  ARG8       -0.0865
      9  CZ       -24.1040   12.8970   -0.4690 C.cat   8  ARG8        0.5346
     10  NH1      -24.7090   13.1460   -1.6220 N.pl3   8  ARG8        0.1354
     11  NH2      -24.7880   13.0200    0.6640 N.pl3   8  ARG8        0.1354
     12  N        -17.5070   11.2660    5.5710 N.3    10  LEU10      -0.1245
     13  CA       -17.9530   12.2620    6.5340 C.3    10  LEU10       0.1561
     14  C        -17.3710   11.9330    7.8900 C.2    10  LEU10       0.2260
     15  O        -17.3920   10.7640    8.3270 O.2    10  LEU10      -0.2867
     16  CB       -19.4770   12.2660    6.6040 C.3    10  LEU10       0.0270
     17  CG       -20.1850   12.7890    5.3670 C.3    10  LEU10       0.0019
     18  CD1      -21.6410   12.3310    5.3430 C.3    10  LEU10       0.0001
     19  CD2      -20.1110   14.3200    5.2860 C.3    10  LEU10       0.0001
     20  N        -16.9200   16.7720    5.2670 N.3    23  LEU23      -0.1245
     21  CA       -16.4990   15.8340    4.2380 C.3    23  LEU23       0.1561
     22  C        -14.9970   15.9470    3.9710 C.2    23  LEU23       0.2260
     23  O        -14.5060   17.0570    3.7160 O.2    23  LEU23      -0.2867
     24  CB       -17.3130   16.1840    2.9730 C.3    23  LEU23       0.0270
     25  CG       -17.1520   15.3010    1.7740 C.3    23  LEU23       0.0019
     26  CD1      -17.6740   13.9140    2.0680 C.3    23  LEU23       0.0001
     27  CD2      -17.8920   15.9150    0.5940 C.3    23  LEU23       0.0001
     28  N        -12.3250   16.0110    1.5820 N.3    25  ASP25      -0.1239
     29  CA       -12.3750   16.2420    0.1450 C.3    25  ASP25       0.1674
     30  C        -11.0290   16.4930   -0.4920 C.2    25  ASP25       0.2266
     31  O        -10.4980   17.6090   -0.4500 O.2    25  ASP25      -0.2867
     32  CB       -13.3170   17.4270   -0.0760 C.3    25  ASP25       0.1410
     33  CG       -13.6760   17.7410   -1.4980 C.2    25  ASP25       0.3668
     34  OD1      -13.0520   17.1560   -2.4150 O.co2  25  ASP25      -0.2456
     35  OD2      -14.5900   18.5490   -1.6990 O.co2  25  ASP25      -0.2456
     36  N        -10.3720   16.7260   -3.5370 N.3    27  GLY27      -0.1210
     37  CA       -10.5020   17.5940   -4.7160 C.3    27  GLY27       0.1956
     38  C        -10.5440   19.0680   -4.3700 C.2    27  GLY27       0.2612
     39  O        -10.4890   19.9240   -5.2610 O.2    27  GLY27      -0.2717
     40  N        -10.6440   19.3930   -3.0730 N.am   28  ALA28      -0.1965
     41  CA       -10.6960   20.7830   -2.6310 C.3    28  ALA28       0.1728
     42  C         -9.3270   21.2410   -2.1690 C.2    28  ALA28       0.2616
     43  O         -8.6880   20.5780   -1.3280 O.2    28  ALA28      -0.2715
     44  CB       -11.6790   20.9090   -1.4840 C.3    28  ALA28       0.0334
     45  N         -8.8750   22.3970   -2.6810 N.am   29  ASP29      -0.1971
     46  CA        -7.5870   22.8970   -2.2220 C.3    29  ASP29       0.1709
     47  C         -7.6880   23.4350   -0.7960 C.2    29  ASP29       0.2293
     48  O         -6.7210   23.3560   -0.0400 O.2    29  ASP29      -0.2864
     49  CB        -7.1450   24.0880   -3.0930 C.3    29  ASP29       0.1436
     50  CG        -6.9540   23.8160   -4.5780 C.2    29  ASP29       0.3671
     51  OD1       -7.1820   24.7560   -5.3860 O.co2  29  ASP29      -0.2456
     52  OD2       -6.5550   22.6800   -4.9390 O.co2  29  ASP29      -0.2456
     53  N        -13.5560   31.5540   -4.5660 N.3    47  ILE47      -0.1231
     54  CA       -13.2430   30.1500   -4.7890 C.3    47  ILE47       0.1692
     55  C        -14.1110   29.6290   -5.9090 C.2    47  ILE47       0.2593
     56  O        -15.2710   30.0210   -6.0240 O.2    47  ILE47      -0.2718
     57  CB       -13.3130   29.2690   -3.5370 C.3    47  ILE47       0.0266
     58  CG1      -14.7150   29.2590   -2.9040 C.3    47  ILE47       0.0019
     59  CG2      -12.2130   29.6820   -2.5290 C.3    47  ILE47       0.0020
     60  CD1      -14.9030   28.2320   -1.8310 C.3    47  ILE47       0.0001
     61  N        -13.5290   28.7620   -6.7170 N.am   48  GLY48      -0.1942
     62  CA       -14.2270   28.1700   -7.8420 C.3    48  GLY48       0.2014
     63  C        -14.6460   26.7600   -7.5530 C.2    48  GLY48       0.2639
     64  O        -13.8170   25.9450   -7.1830 O.2    48  GLY48      -0.2714
     65  N        -15.9180   26.4710   -7.7440 N.am   49  GLY49      -0.1939
     66  CA       -16.4370   25.1330   -7.5680 C.3    49  GLY49       0.2014
     67  C        -16.9530   24.5890   -8.8830 C.2    49  GLY49       0.2638
     68  O        -16.7500   25.1870   -9.9580 O.2    49  GLY49      -0.2714
     69  N        -17.6330   23.4550   -8.8160 N.am   50  ILE50      -0.1977
     70  CA       -18.1940   22.8630  -10.0220 C.3    50  ILE50       0.1596
     71  C        -19.1810   23.8100  -10.7250 C.2    50  ILE50       0.2287
     72  O        -19.2120   23.8360  -11.9540 O.2    50  ILE50      -0.2864
     73  CB       -18.8020   21.4600   -9.7400 C.3    50  ILE50       0.0276
     74  CG1      -18.8770   20.6240  -11.0090 C.3    50  ILE50       0.0022
     75  CG2      -20.1530   21.5170   -9.0180 C.3    50  ILE50       0.0022
     76  CD1      -17.7960   19.6850  -11.1810 C.3    50  ILE50       0.0001
     77  N        -22.6640   23.4410   -0.1240 N.3    81  PRO81      -0.2102
     78  CA       -23.6730   22.4030    0.1240 C.3    81  PRO81       0.1504
     79  C        -23.3730   21.5520    1.3640 C.2    81  PRO81       0.2575
     80  O        -24.2860   20.9850    1.9580 O.2    81  PRO81      -0.2718
     81  CB       -23.5800   21.5240   -1.1340 C.3    81  PRO81       0.0282
     82  CG       -23.0710   22.4330   -2.1860 C.3    81  PRO81       0.0208
     83  CD       -22.0520   23.2740   -1.4620 C.3    81  PRO81       0.0893
     84  N        -22.0600   21.4510    1.7450 N.am   82  VAL82      -0.1980
     85  CA       -21.5780   20.6770    2.8980 C.3    82  VAL82       0.1595
     86  C        -20.2820   21.2370    3.3890 C.2    82  VAL82       0.2287
     87  O        -19.5250   21.8210    2.5980 O.2    82  VAL82      -0.2864
     88  CB       -21.3340   19.1710    2.6290 C.3    82  VAL82       0.0276
     89  CG1      -22.5040   18.3220    3.0630 C.3    82  VAL82       0.0022
     90  CG2      -20.8750   18.8800    1.2020 C.3    82  VAL82       0.0022
     91  N        -16.6080   21.2100    4.0440 N.3    84  ILE84      -0.1245
     92  CA       -15.5450   20.4870    3.3370 C.3    84  ILE84       0.1561
     93  C        -14.1970   20.7220    3.9660 C.2    84  ILE84       0.2260
     94  O        -13.8060   21.8790    4.1890 O.2    84  ILE84      -0.2867
     95  CB       -15.4980   20.9740    1.8520 C.3    84  ILE84       0.0252
     96  CG1      -16.7440   20.5030    1.0800 C.3    84  ILE84       0.0019
     97  CG2      -14.2040   20.5630    1.1470 C.3    84  ILE84       0.0019
     98  CD1      -17.0940   21.5330   -0.0280 C.3    84  ILE84       0.0001
@<TRIPOS>BOND
     1    72    71    2
     2    76    74    1
     3    74    73    1
     4    71    70    1
     5    70    73    1
     6    70    69    1
     7    68    67    2
     8    73    75    1
     9    67    69   am
    10    67    66    1
    11    62    63    1
    12    62    61    1
    13    65    66    1
    14    65    63   am
    15    63    64    2
    16    61    55   am
    17    56    55    2
    18    55    54    1
    19    51    50   ar
    20    39    38    2
    21    52    50   ar
    22    54    53    1
    23    54    57    1
    24    37    38    1
    25    37    36    1
    26    50    49    1
    27    38    40   am
    28    57    58    1
    29    57    59    1
    30    49    46    1
    31    40    41    1
    32    58    60    1
    33    45    46    1
    34    45    42   am
    35    41    42    1
    36    41    44    1
    37    34    33   ar
    38    46    47    1
    39    82    83    1
    40    82    81    1
    41    42    43    2
    42    35    33   ar
    43    10     9    1
    44    33    32    1
    45    83    77    1
    46    81    78    1
    47    47    48    2
    48    30    31    2
    49    30    29    1
    50     9     8    2
    51     9    11    1
    52     8     7    1
    53    77    78    1
    54    32    29    1
    55    98    96    1
    56    78    79    1
    57    29    28    1
    58     6     7    1
    59     6     5    1
    60    27    25    1
    61    96    95    1
    62    97    95    1
    63    90    88    1
    64    79    84   am
    65    79    80    2
    66     1     2    1
    67     2     5    1
    68     2     3    1
    69    84    85    1
    70    25    26    1
    71    25    24    1
    72    95    92    1
    73    87    86    2
    74    88    85    1
    75    88    89    1
    76     3     4    2
    77    85    86    1
    78    24    21    1
    79    92    93    1
    80    92    91    1
    81    23    22    2
    82    93    94    2
    83    22    21    1
    84    21    20    1
    85    19    17    1
    86    18    17    1
    87    17    16    1
    88    12    13    1
    89    13    16    1
    90    13    14    1
    91    14    15    2
