@<TRIPOS>MOLECULE
tmp/5ivtB00.pdb
 104 96 0 0 0
SMALL
GASTEIGER

@<TRIPOS>ATOM
      1  N        -20.3530    8.7470    1.4000 N.3     8  ARG8       -0.1245
      2  CA       -19.6240   10.0020    1.5250 C.3     8  ARG8        0.1563
      3  C        -18.7030    9.9240    2.7570 C.2     8  ARG8        0.2260
      4  O        -19.1400    9.4860    3.8220 O.2     8  ARG8       -0.2867
      5  CB       -20.6060   11.1790    1.7140 C.3     8  ARG8        0.0307
      6  CG       -21.0950   11.7880    0.4090 C.3     8  ARG8        0.0489
      7  CD       -21.8810   13.0680    0.6230 C.3     8  ARG8        0.2205
      8  NE       -22.4080   13.5590   -0.6540 N.pl3   8  ARG8       -0.0865
      9  CZ       -23.1420   14.6570   -0.8110 C.cat   8  ARG8        0.5346
     10  NH1      -23.5510   15.0190   -2.0190 N.pl3   8  ARG8        0.1354
     11  NH2      -23.4750   15.4020    0.2420 N.pl3   8  ARG8        0.1354
     12  N        -17.9080   11.4410    5.4430 N.3    10  LEU10      -0.1245
     13  CA       -18.3310   12.4310    6.4150 C.3    10  LEU10       0.1561
     14  C        -17.7400   12.1010    7.7550 C.2    10  LEU10       0.2260
     15  O        -17.7850   10.9320    8.2130 O.2    10  LEU10      -0.2867
     16  CB       -19.8500   12.4740    6.5160 C.3    10  LEU10       0.0270
     17  CG       -20.5720   12.9900    5.2670 C.3    10  LEU10       0.0019
     18  CD1      -22.0500   12.6200    5.3170 C.3    10  LEU10       0.0001
     19  CD2      -20.4310   14.5030    5.1020 C.3    10  LEU10       0.0001
     20  N        -17.1970   16.8670    5.0570 N.3    23  LEU23      -0.1245
     21  CA       -16.7560   15.9230    4.0680 C.3    23  LEU23       0.1561
     22  C        -15.2620   16.0060    3.8150 C.2    23  LEU23       0.2260
     23  O        -14.7520   17.1100    3.5140 O.2    23  LEU23      -0.2867
     24  CB       -17.5660   16.3190    2.8110 C.3    23  LEU23       0.0270
     25  CG       -17.5030   15.4560    1.5770 C.3    23  LEU23       0.0019
     26  CD1      -18.0550   14.0810    1.8390 C.3    23  LEU23       0.0001
     27  CD2      -18.2830   16.1030    0.4360 C.3    23  LEU23       0.0001
     28  N        -12.5040   15.9930    1.4590 N.3    25  ASP25      -0.1239
     29  CA       -12.5330   16.2240    0.0370 C.3    25  ASP25       0.1674
     30  C        -11.1830   16.4590   -0.6060 C.2    25  ASP25       0.2266
     31  O        -10.6420   17.5770   -0.5820 O.2    25  ASP25      -0.2867
     32  CB       -13.4440   17.4310   -0.1620 C.3    25  ASP25       0.1410
     33  CG       -13.7330   17.6940   -1.5870 C.2    25  ASP25       0.3668
     34  OD1      -13.1780   16.9680   -2.4460 O.co2  25  ASP25      -0.2456
     35  OD2      -14.5190   18.5870   -1.8500 O.co2  25  ASP25      -0.2456
     36  N        -10.5570   16.6470   -3.6610 N.3    27  GLY27      -0.1210
     37  CA       -10.7250   17.5300   -4.8060 C.3    27  GLY27       0.1956
     38  C        -10.7190   19.0010   -4.4430 C.2    27  GLY27       0.2612
     39  O        -10.6830   19.8420   -5.3370 O.2    27  GLY27      -0.2717
     40  N        -10.7930   19.3470   -3.1580 N.am   28  ALA28      -0.1965
     41  CA       -10.8600   20.7290   -2.7110 C.3    28  ALA28       0.1728
     42  C         -9.4880   21.1940   -2.3080 C.2    28  ALA28       0.2616
     43  O         -8.8160   20.5630   -1.4770 O.2    28  ALA28      -0.2715
     44  CB       -11.8220   20.8260   -1.5340 C.3    28  ALA28       0.0334
     45  N         -9.0750   22.3340   -2.8340 N.am   29  ASP29      -0.1971
     46  CA        -7.7970   22.8980   -2.4060 C.3    29  ASP29       0.1709
     47  C         -7.8980   23.4270   -0.9730 C.2    29  ASP29       0.2293
     48  O         -6.9320   23.3450   -0.2240 O.2    29  ASP29      -0.2864
     49  CB        -7.4150   24.1010   -3.2990 C.3    29  ASP29       0.1436
     50  CG        -7.1670   23.8000   -4.7700 C.2    29  ASP29       0.3671
     51  OD1       -7.2500   24.7490   -5.5960 O.co2  29  ASP29      -0.2456
     52  OD2       -6.8280   22.6330   -5.1020 O.co2  29  ASP29      -0.2456
     53  N        -13.8740   24.7810    3.4420 N.3    32  VAL32      -0.1245
     54  CA       -14.9530   25.7560    3.4310 C.3    32  VAL32       0.1561
     55  C        -16.1200   25.2270    4.2610 C.2    32  VAL32       0.2260
     56  O        -16.5570   24.0680    4.0990 O.2    32  VAL32      -0.2867
     57  CB       -15.3110   26.2360    2.0010 C.3    32  VAL32       0.0252
     58  CG1      -15.7940   25.0980    1.1080 C.3    32  VAL32       0.0019
     59  CG2      -16.3100   27.3860    2.0530 C.3    32  VAL32       0.0019
     60  N        -13.7520   28.5230   -6.7420 N.3    48  GLY48      -0.1210
     61  CA       -14.5390   27.9700   -7.8430 C.3    48  GLY48       0.1956
     62  C        -14.8110   26.4980   -7.6520 C.2    48  GLY48       0.2612
     63  O        -13.9060   25.7280   -7.2830 O.2    48  GLY48      -0.2717
     64  N        -16.0820   26.1130   -7.8500 N.am   49  GLY49      -0.1942
     65  CA       -16.5890   24.7540   -7.7470 C.3    49  GLY49       0.2014
     66  C        -17.2410   24.2910   -9.0450 C.2    49  GLY49       0.2638
     67  O        -17.0840   24.9040  -10.1210 O.2    49  GLY49      -0.2714
     68  N        -17.9660   23.1840   -8.9570 N.am   50  ILE50      -0.1977
     69  CA       -18.6570   22.5870  -10.1070 C.3    50  ILE50       0.1596
     70  C        -19.5980   23.5560  -10.7620 C.2    50  ILE50       0.2287
     71  O        -19.7060   23.5250  -11.9730 O.2    50  ILE50      -0.2864
     72  CB       -19.3870   21.2610   -9.6870 C.3    50  ILE50       0.0276
     73  CG1      -19.8230   20.3820  -10.8710 C.3    50  ILE50       0.0022
     74  CG2      -20.5970   21.5010   -8.7900 C.3    50  ILE50       0.0022
     75  CD1      -18.6830   19.6360  -11.5260 C.3    50  ILE50       0.0001
     76  N        -21.4130   27.3510    0.9500 N.3    80  THR80      -0.1204
     77  CA       -21.1360   26.0310    0.4440 C.3    80  THR80       0.1979
     78  C        -22.3330   25.1110    0.7520 C.2    80  THR80       0.2460
     79  O        -22.9470   25.2430    1.8260 O.2    80  THR80      -0.2732
     80  CB       -19.8440   25.4720    1.0870 C.3    80  THR80       0.1783
     81  OG1      -19.6440   24.1450    0.5940 O.3    80  THR80      -0.2211
     82  CG2      -19.8890   25.4520    2.6300 C.3    80  THR80       0.0376
     83  N        -22.6530   24.1380   -0.1190 N.am   81  PRO81      -0.2717
     84  CA       -23.7720   23.2380    0.1800 C.3    81  PRO81       0.1535
     85  C        -23.4930   22.2820    1.3390 C.2    81  PRO81       0.2598
     86  O        -24.4280   21.7780    1.9630 O.2    81  PRO81      -0.2715
     87  CB       -23.9270   22.4400   -1.1150 C.3    81  PRO81       0.0310
     88  CG       -22.6000   22.4940   -1.7690 C.3    81  PRO81       0.0237
     89  CD       -22.0850   23.8630   -1.4540 C.3    81  PRO81       0.0939
     90  N        -22.2110   22.0110    1.6190 N.am   82  VAL82      -0.1978
     91  CA       -21.7940   21.0740    2.6570 C.3    82  VAL82       0.1596
     92  C        -20.4600   21.5330    3.2060 C.2    82  VAL82       0.2287
     93  O        -19.6950   22.1660    2.4680 O.2    82  VAL82      -0.2864
     94  CB       -21.6890   19.6580    2.0240 C.3    82  VAL82       0.0276
     95  CG1      -20.6620   19.5860    0.8970 C.3    82  VAL82       0.0022
     96  CG2      -21.4550   18.5660    3.0490 C.3    82  VAL82       0.0022
     97  N        -16.7370   21.2640    3.8980 N.3    84  ILE84      -0.1245
     98  CA       -15.6400   20.6060    3.1710 C.3    84  ILE84       0.1561
     99  C        -14.3240   20.7350    3.8590 C.2    84  ILE84       0.2260
    100  O        -13.9210   21.8810    4.0970 O.2    84  ILE84      -0.2867
    101  CB       -15.5240   21.2780    1.7520 C.3    84  ILE84       0.0252
    102  CG1      -16.7910   21.0590    0.9090 C.3    84  ILE84       0.0019
    103  CG2      -14.2490   20.8650    0.9850 C.3    84  ILE84       0.0019
    104  CD1      -16.9800   19.6560    0.3300 C.3    84  ILE84       0.0001
@<TRIPOS>BOND
     1    71    70    2
     2    75    73    1
     3    73    72    1
     4    70    69    1
     5    67    66    2
     6    69    72    1
     7    69    68    1
     8    72    74    1
     9    66    68   am
    10    66    65    1
    11    64    65    1
    12    64    62   am
    13    61    62    1
    14    61    60    1
    15    62    63    2
    16    51    50   ar
    17    39    38    2
    18    52    50   ar
    19    37    38    1
    20    37    36    1
    21    50    49    1
    22    38    40   am
    23    49    46    1
    24    40    41    1
    25    45    46    1
    26    45    42   am
    27    41    42    1
    28    41    44    1
    29    34    33   ar
    30    46    47    1
    31    42    43    2
    32    10     9    1
    33    35    33   ar
    34    88    89    1
    35    88    87    1
    36    33    32    1
    37    89    83    1
    38    87    84    1
    39    47    48    2
    40     9     8    2
    41     9    11    1
    42     8     7    1
    43    30    31    2
    44    30    29    1
    45    32    29    1
    46    83    84    1
    47    83    78   am
    48    29    28    1
    49    84    85    1
    50   104   102    1
    51     6     7    1
    52     6     5    1
    53    27    25    1
    54    77    78    1
    55    77    76    1
    56    77    80    1
    57    81    80    1
    58    78    79    2
    59    95    94    1
    60   102   101    1
    61   103   101    1
    62    80    82    1
    63    58    57    1
    64    85    90   am
    65    85    86    2
    66     1     2    1
    67     2     5    1
    68     2     3    1
    69    25    26    1
    70    25    24    1
    71    90    91    1
    72   101    98    1
    73    57    59    1
    74    57    54    1
    75    94    91    1
    76    94    96    1
    77    93    92    2
    78    91    92    1
    79     3     4    2
    80    24    21    1
    81    98    99    1
    82    98    97    1
    83    54    53    1
    84    54    55    1
    85    23    22    2
    86    22    21    1
    87    99   100    2
    88    21    20    1
    89    56    55    2
    90    19    17    1
    91    17    18    1
    92    17    16    1
    93    12    13    1
    94    13    16    1
    95    13    14    1
    96    14    15    2
