@<TRIPOS>MOLECULE
tmp/5ivvA00.pdb
 153 145 0 0 0
SMALL
GASTEIGER

@<TRIPOS>ATOM
      1  N        -26.7970   30.6040   11.4880 N.3    62  ARG62      -0.1245
      2  CA       -28.1070   30.7960   10.8900 C.3    62  ARG62       0.1563
      3  C        -29.1770   30.1400   11.7480 C.2    62  ARG62       0.2260
      4  O        -28.9630   29.0730   12.3330 O.2    62  ARG62      -0.2867
      5  CB       -28.1460   30.2380    9.4660 C.3    62  ARG62       0.0307
      6  CG       -28.0360   28.7330    9.3670 C.3    62  ARG62       0.0489
      7  CD       -27.8780   28.3140    7.9030 C.3    62  ARG62       0.2205
      8  NE       -26.5670   28.6860    7.3800 N.pl3  62  ARG62      -0.0865
      9  CZ       -26.2520   28.6970    6.0890 C.cat  62  ARG62       0.5346
     10  NH1      -27.1620   28.3690    5.1840 N.pl3  62  ARG62       0.1354
     11  NH2      -25.0310   29.0510    5.7040 N.pl3  62  ARG62       0.1354
     12  N        -32.4710   28.1060   12.5680 N.3    64  GLN64      -0.1245
     13  CA       -33.2110   26.9870   11.9870 C.3    64  GLN64       0.1566
     14  C        -34.4700   26.7270   12.8060 C.2    64  GLN64       0.2260
     15  O        -34.3850   26.3840   13.9910 O.2    64  GLN64      -0.2867
     16  CB       -32.3440   25.7250   11.9220 C.3    64  GLN64       0.0367
     17  CG       -31.0980   25.8740   11.0630 C.3    64  GLN64       0.0905
     18  CD       -30.4140   24.5450   10.7920 C.2    64  GLN64       0.2608
     19  OE1      -30.2000   23.7440   11.7040 O.2    64  GLN64      -0.2717
     20  NE2      -30.0830   24.2990    9.5320 N.am   64  GLN64      -0.0878
     21  N        -27.1130   27.2390   13.7160 N.3   131  TYR131     -0.1241
     22  CA       -26.1370   26.3660   13.0760 C.3   131  TYR131      0.1605
     23  C        -25.0520   27.2340   12.4600 C.2   131  TYR131      0.2264
     24  O        -25.3470   28.0800   11.6170 O.2   131  TYR131     -0.2867
     25  CB       -26.8070   25.4980   12.0050 C.3   131  TYR131      0.0534
     26  CG       -26.0280   24.2740   11.5850 C.ar  131  TYR131     -0.0201
     27  CD1      -26.5100   23.4280   10.5850 C.ar  131  TYR131     -0.0009
     28  CD2      -24.8170   23.9530   12.1850 C.ar  131  TYR131     -0.0009
     29  CE1      -25.8030   22.2970   10.1960 C.ar  131  TYR131      0.0417
     30  CE2      -24.1060   22.8270   11.8020 C.ar  131  TYR131      0.0417
     31  CZ       -24.5970   22.0070   10.8090 C.ar  131  TYR131      0.1957
     32  OH       -23.8850   20.8860   10.4430 O.3   131  TYR131     -0.2866
     33  N        -23.1590   27.0340    9.9210 N.3   133  ALA133     -0.1231
     34  CA       -22.9940   26.2040    8.7330 C.3   133  ALA133      0.1694
     35  C        -22.3050   26.9630    7.6050 C.2   133  ALA133      0.2592
     36  O        -22.4920   28.1710    7.4340 O.2   133  ALA133     -0.2718
     37  CB       -24.3470   25.6830    8.2410 C.3   133  ALA133      0.0304
     38  N        -21.5030   26.2300    6.8300 N.am  134  ASP134     -0.1974
     39  CA       -20.8620   26.7600    5.6240 C.3   134  ASP134      0.1709
     40  C        -19.9400   27.9330    5.9320 C.2   134  ASP134      0.2293
     41  O        -19.9650   28.9680    5.2630 O.2   134  ASP134     -0.2864
     42  CB       -21.9010   27.1580    4.5810 C.3   134  ASP134      0.1436
     43  CG       -22.4220   25.9800    3.8380 C.2   134  ASP134      0.3671
     44  OD1      -21.8780   25.6760    2.7590 O.co2 134  ASP134     -0.2456
     45  OD2      -23.3500   25.3390    4.3600 O.co2 134  ASP134     -0.2456
     46  N        -18.5070   23.4610    9.8080 N.3   184  TYR184     -0.1241
     47  CA       -19.8560   23.3760   10.3640 C.3   184  TYR184      0.1605
     48  C        -19.7330   23.2500   11.8740 C.2   184  TYR184      0.2264
     49  O        -19.2550   22.2270   12.3720 O.2   184  TYR184     -0.2867
     50  CB       -20.6310   22.1910    9.7800 C.3   184  TYR184      0.0534
     51  CG       -20.7210   22.2630    8.2730 C.ar  184  TYR184     -0.0201
     52  CD1      -21.7940   22.8870    7.6550 C.ar  184  TYR184     -0.0009
     53  CD2      -19.7070   21.7570    7.4740 C.ar  184  TYR184     -0.0009
     54  CE1      -21.8650   22.9890    6.2790 C.ar  184  TYR184      0.0417
     55  CE2      -19.7670   21.8570    6.0970 C.ar  184  TYR184      0.0417
     56  CZ       -20.8490   22.4700    5.5070 C.ar  184  TYR184      0.1957
     57  OH       -20.9130   22.5770    4.1360 O.3   184  TYR184     -0.2866
     58  N        -29.2310   21.0790   11.6660 N.3   191  SER191     -0.1202
     59  CA       -29.5130   20.0260   10.6970 C.3   191  SER191      0.2020
     60  C        -29.1930   20.4660    9.2740 C.2   191  SER191      0.2618
     61  O        -29.0010   21.6480    8.9870 O.2   191  SER191     -0.2717
     62  CB       -30.9810   19.5870   10.7920 C.3   191  SER191      0.2103
     63  OG       -31.8680   20.6100   10.3580 O.3   191  SER191     -0.2182
     64  N        -29.1360   19.4720    8.3830 N.am  192  PHE192     -0.1975
     65  CA       -29.0390   19.6870    6.9420 C.3   192  PHE192      0.1639
     66  C        -30.0580   18.7850    6.2590 C.2   192  PHE192      0.2290
     67  O        -30.1790   17.6070    6.6090 O.2   192  PHE192     -0.2864
     68  CB       -27.6100   19.4320    6.3980 C.3   192  PHE192      0.0560
     69  CG       -26.9900   18.0940    6.7950 C.ar  192  PHE192     -0.0200
     70  CD1      -26.4870   17.8880    8.0730 C.ar  192  PHE192     -0.0042
     71  CD2      -26.8520   17.0700    5.8600 C.ar  192  PHE192     -0.0042
     72  CE1      -25.8950   16.6750    8.4310 C.ar  192  PHE192     -0.0003
     73  CE2      -26.2540   15.8550    6.2030 C.ar  192  PHE192     -0.0003
     74  CZ       -25.7810   15.6510    7.4910 C.ar  192  PHE192     -0.0000
     75  N        -30.1010   16.3560    0.1650 N.3   195  HIS195     -0.1241
     76  CA       -29.5090   16.9590   -1.0270 C.3   195  HIS195      0.1621
     77  C        -28.4830   16.0130   -1.6320 C.2   195  HIS195      0.2264
     78  O        -28.0360   15.0550   -0.9950 O.2   195  HIS195     -0.2867
     79  CB       -28.8330   18.2940   -0.7050 C.3   195  HIS195      0.0745
     80  CG       -27.6500   18.1500    0.1980 C.ar  195  HIS195      0.0817
     81  ND1      -27.7760   17.9370    1.5530 N.ar  195  HIS195     -0.2268
     82  CD2      -26.3200   18.1610   -0.0610 C.ar  195  HIS195      0.1154
     83  CE1      -26.5750   17.8300    2.0940 C.ar  195  HIS195      0.1986
     84  NE2      -25.6730   17.9630    1.1380 N.ar  195  HIS195     -0.2212
     85  N        -24.7500   16.5510   -4.1880 N.3   197  GLU197     -0.1245
     86  CA       -23.7360   17.5650   -4.4380 C.3   197  GLU197      0.1567
     87  C        -23.8130   18.0680   -5.8700 C.2   197  GLU197      0.2260
     88  O        -24.2880   17.3760   -6.7740 O.2   197  GLU197     -0.2867
     89  CB       -22.3290   17.0260   -4.1710 C.3   197  GLU197      0.0388
     90  CG       -22.1110   16.4540   -2.7750 C.3   197  GLU197      0.1160
     91  CD       -22.5480   17.4010   -1.6600 C.2   197  GLU197      0.3649
     92  OE1      -23.1640   16.9210   -0.6870 O.co2 197  GLU197     -0.2457
     93  OE2      -22.2880   18.6180   -1.7540 O.co2 197  GLU197     -0.2457
     94  N        -18.5000   13.4960   -1.6190 N.3   203  SER203     -0.1217
     95  CA       -18.0500   14.3880   -0.5660 C.3   203  SER203      0.1889
     96  C        -17.4070   13.5580    0.5320 C.2   203  SER203      0.2288
     97  O        -17.7340   12.3820    0.7190 O.2   203  SER203     -0.2866
     98  CB       -19.1890   15.2380    0.0180 C.3   203  SER203      0.2089
     99  OG       -19.9010   14.5530    1.0340 O.3   203  SER203     -0.2183
    100  N        -16.2930   13.9610    4.7760 N.3   205  ASN205     -0.1240
    101  CA       -16.7060   14.7420    5.9340 C.3   205  ASN205      0.1653
    102  C        -15.9540   14.2260    7.1510 C.2   205  ASN205      0.2266
    103  O        -15.9550   13.0210    7.4040 O.2   205  ASN205     -0.2867
    104  CB       -18.2260   14.6240    6.1560 C.3   205  ASN205      0.1155
    105  CG       -19.0420   14.9940    4.9090 C.2   205  ASN205      0.2627
    106  OD1      -19.6330   16.0770    4.8430 O.2   205  ASN205     -0.2716
    107  ND2      -19.0890   14.0850    3.9240 N.am  205  ASN205     -0.0877
    108  N        -22.5210   13.4730   14.8970 N.3   213  LYS213     -0.1245
    109  CA       -23.3730   13.9550   13.8230 C.3   213  LYS213      0.1561
    110  C        -24.1350   12.7500   13.2800 C.2   213  LYS213      0.2260
    111  O        -23.5210   11.7550   12.8800 O.2   213  LYS213     -0.2867
    112  CB       -22.5300   14.6270   12.7370 C.3   213  LYS213      0.0271
    113  CG       -23.3320   15.2040   11.5610 C.3   213  LYS213      0.0035
    114  CD       -22.4050   15.7020   10.4460 C.3   213  LYS213      0.0206
    115  CE       -21.5250   16.8690   10.8880 C.3   213  LYS213      0.1093
    116  NZ       -22.2940   18.1410   11.1200 N.3   213  LYS213     -0.1314
    117  N        -26.3970   10.8780   10.5570 N.3   215  TRP215     -0.1241
    118  CA       -26.5310   10.9300    9.1080 C.3   215  TRP215      0.1605
    119  C        -27.6360    9.9990    8.6330 C.2   215  TRP215      0.2264
    120  O        -27.8860    8.9550    9.2380 O.2   215  TRP215     -0.2867
    121  CB       -25.2380   10.4870    8.3990 C.3   215  TRP215      0.0550
    122  CG       -24.0840   11.3990    8.5120 C.ar  215  TRP215      0.0003
    123  CD1      -23.2940   11.5990    9.6060 C.ar  215  TRP215      0.0946
    124  CD2      -23.5480   12.2190    7.4680 C.ar  215  TRP215      0.0152
    125  NE1      -22.3040   12.5120    9.3130 N.ar  215  TRP215     -0.2442
    126  CE2      -22.4380   12.9050    8.0040 C.ar  215  TRP215      0.0810
    127  CE3      -23.9020   12.4390    6.1330 C.ar  215  TRP215      0.0012
    128  CZ2      -21.6810   13.8000    7.2540 C.ar  215  TRP215      0.0191
    129  CZ3      -23.1520   13.3320    5.3860 C.ar  215  TRP215      0.0001
    130  CH2      -22.0530   14.0020    5.9460 C.ar  215  TRP215      0.0015
    131  N        -33.0510   23.4880   -0.6020 N.3   248  LEU248     -0.1245
    132  CA       -32.9230   24.3080    0.5930 C.3   248  LEU248      0.1561
    133  C        -33.9650   23.9510    1.6430 C.2   248  LEU248      0.2260
    134  O        -33.7790   24.2880    2.8180 O.2   248  LEU248     -0.2867
    135  CB       -33.0320   25.7910    0.2250 C.3   248  LEU248      0.0270
    136  CG       -31.9630   26.3030   -0.7440 C.3   248  LEU248      0.0019
    137  CD1      -32.1740   27.7800   -1.0650 C.3   248  LEU248      0.0001
    138  CD2      -30.5700   26.0660   -0.1760 C.3   248  LEU248      0.0001
    139  N        -28.3670   12.7070    0.9670 N.3   283  HIS283     -0.1241
    140  CA       -28.0920   12.5700    2.3920 C.3   283  HIS283      0.1621
    141  C        -28.6530   13.7630    3.1510 C.2   283  HIS283      0.2264
    142  O        -28.8820   14.8400    2.5960 O.2   283  HIS283     -0.2867
    143  CB       -26.5880   12.4070    2.6810 C.3   283  HIS283      0.0745
    144  CG       -25.7300   13.4520    2.0420 C.ar  283  HIS283      0.0817
    145  ND1      -25.4170   13.4340    0.6970 N.ar  283  HIS283     -0.2268
    146  CD2      -25.1170   14.5440    2.5580 C.ar  283  HIS283      0.1154
    147  CE1      -24.6520   14.4740    0.4130 C.ar  283  HIS283      0.1986
    148  NE2      -24.4540   15.1630    1.5240 N.ar  283  HIS283     -0.2212
    149  N        -17.2880   20.1490   12.3920 N.3   293  ALA293     -0.1245
    150  CA       -17.1190   19.3010   11.2230 C.3   293  ALA293      0.1562
    151  C        -16.5020   20.0880   10.0730 C.2   293  ALA293      0.2260
    152  O        -16.6430   21.3140    9.9850 O.2   293  ALA293     -0.2867
    153  CB       -18.4600   18.7020   10.7690 C.3   293  ALA293      0.0290
@<TRIPOS>BOND
     1    88    87    2
     2    87    86    1
     3    86    85    1
     4    86    89    1
     5    89    90    1
     6    90    91    1
     7    93    91   ar
     8    91    92   ar
     9    77    76    1
    10    77    78    2
    11    94    95    1
    12   137   136    1
    13    76    79    1
    14    76    75    1
    15   136   138    1
    16   136   135    1
    17    79    80    1
    18   131   132    1
    19    95    98    1
    20    95    96    1
    21    82    80   ar
    22    82    84   ar
    23    98    99    1
    24    80    81   ar
    25   135   132    1
    26   147   145   ar
    27   147   148   ar
    28    96    97    2
    29   132   133    1
    30   145   144   ar
    31   139   140    1
    32    84    83   ar
    33   148   146   ar
    34    81    83   ar
    35   133   134    2
    36   144   146   ar
    37   144   143    1
    38   140   143    1
    39   140   141    1
    40   142   141    2
    41    44    43   ar
    42    43    45   ar
    43    43    42    1
    44   107   105   am
    45    57    56    1
    46    42    39    1
    47   100   101    1
    48   106   105    2
    49   105   104    1
    50    10     9    1
    51    41    40    2
    52   129   130   ar
    53   129   127   ar
    54    56    55   ar
    55    56    54   ar
    56    39    40    1
    57    39    38    1
    58    11     9    1
    59    71    73   ar
    60    71    69   ar
    61   101   104    1
    62   101   102    1
    63   130   128   ar
    64     9     8    2
    65    55    53   ar
    66   127   124   ar
    67    73    74   ar
    68    66    67    2
    69    66    65    1
    70    54    52   ar
    71    68    69    1
    72    68    65    1
    73    69    70   ar
    74    38    35   am
    75    65    64    1
    76   102   103    2
    77   128   126   ar
    78     8     7    1
    79    36    35    2
    80   124   126   ar
    81   124   122   ar
    82    53    51   ar
    83    74    72   ar
    84    35    34    1
    85    52    51   ar
    86     7     6    1
    87   126   125   ar
    88    70    72   ar
    89    37    34    1
    90    51    50    1
    91    64    60   am
    92   121   122    1
    93   121   118    1
    94   122   123   ar
    95   119   118    1
    96   119   120    2
    97    34    33    1
    98    61    60    2
    99   118   117    1
   100    60    59    1
   101   125   123   ar
   102     6     5    1
   103     5     2    1
   104    20    18   am
   105    50    47    1
   106    46    47    1
   107   152   151    2
   108   151   150    1
   109    29    27   ar
   110    29    31   ar
   111    63    62    1
   112    47    48    1
   113    32    31    1
   114   114   115    1
   115   114   113    1
   116    27    26   ar
   117    59    62    1
   118    59    58    1
   119   153   150    1
   120    18    17    1
   121    18    19    2
   122    31    30   ar
   123   115   116    1
   124     2     1    1
   125     2     3    1
   126    17    16    1
   127   150   149    1
   128   113   112    1
   129    26    25    1
   130    26    28   ar
   131    24    23    2
   132     3     4    2
   133    30    28   ar
   134    48    49    2
   135    16    13    1
   136    13    12    1
   137    13    14    1
   138    25    22    1
   139    23    22    1
   140   112   109    1
   141    14    15    2
   142   111   110    2
   143    22    21    1
   144   110   109    1
   145   109   108    1
