@<TRIPOS>MOLECULE
tmp/5ivyA00.pdb
 159 151 0 0 0
SMALL
GASTEIGER

@<TRIPOS>ATOM
      1  N        -26.8170   30.5660   11.2590 N.3    62  ARG62      -0.1245
      2  CA       -28.1580   30.7230   10.7340 C.3    62  ARG62       0.1563
      3  C        -29.1930   30.1400   11.6880 C.2    62  ARG62       0.2260
      4  O        -28.9500   29.1490   12.3830 O.2    62  ARG62      -0.2867
      5  CB       -28.2750   30.0770    9.3390 C.3    62  ARG62       0.0307
      6  CG       -28.0470   28.5520    9.2810 C.3    62  ARG62       0.0489
      7  CD       -27.8920   28.0650    7.8070 C.3    62  ARG62       0.2205
      8  NE       -29.0360   28.4490    6.9850 N.pl3  62  ARG62      -0.0865
      9  CZ       -28.9900   28.7550    5.6940 C.cat  62  ARG62       0.5346
     10  NH1      -27.8290   28.7770    5.0290 N.pl3  62  ARG62       0.1354
     11  NH2      -30.1190   29.0960    5.0870 N.pl3  62  ARG62       0.1354
     12  N        -32.5610   28.1130   12.5440 N.3    64  GLN64      -0.1245
     13  CA       -33.3350   27.0080   11.9790 C.3    64  GLN64       0.1566
     14  C        -34.5850   26.7390   12.8070 C.2    64  GLN64       0.2260
     15  O        -34.4910   26.3190   13.9650 O.2    64  GLN64      -0.2867
     16  CB       -32.4940   25.7410   11.8900 C.3    64  GLN64       0.0367
     17  CG       -31.2340   25.8800   11.0320 C.3    64  GLN64       0.0905
     18  CD       -30.5510   24.5780   10.7830 C.2    64  GLN64       0.2608
     19  OE1      -30.2190   23.8410   11.7130 O.2    64  GLN64      -0.2717
     20  NE2      -30.3210   24.2720    9.5170 N.am   64  GLN64      -0.0878
     21  N        -27.2250   27.1470   13.6120 N.3   127  TYR127     -0.1241
     22  CA       -26.2080   26.2980   13.0080 C.3   127  TYR127      0.1605
     23  C        -25.1040   27.1650   12.4080 C.2   127  TYR127      0.2264
     24  O        -25.3720   27.9900   11.5260 O.2   127  TYR127     -0.2867
     25  CB       -26.8460   25.4040   11.9190 C.3   127  TYR127      0.0534
     26  CG       -26.0610   24.1950   11.5060 C.ar  127  TYR127     -0.0201
     27  CD1      -26.5240   23.3760   10.4860 C.ar  127  TYR127     -0.0009
     28  CD2      -24.8660   23.8490   12.1210 C.ar  127  TYR127     -0.0009
     29  CE1      -25.8070   22.2360   10.0810 C.ar  127  TYR127      0.0417
     30  CE2      -24.1600   22.6860   11.7640 C.ar  127  TYR127      0.0417
     31  CZ       -24.6190   21.8820   10.7290 C.ar  127  TYR127      0.1957
     32  OH       -23.8800   20.7350   10.4220 O.3   127  TYR127     -0.2866
     33  N        -23.1290   27.0650    9.8880 N.3   129  ALA129     -0.1231
     34  CA       -22.9490   26.2150    8.7130 C.3   129  ALA129      0.1694
     35  C        -22.2210   26.9900    7.6160 C.2   129  ALA129      0.2592
     36  O        -22.2640   28.2190    7.5600 O.2   129  ALA129     -0.2718
     37  CB       -24.3070   25.7240    8.2050 C.3   129  ALA129      0.0304
     38  N        -21.5010   26.2570    6.7730 N.am  130  ASP130     -0.1974
     39  CA       -20.8760   26.8430    5.5750 C.3   130  ASP130      0.1709
     40  C        -19.9080   27.9860    5.9090 C.2   130  ASP130      0.2293
     41  O        -19.9180   29.0480    5.2780 O.2   130  ASP130     -0.2864
     42  CB       -21.9370   27.2950    4.5640 C.3   130  ASP130      0.1436
     43  CG       -22.8270   26.1480    4.0700 C.2   130  ASP130      0.3671
     44  OD1      -23.9750   26.4260    3.6690 O.co2 130  ASP130     -0.2456
     45  OD2      -22.3970   24.9890    4.0170 O.co2 130  ASP130     -0.2456
     46  N        -18.4840   23.3930    9.8190 N.3   184  TYR184     -0.1241
     47  CA       -19.8540   23.3560   10.3260 C.3   184  TYR184      0.1605
     48  C        -19.7570   23.2430   11.8370 C.2   184  TYR184      0.2264
     49  O        -19.2180   22.2480   12.3280 O.2   184  TYR184     -0.2867
     50  CB       -20.6270   22.1270    9.8100 C.3   184  TYR184      0.0534
     51  CG       -20.7000   22.1500    8.3120 C.ar  184  TYR184     -0.0201
     52  CD1      -21.7710   22.7380    7.6560 C.ar  184  TYR184     -0.0009
     53  CD2      -19.6470   21.6850    7.5680 C.ar  184  TYR184     -0.0009
     54  CE1      -21.8030   22.8300    6.2580 C.ar  184  TYR184      0.0417
     55  CE2      -19.6590   21.7750    6.1820 C.ar  184  TYR184      0.0417
     56  CZ       -20.7530   22.3420    5.5600 C.ar  184  TYR184      0.1957
     57  OH       -20.7830   22.4710    4.1830 O.3   184  TYR184     -0.2866
     58  N        -29.2800   21.0260   11.6530 N.3   191  SER191     -0.1202
     59  CA       -29.5680   19.9740   10.6690 C.3   191  SER191      0.2020
     60  C        -29.3180   20.4260    9.2420 C.2   191  SER191      0.2619
     61  O        -29.1450   21.5990    8.9440 O.2   191  SER191     -0.2717
     62  CB       -31.0100   19.4800   10.7800 C.3   191  SER191      0.2103
     63  OG       -31.9370   20.4720   10.4210 O.3   191  SER191     -0.2182
     64  N        -29.3310   19.4270    8.3610 N.am  192  PHE192     -0.1961
     65  CA       -29.2200   19.6770    6.9220 C.3   192  PHE192      0.1771
     66  C        -30.2210   18.7690    6.2430 C.2   192  PHE192      0.2619
     67  O        -30.3350   17.6020    6.5820 O.2   192  PHE192     -0.2715
     68  CB       -27.7730   19.4270    6.4170 C.3   192  PHE192      0.0574
     69  CG       -27.1450   18.0690    6.7480 C.ar  192  PHE192     -0.0200
     70  CD1      -26.5510   17.8560    8.0040 C.ar  192  PHE192     -0.0042
     71  CD2      -27.0330   17.0400    5.7890 C.ar  192  PHE192     -0.0042
     72  CE1      -25.9100   16.6680    8.3260 C.ar  192  PHE192     -0.0003
     73  CE2      -26.3620   15.8430    6.1280 C.ar  192  PHE192     -0.0003
     74  CZ       -25.8540   15.6390    7.3850 C.ar  192  PHE192     -0.0000
     75  N        -30.9410   19.2990    5.2500 N.am  193  CYS193     -0.1968
     76  CA       -32.0130   18.5020    4.6760 C.3   193  CYS193      0.1712
     77  C        -31.5180   17.7230    3.4630 C.2   193  CYS193      0.2296
     78  O        -30.3440   17.7530    3.1240 O.2   193  CYS193     -0.2864
     79  CB       -33.2120   19.3400    4.2920 C.3   193  CYS193      0.0983
     80  SG       -32.8640   20.6540    3.1720 S.3   193  CYS193     -0.0798
     81  N        -30.3000   16.2920    0.1280 N.3   195  HIS195     -0.1241
     82  CA       -29.7300   16.8770   -1.0860 C.3   195  HIS195      0.1621
     83  C        -28.6760   15.9230   -1.6410 C.2   195  HIS195      0.2264
     84  O        -28.2210   14.9710   -0.9760 O.2   195  HIS195     -0.2867
     85  CB       -29.1030   18.2550   -0.7680 C.3   195  HIS195      0.0745
     86  CG       -27.8980   18.1670    0.1240 C.ar  195  HIS195      0.0817
     87  ND1      -27.9790   17.9320    1.4900 N.ar  195  HIS195     -0.2268
     88  CD2      -26.5880   18.1470   -0.1910 C.ar  195  HIS195      0.1154
     89  CE1      -26.7430   17.8110    1.9720 C.ar  195  HIS195      0.1986
     90  NE2      -25.8840   17.9890    0.9830 N.ar  195  HIS195     -0.2212
     91  N        -24.9190   16.4700   -4.2060 N.3   197  GLU197     -0.1245
     92  CA       -23.9230   17.5110   -4.4590 C.3   197  GLU197      0.1567
     93  C        -24.0030   18.0330   -5.8880 C.2   197  GLU197      0.2260
     94  O        -24.4220   17.3360   -6.8360 O.2   197  GLU197     -0.2867
     95  CB       -22.5040   16.9900   -4.2080 C.3   197  GLU197      0.0388
     96  CG       -22.3480   16.3550   -2.8060 C.3   197  GLU197      0.1160
     97  CD       -22.7210   17.3310   -1.6770 C.2   197  GLU197      0.3649
     98  OE1      -23.4490   16.9260   -0.7600 O.co2 197  GLU197     -0.2457
     99  OE2      -22.3260   18.5250   -1.7550 O.co2 197  GLU197     -0.2457
    100  N        -18.6610   13.4040   -1.6000 N.3   203  SER203     -0.1217
    101  CA       -18.1800   14.3010   -0.5470 C.3   203  SER203      0.1889
    102  C        -17.5360   13.4830    0.5710 C.2   203  SER203      0.2288
    103  O        -17.8280   12.2910    0.7500 O.2   203  SER203     -0.2866
    104  CB       -19.2830   15.2060    0.0530 C.3   203  SER203      0.2089
    105  OG       -20.1510   14.5340    0.9550 O.3   203  SER203     -0.2183
    106  N        -16.3340   13.9440    4.8050 N.3   205  ASN205     -0.1240
    107  CA       -16.7430   14.7420    5.9580 C.3   205  ASN205      0.1653
    108  C        -15.9890   14.2180    7.1660 C.2   205  ASN205      0.2266
    109  O        -15.9800   13.0150    7.4020 O.2   205  ASN205     -0.2867
    110  CB       -18.2440   14.5200    6.1880 C.3   205  ASN205      0.1155
    111  CG       -19.0790   14.9520    4.9780 C.2   205  ASN205      0.2627
    112  OD1      -19.5680   16.0780    4.9350 O.2   205  ASN205     -0.2716
    113  ND2      -19.1820   14.0800    3.9440 N.am  205  ASN205     -0.0877
    114  N        -22.6370   13.4550   14.8680 N.3   213  LYS213     -0.1245
    115  CA       -23.4530   13.9670   13.7690 C.3   213  LYS213      0.1561
    116  C        -24.2250   12.7600   13.2430 C.2   213  LYS213      0.2260
    117  O        -23.6100   11.7560   12.8640 O.2   213  LYS213     -0.2867
    118  CB       -22.5380   14.5720   12.7040 C.3   213  LYS213      0.0271
    119  CG       -23.3070   15.1480   11.5030 C.3   213  LYS213      0.0035
    120  CD       -22.3650   15.7340   10.4470 C.3   213  LYS213      0.0206
    121  CE       -21.6050   16.9720   10.9390 C.3   213  LYS213      0.1093
    122  NZ       -22.4770   18.2140   11.0790 N.3   213  LYS213     -0.1314
    123  N        -26.5110   10.8270   10.5360 N.3   215  TRP215     -0.1241
    124  CA       -26.6680   10.9260    9.0810 C.3   215  TRP215      0.1605
    125  C        -27.6980    9.9170    8.5940 C.2   215  TRP215      0.2264
    126  O        -27.8430    8.8280    9.1550 O.2   215  TRP215     -0.2867
    127  CB       -25.3990   10.4460    8.4190 C.3   215  TRP215      0.0550
    128  CG       -24.2170   11.3480    8.5130 C.ar  215  TRP215      0.0003
    129  CD1      -23.3960   11.5370    9.5980 C.ar  215  TRP215      0.0946
    130  CD2      -23.7140   12.2040    7.4820 C.ar  215  TRP215      0.0152
    131  NE1      -22.4300   12.4660    9.2980 N.ar  215  TRP215     -0.2442
    132  CE2      -22.5710   12.8420    7.9840 C.ar  215  TRP215      0.0810
    133  CE3      -24.0900   12.4290    6.1650 C.ar  215  TRP215      0.0012
    134  CZ2      -21.8410   13.7800    7.2260 C.ar  215  TRP215      0.0191
    135  CZ3      -23.3660   13.3450    5.3990 C.ar  215  TRP215      0.0001
    136  CH2      -22.2320   13.9700    5.9000 C.ar  215  TRP215      0.0015
    137  N        -33.2720   23.4180   -0.5010 N.3   248  LEU248     -0.1245
    138  CA       -33.1430   24.2240    0.7000 C.3   248  LEU248      0.1561
    139  C        -34.2230   23.8820    1.7190 C.2   248  LEU248      0.2260
    140  O        -34.0660   24.2420    2.8950 O.2   248  LEU248     -0.2867
    141  CB       -33.2010   25.6950    0.3080 C.3   248  LEU248      0.0270
    142  CG       -32.0650   26.1870   -0.6100 C.3   248  LEU248      0.0019
    143  CD1      -32.3130   27.5950   -1.0800 C.3   248  LEU248      0.0001
    144  CD2      -30.7210   25.9880    0.1640 C.3   248  LEU248      0.0001
    145  N        -28.5490   12.6960    0.9190 N.3   283  HIS283     -0.1241
    146  CA       -28.2340   12.5700    2.3380 C.3   283  HIS283      0.1621
    147  C        -28.8270   13.7520    3.0930 C.2   283  HIS283      0.2264
    148  O        -29.0940   14.8300    2.5430 O.2   283  HIS283     -0.2867
    149  CB       -26.7060   12.4270    2.5870 C.3   283  HIS283      0.0745
    150  CG       -25.8750   13.4960    1.9310 C.ar  283  HIS283      0.0817
    151  ND1      -25.5670   13.4810    0.5770 N.ar  283  HIS283     -0.2268
    152  CD2      -25.2890   14.6170    2.4220 C.ar  283  HIS283      0.1154
    153  CE1      -24.8400   14.5480    0.2690 C.ar  283  HIS283      0.1986
    154  NE2      -24.6730   15.2730    1.3770 N.ar  283  HIS283     -0.2212
    155  N        -17.2930   20.1160   12.4130 N.3   293  ALA293     -0.1245
    156  CA       -17.0820   19.2380   11.2530 C.3   293  ALA293      0.1562
    157  C        -16.4310   20.0070   10.1090 C.2   293  ALA293      0.2260
    158  O        -16.5170   21.2410   10.0170 O.2   293  ALA293     -0.2867
    159  CB       -18.3840   18.5710   10.7730 C.3   293  ALA293      0.0290
@<TRIPOS>BOND
     1    94    93    2
     2    93    92    1
     3    92    95    1
     4    92    91    1
     5    95    96    1
     6    96    97    1
     7    99    97   ar
     8    97    98   ar
     9    83    82    1
    10    83    84    2
    11   100   101    1
    12    82    85    1
    13    82    81    1
    14   143   142    1
    15    85    86    1
    16   142   144    1
    17   142   141    1
    18   101   104    1
    19   101   102    1
    20   137   138    1
    21    88    86   ar
    22    88    90   ar
    23   104   105    1
    24    86    87   ar
    25   153   151   ar
    26   153   154   ar
    27   141   138    1
    28   102   103    2
    29   151   150   ar
    30   138   139    1
    31   145   146    1
    32    90    89   ar
    33   154   152   ar
    34    87    89   ar
    35   139   140    2
    36   150   152   ar
    37   150   149    1
    38   146   149    1
    39   146   147    1
    40   148   147    2
    41    78    77    2
    42    80    79    1
    43    77    76    1
    44    44    43   ar
    45   113   111   am
    46    45    43   ar
    47    43    42    1
    48    57    56    1
    49    79    76    1
    50    42    39    1
    51    76    75    1
    52   106   107    1
    53   112   111    2
    54   111   110    1
    55    10     9    1
    56    11     9    1
    57    75    66   am
    58    41    40    2
    59   135   136   ar
    60   135   133   ar
    61    56    55   ar
    62    56    54   ar
    63    39    40    1
    64    39    38    1
    65     9     8    2
    66    71    73   ar
    67    71    69   ar
    68   136   134   ar
    69   107   110    1
    70   107   108    1
    71    73    74   ar
    72   133   130   ar
    73    55    53   ar
    74    66    67    2
    75    66    65    1
    76    54    52   ar
    77    68    69    1
    78    68    65    1
    79    69    70   ar
    80    38    35   am
    81    65    64    1
    82     8     7    1
    83   108   109    2
    84   134   132   ar
    85    74    72   ar
    86   130   132   ar
    87   130   128   ar
    88    36    35    2
    89    53    51   ar
    90    35    34    1
    91    52    51   ar
    92     7     6    1
    93   132   131   ar
    94    70    72   ar
    95    37    34    1
    96    51    50    1
    97    64    60   am
    98   127   128    1
    99   127   124    1
   100   128   129   ar
   101   125   124    1
   102   125   126    2
   103    34    33    1
   104    61    60    2
   105   124   123    1
   106    60    59    1
   107     6     5    1
   108   131   129   ar
   109     5     2    1
   110    20    18   am
   111    50    47    1
   112    46    47    1
   113   158   157    2
   114    29    27   ar
   115    29    31   ar
   116   157   156    1
   117    47    48    1
   118    63    62    1
   119    32    31    1
   120   120   121    1
   121   120   119    1
   122    27    26   ar
   123    59    62    1
   124    59    58    1
   125    31    30   ar
   126     2     1    1
   127     2     3    1
   128   159   156    1
   129    18    17    1
   130    18    19    2
   131   121   122    1
   132    17    16    1
   133   156   155    1
   134   119   118    1
   135    26    25    1
   136    26    28   ar
   137    24    23    2
   138     3     4    2
   139    30    28   ar
   140    48    49    2
   141    16    13    1
   142    25    22    1
   143    13    12    1
   144    13    14    1
   145    23    22    1
   146   118   115    1
   147    14    15    2
   148   117   116    2
   149    22    21    1
   150   116   115    1
   151   115   114    1
