@<TRIPOS>MOLECULE
tmp/5iw0A00.pdb
 161 152 0 0 0
SMALL
GASTEIGER

@<TRIPOS>ATOM
      1  N        -26.6470   30.5860   11.5050 N.3    62  ARG62      -0.1245
      2  CA       -27.9730   30.8270   10.9820 C.3    62  ARG62       0.1563
      3  C        -29.0020   30.1420   11.8590 C.2    62  ARG62       0.2260
      4  O        -28.7300   29.1370   12.5180 O.2    62  ARG62      -0.2867
      5  CB       -28.0960   30.3740    9.5350 C.3    62  ARG62       0.0307
      6  CG       -27.8300   28.9400    9.3090 C.3    62  ARG62       0.0489
      7  CD       -27.7530   28.7260    7.8130 C.3    62  ARG62       0.2205
      8  NE       -26.4490   29.0860    7.2680 N.pl3  62  ARG62      -0.0865
      9  CZ       -26.1870   29.1750    5.9680 C.cat  62  ARG62       0.5346
     10  NH1      -27.1500   28.9460    5.0820 N.pl3  62  ARG62       0.1354
     11  NH2      -24.9680   29.4940    5.5530 N.pl3  62  ARG62       0.1354
     12  N        -32.4000   28.1830   12.8070 N.3    64  GLN64      -0.1245
     13  CA       -33.2050   27.1050   12.2400 C.3    64  GLN64       0.1566
     14  C        -34.4290   26.8530   13.1080 C.2    64  GLN64       0.2260
     15  O        -34.2970   26.4550   14.2700 O.2    64  GLN64      -0.2867
     16  CB       -32.3900   25.8120   12.1140 C.3    64  GLN64       0.0367
     17  CG       -31.1710   25.9340   11.2150 C.3    64  GLN64       0.0905
     18  CD       -30.5150   24.5880   10.9730 C.2    64  GLN64       0.2608
     19  OE1      -30.1350   23.8870   11.9130 O.2    64  GLN64      -0.2717
     20  NE2      -30.3950   24.2090    9.7080 N.am   64  GLN64      -0.0878
     21  N        -27.0250   27.1720   13.7870 N.3   133  TYR133     -0.1241
     22  CA       -26.0430   26.3130   13.1370 C.3   133  TYR133      0.1605
     23  C        -24.9630   27.1920   12.5310 C.2   133  TYR133      0.2264
     24  O        -25.2550   28.0240   11.6650 O.2   133  TYR133     -0.2867
     25  CB       -26.7130   25.4510   12.0560 C.3   133  TYR133      0.0534
     26  CG       -25.9480   24.2030   11.6360 C.ar  133  TYR133     -0.0201
     27  CD1      -24.7360   23.8610   12.2340 C.ar  133  TYR133     -0.0009
     28  CD2      -26.4460   23.3610   10.6300 C.ar  133  TYR133     -0.0009
     29  CE1      -24.0380   22.7060   11.8500 C.ar  133  TYR133      0.0417
     30  CE2      -25.7640   22.2180   10.2510 C.ar  133  TYR133      0.0417
     31  CZ       -24.5610   21.8940   10.8630 C.ar  133  TYR133      0.1957
     32  OH       -23.8810   20.7640   10.4880 O.3   133  TYR133     -0.2866
     33  N        -22.9770   27.0250   10.0280 N.3   135  ALA135     -0.1231
     34  CA       -22.8610   26.1390    8.8750 C.3   135  ALA135      0.1694
     35  C        -22.1710   26.8350    7.7150 C.2   135  ALA135      0.2592
     36  O        -22.3560   28.0350    7.4990 O.2   135  ALA135     -0.2718
     37  CB       -24.2410   25.6540    8.4360 C.3   135  ALA135      0.0304
     38  N        -21.3740   26.0690    6.9710 N.am  136  ASP136     -0.1974
     39  CA       -20.7970   26.5320    5.7120 C.3   136  ASP136      0.1709
     40  C        -19.8820   27.7340    5.9420 C.2   136  ASP136      0.2293
     41  O        -20.0000   28.7740    5.2940 O.2   136  ASP136     -0.2864
     42  CB       -21.9010   26.8570    4.7040 C.3   136  ASP136      0.1436
     43  CG       -21.6980   26.1670    3.3780 C.2   136  ASP136      0.3671
     44  OD1      -20.7740   25.3350    3.2780 O.co2 136  ASP136     -0.2456
     45  OD2      -22.4710   26.4510    2.4410 O.co2 136  ASP136     -0.2456
     46  N        -18.3640   23.3660    9.8210 N.3   190  TYR190     -0.1241
     47  CA       -19.7150   23.3050   10.3760 C.3   190  TYR190      0.1605
     48  C        -19.6160   23.2050   11.8930 C.2   190  TYR190      0.2264
     49  O        -19.1210   22.2000   12.4140 O.2   190  TYR190     -0.2867
     50  CB       -20.4870   22.1100    9.8100 C.3   190  TYR190      0.0534
     51  CG       -20.7280   22.2110    8.3200 C.ar  190  TYR190     -0.0201
     52  CD1      -21.9250   22.7000    7.8280 C.ar  190  TYR190     -0.0009
     53  CD2      -19.7440   21.8400    7.4170 C.ar  190  TYR190     -0.0009
     54  CE1      -22.1420   22.8010    6.4720 C.ar  190  TYR190      0.0417
     55  CE2      -19.9540   21.9420    6.0530 C.ar  190  TYR190      0.0417
     56  CZ       -21.1550   22.4260    5.5970 C.ar  190  TYR190      0.1957
     57  OH       -21.3790   22.5340    4.2470 O.3   190  TYR190     -0.2866
     58  N        -29.2010   21.0890   11.7920 N.3   197  SER197     -0.1202
     59  CA       -29.4570   20.0240   10.8330 C.3   197  SER197      0.2020
     60  C        -29.1600   20.4580    9.4070 C.2   197  SER197      0.2618
     61  O        -29.0290   21.6440    9.0980 O.2   197  SER197     -0.2717
     62  CB       -30.9120   19.5440   10.9340 C.3   197  SER197      0.2103
     63  OG       -31.7970   20.5790   10.5340 O.3   197  SER197     -0.2182
     64  N        -29.0560   19.4580    8.5330 N.am  198  PHE198     -0.1975
     65  CA       -28.9070   19.6850    7.1030 C.3   198  PHE198      0.1639
     66  C        -29.9510   18.8340    6.3870 C.2   198  PHE198      0.2290
     67  O        -30.1350   17.6660    6.7290 O.2   198  PHE198     -0.2864
     68  CB       -27.4590   19.3920    6.6230 C.3   198  PHE198      0.0560
     69  CG       -26.9110   18.0070    6.9660 C.ar  198  PHE198     -0.0200
     70  CD1      -26.4030   17.7210    8.2300 C.ar  198  PHE198     -0.0042
     71  CD2      -26.8390   17.0200    5.9830 C.ar  198  PHE198     -0.0042
     72  CE1      -25.8690   16.4560    8.5200 C.ar  198  PHE198     -0.0003
     73  CE2      -26.3030   15.7640    6.2630 C.ar  198  PHE198     -0.0003
     74  CZ       -25.8280   15.4790    7.5270 C.ar  198  PHE198     -0.0000
     75  N        -30.0880   16.3660    0.2780 N.3   201  HIS201     -0.1241
     76  CA       -29.5000   16.9700   -0.9110 C.3   201  HIS201      0.1621
     77  C        -28.4860   16.0160   -1.5210 C.2   201  HIS201      0.2264
     78  O        -28.0370   15.0550   -0.8820 O.2   201  HIS201     -0.2867
     79  CB       -28.8000   18.2920   -0.5710 C.3   201  HIS201      0.0745
     80  CG       -27.6160   18.1140    0.3250 C.ar  201  HIS201      0.0817
     81  ND1      -27.7450   17.8340    1.6690 N.ar  201  HIS201     -0.2268
     82  CD2      -26.2850   18.1240    0.0710 C.ar  201  HIS201      0.1154
     83  CE1      -26.5480   17.7120    2.2110 C.ar  201  HIS201      0.1986
     84  NE2      -25.6440   17.8740    1.2650 N.ar  201  HIS201     -0.2212
     85  N        -24.7680   16.5160   -4.0960 N.3   203  GLU203     -0.1245
     86  CA       -23.7560   17.5320   -4.3490 C.3   203  GLU203      0.1567
     87  C        -23.8150   18.0380   -5.7820 C.2   203  GLU203      0.2260
     88  O        -24.2860   17.3570   -6.7000 O.2   203  GLU203     -0.2867
     89  CB       -22.3520   16.9960   -4.0660 C.3   203  GLU203      0.0388
     90  CG       -22.1640   16.4080   -2.6810 C.3   203  GLU203      0.1160
     91  CD       -22.5200   17.3830   -1.5630 C.2   203  GLU203      0.3649
     92  OE1      -23.1060   16.9330   -0.5590 O.co2 203  GLU203     -0.2457
     93  OE2      -22.2220   18.5900   -1.6860 O.co2 203  GLU203     -0.2457
     94  N        -18.4690   13.3910   -1.6410 N.3   209  SER209     -0.1217
     95  CA       -18.0030   14.2750   -0.5840 C.3   209  SER209      0.1889
     96  C        -17.3890   13.4480    0.5400 C.2   209  SER209      0.2288
     97  O        -17.6680   12.2550    0.7050 O.2   209  SER209     -0.2866
     98  CB       -19.1190   15.1840   -0.0340 C.3   209  SER209      0.2089
     99  OG       -19.9680   14.5140    0.8840 O.3   209  SER209     -0.2183
    100  N        -16.2810   13.9380    4.8170 N.3   211  ASN211     -0.1240
    101  CA       -16.6710   14.7290    5.9700 C.3   211  ASN211      0.1653
    102  C        -15.9260   14.1920    7.1850 C.2   211  ASN211      0.2266
    103  O        -15.9480   12.9840    7.4250 O.2   211  ASN211     -0.2867
    104  CB       -18.1940   14.6330    6.1690 C.3   211  ASN211      0.1155
    105  CG       -18.9910   14.9750    4.8860 C.2   211  ASN211      0.2627
    106  OD1      -19.5140   16.0840    4.7520 O.2   211  ASN211     -0.2716
    107  ND2      -19.0790   14.0190    3.9410 N.am  211  ASN211     -0.0877
    108  N        -22.4760   13.4550   14.9560 N.3   219  LYS219     -0.1245
    109  CA       -23.3070   13.9530   13.8670 C.3   219  LYS219      0.1561
    110  C        -24.0830   12.7560   13.3350 C.2   219  LYS219      0.2260
    111  O        -23.4780   11.7600   12.9390 O.2   219  LYS219     -0.2867
    112  CB       -22.4390   14.5900   12.7790 C.3   219  LYS219      0.0271
    113  CG       -23.2210   15.2300   11.6090 C.3   219  LYS219      0.0035
    114  CD       -22.2830   15.7680   10.5200 C.3   219  LYS219      0.0206
    115  CE       -21.4650   16.9700   11.0070 C.3   219  LYS219      0.1093
    116  NZ       -22.3260   18.2020   11.2620 N.3   219  LYS219     -0.1314
    117  N        -26.3620   10.8480   10.6630 N.3   221  TRP221     -0.1241
    118  CA       -26.5210   10.8940    9.2130 C.3   221  TRP221      0.1605
    119  C        -27.6030    9.9370    8.7240 C.2   221  TRP221      0.2264
    120  O        -27.7870    8.8480    9.2740 O.2   221  TRP221     -0.2867
    121  CB       -25.2390   10.4740    8.4910 C.3   221  TRP221      0.0550
    122  CG       -24.0950   11.3780    8.5960 C.ar  221  TRP221      0.0003
    123  CD1      -23.3260   11.6060    9.7010 C.ar  221  TRP221      0.0946
    124  CD2      -23.5380   12.1660    7.5430 C.ar  221  TRP221      0.0152
    125  NE1      -22.3270   12.4970    9.4050 N.ar  221  TRP221     -0.2442
    126  CE2      -22.4320   12.8550    8.0810 C.ar  221  TRP221      0.0810
    127  CE3      -23.8630   12.3520    6.1900 C.ar  221  TRP221      0.0012
    128  CZ2      -21.6570   13.7310    7.3220 C.ar  221  TRP221      0.0191
    129  CZ3      -23.0880   13.2170    5.4330 C.ar  221  TRP221      0.0001
    130  CH2      -22.0000   13.8990    6.0020 C.ar  221  TRP221      0.0015
    131  N        -32.9320   23.6970   -0.4270 N.3   254  LEU254     -0.1245
    132  CA       -32.8070   24.4990    0.7810 C.3   254  LEU254      0.1561
    133  C        -33.8590   24.1290    1.8180 C.2   254  LEU254      0.2260
    134  O        -33.6970   24.4720    2.9950 O.2   254  LEU254     -0.2867
    135  CB       -32.9170   25.9860    0.4260 C.3   254  LEU254      0.0270
    136  CG       -31.9050   26.4840   -0.6090 C.3   254  LEU254      0.0019
    137  CD1      -32.1550   27.9410   -0.9510 C.3   254  LEU254      0.0001
    138  CD2      -30.4760   26.2850   -0.1200 C.3   254  LEU254      0.0001
    139  N        -28.3840   12.7230    1.0480 N.3   289  HIS289     -0.1241
    140  CA       -28.0770   12.5870    2.4660 C.3   289  HIS289      0.1621
    141  C        -28.6330   13.7790    3.2420 C.2   289  HIS289      0.2264
    142  O        -28.8590   14.8630    2.6940 O.2   289  HIS289     -0.2867
    143  CB       -26.5680   12.4080    2.7030 C.3   289  HIS289      0.0745
    144  CG       -25.7020   13.4550    2.0680 C.ar  289  HIS289      0.0817
    145  ND1      -25.3880   13.4510    0.7240 N.ar  289  HIS289     -0.2268
    146  CD2      -25.0540   14.5180    2.6030 C.ar  289  HIS289      0.1154
    147  CE1      -24.5940   14.4750    0.4580 C.ar  289  HIS289      0.1986
    148  NE2      -24.3740   15.1370    1.5800 N.ar  289  HIS289     -0.2212
    149  N        -17.1960   20.0940   12.4420 N.3   299  ALA299     -0.1245
    150  CA       -16.9810   19.2270   11.2890 C.3   299  ALA299      0.1562
    151  C        -16.3680   20.0140   10.1390 C.2   299  ALA299      0.2260
    152  O        -16.5050   21.2390   10.0490 O.2   299  ALA299     -0.2867
    153  CB       -18.2920   18.5730   10.8250 C.3   299  ALA299      0.0290
    154  N        -16.0710   18.4580   -1.2520 N.3   303  ASN303     -0.1240
    155  CA       -16.3890   17.6170   -2.3990 C.3   303  ASN303      0.1653
    156  C        -15.0940   17.2690   -3.1180 C.2   303  ASN303      0.2266
    157  O        -14.2150   18.1190   -3.2730 O.2   303  ASN303     -0.2867
    158  CB       -17.3420   18.3370   -3.3560 C.3   303  ASN303      0.1155
    159  CG       -18.7360   18.5290   -2.7680 C.2   303  ASN303      0.2627
    160  OD1      -19.0580   17.9910   -1.7080 O.2   303  ASN303     -0.2716
    161  ND2      -19.5630   19.3040   -3.4550 N.am  303  ASN303     -0.0877
@<TRIPOS>BOND
     1    88    87    2
     2    87    86    1
     3    86    85    1
     4    86    89    1
     5    89    90    1
     6   161   159   am
     7   158   159    1
     8   158   155    1
     9   157   156    2
    10   156   155    1
    11   159   160    2
    12    90    91    1
    13   155   154    1
    14    93    91   ar
    15    94    95    1
    16    91    92   ar
    17    77    76    1
    18    77    78    2
    19   137   136    1
    20    76    79    1
    21    76    75    1
    22   136   138    1
    23   136   135    1
    24    95    98    1
    25    95    96    1
    26    79    80    1
    27   131   132    1
    28    98    99    1
    29    82    80   ar
    30    82    84   ar
    31    80    81   ar
    32   135   132    1
    33   147   145   ar
    34   147   148   ar
    35    96    97    2
    36   145   144   ar
    37   132   133    1
    38   139   140    1
    39    84    83   ar
    40   148   146   ar
    41    81    83   ar
    42   133   134    2
    43   144   146   ar
    44   144   143    1
    45    45    43   ar
    46   140   143    1
    47   140   141    1
    48   142   141    2
    49    44    43   ar
    50    43    42    1
    51   107   105   am
    52    57    56    1
    53    42    39    1
    54   106   105    2
    55   100   101    1
    56   105   104    1
    57    10     9    1
    58    41    40    2
    59   129   130   ar
    60   129   127   ar
    61    11     9    1
    62    56    55   ar
    63    56    54   ar
    64    39    40    1
    65    39    38    1
    66     9     8    2
    67   101   104    1
    68   101   102    1
    69    71    73   ar
    70    71    69   ar
    71   130   128   ar
    72    55    53   ar
    73   127   124   ar
    74    73    74   ar
    75    66    67    2
    76    66    65    1
    77    54    52   ar
    78    68    69    1
    79    68    65    1
    80    69    70   ar
    81    38    35   am
    82    65    64    1
    83   102   103    2
    84     8     7    1
    85   128   126   ar
    86    53    51   ar
    87    36    35    2
    88    74    72   ar
    89   124   126   ar
    90   124   122   ar
    91    35    34    1
    92     7     6    1
    93    52    51   ar
    94   126   125   ar
    95    70    72   ar
    96    51    50    1
    97    37    34    1
    98   121   122    1
    99   121   118    1
   100    64    60   am
   101   122   123   ar
   102   119   118    1
   103   119   120    2
   104    34    33    1
   105    61    60    2
   106   118   117    1
   107     6     5    1
   108   125   123   ar
   109    60    59    1
   110     5     2    1
   111    20    18   am
   112    50    47    1
   113    46    47    1
   114   152   151    2
   115   151   150    1
   116    30    28   ar
   117    30    31   ar
   118    47    48    1
   119    32    31    1
   120   114   115    1
   121   114   113    1
   122    63    62    1
   123    28    26   ar
   124   153   150    1
   125    59    62    1
   126    59    58    1
   127    31    29   ar
   128    18    17    1
   129    18    19    2
   130     2     1    1
   131     2     3    1
   132   115   116    1
   133    17    16    1
   134   150   149    1
   135   113   112    1
   136    26    25    1
   137    26    27   ar
   138    24    23    2
   139    29    27   ar
   140     3     4    2
   141    48    49    2
   142    25    22    1
   143    16    13    1
   144    13    12    1
   145    13    14    1
   146    23    22    1
   147   112   109    1
   148   111   110    2
   149    14    15    2
   150    22    21    1
   151   110   109    1
   152   109   108    1
