@<TRIPOS>MOLECULE
tmp/5iw4B00.pdb
 199 191 0 0 0
SMALL
GASTEIGER

@<TRIPOS>ATOM
      1  N         28.4740   -1.4640  -33.8770 N.3   127  GLN127     -0.1245
      2  CA        28.0150   -2.4180  -34.8780 C.3   127  GLN127      0.1566
      3  C         28.8140   -3.7260  -34.8210 C.2   127  GLN127      0.2260
      4  O         30.0450   -3.7330  -34.9180 O.2   127  GLN127     -0.2867
      5  CB        28.0720   -1.8040  -36.2840 C.3   127  GLN127      0.0367
      6  CG        27.5880   -2.7330  -37.3830 C.3   127  GLN127      0.0905
      7  CD        27.4060   -2.0310  -38.7130 C.2   127  GLN127      0.2608
      8  OE1       27.7230   -0.8470  -38.8530 O.2   127  GLN127     -0.2717
      9  NE2       26.8870   -2.7590  -39.7020 N.am  127  GLN127     -0.0878
     10  N         28.9610   -7.4300  -36.7290 N.3   129  ALA129     -0.1245
     11  CA        28.5220   -8.0630  -37.9700 C.3   129  ALA129      0.1562
     12  C         28.4840   -9.5850  -37.8430 C.2   129  ALA129      0.2260
     13  O         29.5260  -10.2470  -37.8530 O.2   129  ALA129     -0.2867
     14  CB        29.4160   -7.6410  -39.1230 C.3   129  ALA129      0.0290
     15  N         28.4440  -13.3840  -38.5370 N.3   131  CYS131     -0.1235
     16  CA        29.1090  -14.0640  -39.6320 C.3   131  CYS131      0.1677
     17  C         29.1350  -15.5670  -39.4190 C.2   131  CYS131      0.2270
     18  O         29.7120  -16.0530  -38.4500 O.2   131  CYS131     -0.2867
     19  CB        30.5330  -13.5340  -39.7860 C.3   131  CYS131      0.0956
     20  SG        31.3780  -14.1930  -41.2300 S.3   131  CYS131     -0.0801
     21  N         30.2600  -19.4440  -40.0510 N.3   133  ILE133     -0.1245
     22  CA        31.3930  -20.2320  -40.5100 C.3   133  ILE133      0.1561
     23  C         31.0390  -21.7020  -40.3100 C.2   133  ILE133      0.2260
     24  O         30.5400  -22.0880  -39.2510 O.2   133  ILE133     -0.2867
     25  CB        32.7000  -19.8420  -39.7880 C.3   133  ILE133      0.0252
     26  CG1       33.8490  -20.7410  -40.2290 C.3   133  ILE133      0.0019
     27  CG2       32.5310  -19.8770  -38.2750 C.3   133  ILE133      0.0019
     28  CD1       35.1950  -20.3010  -39.6790 C.3   133  ILE133      0.0001
     29  N         41.2940  -20.0900  -50.2550 N.3   147  HIS147     -0.1241
     30  CA        40.7580  -18.7960  -50.6660 C.3   147  HIS147      0.1621
     31  C         41.6850  -18.0310  -51.6120 C.2   147  HIS147      0.2264
     32  O         42.9020  -18.0130  -51.4280 O.2   147  HIS147     -0.2867
     33  CB        40.4180  -17.9480  -49.4340 C.3   147  HIS147      0.0745
     34  CG        39.3520  -18.5450  -48.5710 C.ar  147  HIS147      0.0817
     35  ND1       38.0630  -18.0590  -48.5330 N.ar  147  HIS147     -0.2268
     36  CD2       39.3770  -19.6020  -47.7220 C.ar  147  HIS147      0.1154
     37  CE1       37.3430  -18.7830  -47.6950 C.ar  147  HIS147      0.1986
     38  NE2       38.1190  -19.7270  -47.1910 N.ar  147  HIS147     -0.2212
     39  N         41.1940  -14.8330  -51.9290 N.3   149  ARG149     -0.1231
     40  CA        41.2770  -13.6000  -51.1550 C.3   149  ARG149      0.1694
     41  C         42.6280  -13.4770  -50.4580 C.2   149  ARG149      0.2592
     42  O         43.2360  -12.4050  -50.4350 O.2   149  ARG149     -0.2718
     43  CB        40.1540  -13.5600  -50.1190 C.3   149  ARG149      0.0321
     44  CG        39.7080  -12.1600  -49.7460 C.3   149  ARG149      0.0489
     45  CD        38.7470  -11.6000  -50.7810 C.3   149  ARG149      0.2205
     46  NE        38.8080  -10.1440  -50.8470 N.pl3 149  ARG149     -0.0865
     47  CZ        39.3730   -9.4670  -51.8420 C.cat 149  ARG149      0.5346
     48  NH1       39.3890   -8.1410  -51.8200 N.pl3 149  ARG149      0.1354
     49  NH2       39.9140  -10.1160  -52.8640 N.pl3 149  ARG149      0.1354
     50  N         43.0900  -14.5900  -49.8990 N.am  150  HIS150     -0.1976
     51  CA        44.4280  -14.6800  -49.3330 C.3   150  HIS150      0.1656
     52  C         45.0230  -16.0460  -49.6560 C.2   150  HIS150      0.2291
     53  O         44.4800  -17.0780  -49.2690 O.2   150  HIS150     -0.2864
     54  CB        44.3970  -14.4400  -47.8230 C.3   150  HIS150      0.0771
     55  CG        43.3470  -15.2310  -47.1050 C.ar  150  HIS150      0.0820
     56  ND1       43.4340  -16.5950  -46.9280 N.ar  150  HIS150     -0.2267
     57  CD2       42.1870  -14.8490  -46.5230 C.ar  150  HIS150      0.1154
     58  CE1       42.3720  -17.0190  -46.2660 C.ar  150  HIS150      0.1986
     59  NE2       41.5990  -15.9800  -46.0080 N.ar  150  HIS150     -0.2212
     60  N         40.8650  -24.1900  -45.3700 N.3   156  THR156     -0.1203
     61  CA        39.9960  -23.8520  -44.2500 C.3   156  THR156      0.1994
     62  C         38.5190  -23.9990  -44.6010 C.2   156  THR156      0.2617
     63  O         38.1580  -24.3050  -45.7380 O.2   156  THR156     -0.2717
     64  CB        40.2720  -22.4280  -43.7290 C.3   156  THR156      0.1784
     65  OG1       39.5380  -22.2060  -42.5200 O.3   156  THR156     -0.2211
     66  CG2       39.8870  -21.3780  -44.7720 C.3   156  THR156      0.0376
     67  N         37.6670  -23.7900  -43.6100 N.am  157  VAL157     -0.1979
     68  CA        36.2340  -23.9420  -43.7910 C.3   157  VAL157      0.1595
     69  C         35.6360  -22.7060  -44.4630 C.2   157  VAL157      0.2287
     70  O         36.3390  -21.7230  -44.7020 O.2   157  VAL157     -0.2864
     71  CB        35.5610  -24.2000  -42.4450 C.3   157  VAL157      0.0276
     72  CG1       35.7560  -25.6570  -42.0340 C.3   157  VAL157      0.0022
     73  CG2       36.1410  -23.2650  -41.3910 C.3   157  VAL157      0.0022
     74  N         32.9990  -19.4010  -44.8340 N.3   159  ALA159     -0.1231
     75  CA        32.4150  -18.3850  -43.9660 C.3   159  ALA159      0.1694
     76  C         31.8250  -17.2330  -44.7670 C.2   159  ALA159      0.2593
     77  O         32.2230  -16.9820  -45.9030 O.2   159  ALA159     -0.2718
     78  CB        33.4430  -17.8650  -42.9840 C.3   159  ALA159      0.0304
     79  N         30.8780  -16.5260  -44.1660 N.am  160  GLY160     -0.1942
     80  CA        30.2400  -15.4150  -44.8440 C.3   160  GLY160      0.2014
     81  C         29.3790  -14.5880  -43.9150 C.2   160  GLY160      0.2639
     82  O         28.8240  -15.1000  -42.9390 O.2   160  GLY160     -0.2714
     83  N         29.2770  -13.2980  -44.2110 N.am  161  PHE161     -0.1959
     84  CA        28.4520  -12.4030  -43.4140 C.3   161  PHE161      0.1771
     85  C         26.9910  -12.7610  -43.5410 C.2   161  PHE161      0.2619
     86  O         26.5170  -13.0990  -44.6270 O.2   161  PHE161     -0.2715
     87  CB        28.6480  -10.9540  -43.8480 C.3   161  PHE161      0.0574
     88  CG        29.9350  -10.3580  -43.3830 C.ar  161  PHE161     -0.0200
     89  CD1       30.1070  -10.0110  -42.0550 C.ar  161  PHE161     -0.0042
     90  CD2       30.9740  -10.1390  -44.2690 C.ar  161  PHE161     -0.0042
     91  CE1       31.2960   -9.4590  -41.6190 C.ar  161  PHE161     -0.0003
     92  CE2       32.1580   -9.5830  -43.8400 C.ar  161  PHE161     -0.0003
     93  CZ        32.3210   -9.2460  -42.5130 C.ar  161  PHE161     -0.0000
     94  N         26.2830  -12.6810  -42.4210 N.am  162  VAL162     -0.1963
     95  CA        24.8400  -12.8630  -42.4020 C.3   162  VAL162      0.1727
     96  C         24.1620  -11.6150  -42.9520 C.2   162  VAL162      0.2616
     97  O         24.4920  -10.5000  -42.5550 O.2   162  VAL162     -0.2715
     98  CB        24.3360  -13.1250  -40.9700 C.3   162  VAL162      0.0290
     99  CG1       22.8130  -13.2450  -40.9440 C.3   162  VAL162      0.0023
    100  CG2       24.9900  -14.3710  -40.4030 C.3   162  VAL162      0.0023
    101  N         23.1780  -11.7940  -43.8050 N.am  163  GLU163     -0.1977
    102  CA        22.5000  -10.6860  -44.4220 C.3   163  GLU163      0.1602
    103  C         21.3770  -10.1820  -43.5740 C.2   163  GLU163      0.2287
    104  O         20.8800  -10.8770  -42.7530 O.2   163  GLU163     -0.2864
    105  CB        21.9410  -11.1180  -45.7540 C.3   163  GLU163      0.0415
    106  CG        22.9690  -11.3280  -46.8160 C.3   163  GLU163      0.1163
    107  CD        22.3900  -11.7040  -48.1650 C.2   163  GLU163      0.3649
    108  OE1       21.2380  -12.1650  -48.2400 O.co2 163  GLU163     -0.2457
    109  OE2       23.1000  -11.5330  -49.1560 O.co2 163  GLU163     -0.2457
    110  N         25.6610  -19.1950  -48.1730 N.3   175  GLU175     -0.1245
    111  CA        27.0960  -19.0780  -48.4270 C.3   175  GLU175      0.1567
    112  C         27.6600  -20.3620  -49.0060 C.2   175  GLU175      0.2260
    113  O         28.4600  -20.3310  -49.9510 O.2   175  GLU175     -0.2867
    114  CB        27.8540  -18.7020  -47.1530 C.3   175  GLU175      0.0388
    115  CG        29.1750  -17.9930  -47.4010 C.3   175  GLU175      0.1160
    116  CD        29.0040  -16.6110  -48.0130 C.2   175  GLU175      0.3649
    117  OE1       27.9310  -15.9960  -47.8260 O.co2 175  GLU175     -0.2457
    118  OE2       29.9490  -16.1430  -48.6860 O.co2 175  GLU175     -0.2457
    119  N         35.3340  -11.4630  -33.5310 N.3   195  TRP195     -0.1241
    120  CA        36.4440  -11.4830  -34.4690 C.3   195  TRP195      0.1605
    121  C         36.6580  -10.0790  -35.0180 C.2   195  TRP195      0.2264
    122  O         36.0380   -9.6900  -36.0050 O.2   195  TRP195     -0.2867
    123  CB        36.1280  -12.4660  -35.5940 C.3   195  TRP195      0.0550
    124  CG        37.2860  -12.8040  -36.4720 C.ar  195  TRP195      0.0003
    125  CD1       37.4190  -12.5120  -37.7940 C.ar  195  TRP195      0.0946
    126  CD2       38.4720  -13.5150  -36.0950 C.ar  195  TRP195      0.0152
    127  NE1       38.6150  -12.9950  -38.2670 N.ar  195  TRP195     -0.2442
    128  CE2       39.2800  -13.6160  -37.2430 C.ar  195  TRP195      0.0810
    129  CE3       38.9270  -14.0740  -34.8990 C.ar  195  TRP195      0.0012
    130  CZ2       40.5220  -14.2450  -37.2310 C.ar  195  TRP195      0.0191
    131  CZ3       40.1610  -14.7050  -34.8890 C.ar  195  TRP195      0.0001
    132  CH2       40.9440  -14.7840  -36.0490 C.ar  195  TRP195      0.0015
    133  N         37.9260   -7.9650  -37.0450 N.3   197  PHE197     -0.1228
    134  CA        38.5990   -7.6980  -38.3090 C.3   197  PHE197      0.1721
    135  C         37.6480   -7.3300  -39.4390 C.2   197  PHE197      0.2437
    136  O         37.5540   -8.0600  -40.4210 O.2   197  PHE197     -0.2733
    137  CB        39.4390   -8.9100  -38.7130 C.3   197  PHE197      0.0547
    138  CG        40.3690   -9.3750  -37.6350 C.ar  197  PHE197     -0.0202
    139  CD1       41.5730   -8.7270  -37.4160 C.ar  197  PHE197     -0.0042
    140  CD2       40.0270  -10.4410  -36.8210 C.ar  197  PHE197     -0.0042
    141  CE1       42.4310   -9.1450  -36.4160 C.ar  197  PHE197     -0.0003
    142  CE2       40.8790  -10.8680  -35.8200 C.ar  197  PHE197     -0.0003
    143  CZ        42.0850  -10.2170  -35.6160 C.ar  197  PHE197     -0.0000
    144  N         36.9710   -6.1740  -39.3280 N.am  198  PRO198     -0.2729
    145  CA        37.1090   -5.1940  -38.2430 C.3   198  PRO198      0.1401
    146  C         36.2200   -5.4430  -37.0280 C.2   198  PRO198      0.2269
    147  O         36.6000   -5.0280  -35.9370 O.2   198  PRO198     -0.2865
    148  CB        36.6950   -3.8820  -38.9130 C.3   198  PRO198      0.0296
    149  CG        35.7260   -4.2870  -39.9550 C.3   198  PRO198      0.0237
    150  CD        36.1520   -5.6520  -40.4380 C.3   198  PRO198      0.0939
    151  N         33.4170   -8.4090  -36.4670 N.3   200  SER200     -0.1217
    152  CA        32.4290   -9.4600  -36.6770 C.3   200  SER200      0.1889
    153  C         32.2720  -10.4230  -35.5060 C.2   200  SER200      0.2288
    154  O         33.1170  -10.4840  -34.6090 O.2   200  SER200     -0.2866
    155  CB        32.7090  -10.2210  -37.9730 C.3   200  SER200      0.2089
    156  OG        33.9620  -10.8620  -37.9190 O.3   200  SER200     -0.2183
    157  N         31.5640  -14.4350  -35.1180 N.3   202  MET202     -0.1245
    158  CA        31.4420  -15.7040  -35.8120 C.3   202  MET202      0.1570
    159  C         30.4470  -16.5940  -35.0920 C.2   202  MET202      0.2261
    160  O         30.4350  -16.6600  -33.8620 O.2   202  MET202     -0.2867
    161  CB        32.7930  -16.4220  -35.9030 C.3   202  MET202      0.0387
    162  CG        33.9300  -15.5830  -36.4730 C.3   202  MET202      0.0595
    163  SD        33.5920  -14.9120  -38.1120 S.3   202  MET202     -0.1393
    164  CE        33.2630  -16.4050  -39.0360 C.3   202  MET202      0.0692
    165  N         35.8670  -16.3720  -55.2600 N.3   220  GLU220     -0.1245
    166  CA        35.9080  -16.6250  -53.8440 C.3   220  GLU220      0.1567
    167  C         36.9850  -17.6150  -53.5160 C.2   220  GLU220      0.2260
    168  O         37.8050  -17.3780  -52.6520 O.2   220  GLU220     -0.2867
    169  CB        34.5440  -17.1330  -53.3830 C.3   220  GLU220      0.0388
    170  CG        34.3780  -17.3020  -51.8910 C.3   220  GLU220      0.1160
    171  CD        34.4150  -16.0120  -51.1550 C.2   220  GLU220      0.3649
    172  OE1       33.8140  -15.0460  -51.6530 O.co2 220  GLU220     -0.2457
    173  OE2       35.0390  -15.9620  -50.0840 O.co2 220  GLU220     -0.2457
    174  N         44.1760  -23.8290  -40.4760 N.3   236  PRO236     -0.2116
    175  CA        44.3860  -22.5850  -39.7300 C.3   236  PRO236      0.1372
    176  C         45.0480  -22.8390  -38.3800 C.2   236  PRO236      0.2244
    177  O         44.8820  -23.9190  -37.8130 O.2   236  PRO236     -0.2868
    178  CB        42.9630  -22.0680  -39.5270 C.3   236  PRO236      0.0268
    179  CG        42.2440  -22.5490  -40.7220 C.3   236  PRO236      0.0207
    180  CD        42.8100  -23.9080  -41.0210 C.3   236  PRO236      0.0892
    181  N         42.0810  -20.0690  -33.7300 N.3   240  THR240     -0.1203
    182  CA        41.0300  -19.5320  -34.5760 C.3   240  THR240      0.1994
    183  C         39.7780  -20.3930  -34.4830 C.2   240  THR240      0.2618
    184  O         39.8360  -21.5610  -34.1000 O.2   240  THR240     -0.2717
    185  CB        41.4800  -19.4090  -36.0410 C.3   240  THR240      0.1784
    186  OG1       42.0690  -20.6410  -36.4700 O.3   240  THR240     -0.2211
    187  CG2       42.4970  -18.2890  -36.1910 C.3   240  THR240      0.0376
    188  N         38.6440  -19.7940  -34.8180 N.am  241  VAL241     -0.1965
    189  CA        37.3780  -20.5040  -34.8500 C.3   241  VAL241      0.1727
    190  C         37.4660  -21.6610  -35.8310 C.2   241  VAL241      0.2616
    191  O         37.0370  -22.7760  -35.5300 O.2   241  VAL241     -0.2715
    192  CB        36.2510  -19.5730  -35.3020 C.3   241  VAL241      0.0290
    193  CG1       34.9010  -20.2290  -35.0780 C.3   241  VAL241      0.0023
    194  CG2       36.3440  -18.2460  -34.5700 C.3   241  VAL241      0.0023
    195  N         38.0340  -21.3820  -37.0010 N.am  242  ALA242     -0.1977
    196  CA        38.1680  -22.3720  -38.0640 C.3   242  ALA242      0.1597
    197  C         38.8060  -23.6570  -37.5540 C.2   242  ALA242      0.2287
    198  O         38.2500  -24.7470  -37.7140 O.2   242  ALA242     -0.2864
    199  CB        38.9790  -21.8000  -39.2360 C.3   242  ALA242      0.0319
@<TRIPOS>BOND
     1   165   166    1
     2   166   167    1
     3   166   169    1
     4   167   168    2
     5   169   170    1
     6    49    47    1
     7    39    40    1
     8   170   171    1
     9    47    48    1
    10    47    46    2
    11   172   171   ar
    12    31    32    2
    13    31    30    1
    14   171   173   ar
    15    40    41    1
    16    40    43    1
    17    46    45    1
    18    45    44    1
    19    30    29    1
    20    30    33    1
    21    41    42    2
    22    41    50   am
    23    43    44    1
    24   113   112    2
    25    50    51    1
    26    52    51    1
    27    52    53    2
    28    33    34    1
    29    51    54    1
    30   109   107   ar
    31   112   111    1
    32   118   116   ar
    33    34    35   ar
    34    34    36   ar
    35    35    37   ar
    36   111   110    1
    37   111   114    1
    38   108   107   ar
    39   107   106    1
    40   116   117   ar
    41   116   115    1
    42    54    55    1
    43    36    38   ar
    44    37    38   ar
    45   115   114    1
    46    55    56   ar
    47    55    57   ar
    48    56    58   ar
    49   106   105    1
    50    57    59   ar
    51    58    59   ar
    52    77    76    2
    53   105   102    1
    54    63    62    2
    55    60    61    1
    56    80    79    1
    57    80    81    1
    58    74    75    1
    59    66    64    1
    60    76    79   am
    61    76    75    1
    62    70    69    2
    63    86    85    2
    64    62    61    1
    65    62    67   am
    66    69    68    1
    67   102   101    1
    68   102   103    1
    69    90    92   ar
    70    90    88   ar
    71    61    64    1
    72    83    81   am
    73    83    84    1
    74    75    78    1
    75    81    82    2
    76    87    84    1
    77    87    88    1
    78    92    93   ar
    79   101    96   am
    80    68    67    1
    81    68    71    1
    82    64    65    1
    83   103   104    2
    84    85    84    1
    85    85    94   am
    86    88    89   ar
    87    96    97    2
    88    96    95    1
    89    93    91   ar
    90    71    72    1
    91    71    73    1
    92    94    95    1
    93    95    98    1
    94    89    91   ar
    95    20    19    1
    96   180   179    1
    97   180   174    1
    98    98    99    1
    99    98   100    1
   100   179   178    1
   101    22    23    1
   102    22    21    1
   103    22    25    1
   104   174   175    1
   105   150   149    1
   106   150   144    1
   107   136   135    2
   108    23    24    2
   109    26    25    1
   110    26    28    1
   111   149   148    1
   112    25    27    1
   113    19    16    1
   114   175   178    1
   115   175   176    1
   116     9     7   am
   117    16    17    1
   118    16    15    1
   119   135   144   am
   120   135   134    1
   121    17    18    2
   122   144   145    1
   123   199   196    1
   124    14    11    1
   125   164   163    1
   126   148   145    1
   127     8     7    2
   128     7     6    1
   129   137   134    1
   130   137   138    1
   131   176   177    2
   132   134   133    1
   133   127   125   ar
   134   127   128   ar
   135   145   146    1
   136   163   162    1
   137   196   197    1
   138   196   195    1
   139   155   156    1
   140   155   152    1
   141    11    12    1
   142    11    10    1
   143    13    12    2
   144   125   124   ar
   145   198   197    2
   146   138   139   ar
   147   138   140   ar
   148   139   141   ar
   149     6     5    1
   150   128   130   ar
   151   128   126   ar
   152   130   132   ar
   153   146   147    2
   154   195   190   am
   155   140   142   ar
   156   152   151    1
   157   152   153    1
   158   162   161    1
   159   124   126   ar
   160   124   123    1
   161   186   185    1
   162   141   143   ar
   163     5     2    1
   164   187   185    1
   165   126   129   ar
   166   132   131   ar
   167   185   182    1
   168   122   121    2
   169   161   158    1
   170   190   191    2
   171   190   189    1
   172   142   143   ar
   173   158   157    1
   174   158   159    1
   175   123   120    1
   176   153   154    2
   177   192   193    1
   178   192   189    1
   179   192   194    1
   180   159   160    2
   181   121   120    1
   182     4     3    2
   183   129   131   ar
   184     2     3    1
   185     2     1    1
   186   189   188    1
   187   188   183   am
   188   182   183    1
   189   182   181    1
   190   183   184    2
   191   120   119    1
