@<TRIPOS>MOLECULE
tmp/5iw5A00.pdb
 160 151 0 0 0
SMALL
GASTEIGER

@<TRIPOS>ATOM
      1  N        137.2800   16.0740   30.6590 N.3    68  ARG68      -0.1245
      2  CA       136.7110   14.7570   30.6890 C.3    68  ARG68       0.1563
      3  C        135.2980   14.9190   30.1870 C.2    68  ARG68       0.2260
      4  O        134.3170   14.5260   30.8060 O.2    68  ARG68      -0.2867
      5  CB       136.7890   14.1880   32.0960 C.3    68  ARG68       0.0307
      6  CG       135.7250   14.6170   33.1040 C.3    68  ARG68       0.0489
      7  CD       136.0330   14.0770   34.4940 C.3    68  ARG68       0.2205
      8  NE       136.7370   12.8010   34.4390 N.pl3  68  ARG68      -0.0865
      9  CZ       136.2170   11.6990   33.9170 C.cat  68  ARG68       0.5346
     10  NH1      136.9050   10.5740   33.8880 N.pl3  68  ARG68       0.1354
     11  NH2      134.9930   11.7270   33.4360 N.pl3  68  ARG68       0.1354
     12  N        137.0570   12.5920   26.5260 N.3    71  ILE71      -0.1245
     13  CA       137.7590   11.3880   26.8330 C.3    71  ILE71       0.1561
     14  C        137.4550   10.4220   25.7200 C.2    71  ILE71       0.2260
     15  O        138.3250    9.7180   25.2530 O.2    71  ILE71      -0.2867
     16  CB       137.3280   10.9000   28.2300 C.3    71  ILE71       0.0252
     17  CG1      138.3720   10.0070   28.8280 C.3    71  ILE71       0.0019
     18  CG2      135.9310   10.3190   28.2240 C.3    71  ILE71       0.0019
     19  CD1      138.7440   10.4430   30.2130 C.3    71  ILE71       0.0001
     20  N        148.3690    9.8310   43.4070 N.3   129  CYS129     -0.1235
     21  CA       146.9820    9.4470   43.5540 C.3   129  CYS129      0.1677
     22  C        146.8970    7.9360   43.7340 C.2   129  CYS129      0.2270
     23  O        147.6380    7.1840   43.1140 O.2   129  CYS129     -0.2867
     24  CB       146.1940    9.8840   42.3170 C.3   129  CYS129      0.0956
     25  SG       144.6160   10.6630   42.7060 S.3   129  CYS129     -0.0801
     26  N        144.2570    4.5960   43.4860 N.3   131  ILE131     -0.1245
     27  CA       143.0030    4.0910   42.9750 C.3   131  ILE131      0.1561
     28  C        142.9680    2.6070   43.3750 C.2   131  ILE131      0.2260
     29  O        144.0040    1.9410   43.3910 O.2   131  ILE131     -0.2867
     30  CB       142.9070    4.3210   41.4570 C.3   131  ILE131      0.0252
     31  CG1      141.6870    3.6320   40.8810 C.3   131  ILE131      0.0019
     32  CG2      144.1490    3.8210   40.7540 C.3   131  ILE131      0.0019
     33  CD1      141.6960    3.6000   39.3950 C.3   131  ILE131      0.0001
     34  N        130.0400   13.3790   41.3940 N.3   147  ARG147     -0.1231
     35  CA       130.3950   14.3460   40.3610 C.3   147  ARG147      0.1694
     36  C        130.3390   13.7210   38.9610 C.2   147  ARG147      0.2592
     37  O        129.9700   14.3850   37.9880 O.2   147  ARG147     -0.2718
     38  CB       131.7550   14.9910   40.6600 C.3   147  ARG147      0.0321
     39  CG       132.9120   14.0140   40.8170 C.3   147  ARG147      0.0489
     40  CD       134.1140   14.6770   41.4850 C.3   147  ARG147      0.2205
     41  NE       134.2910   16.0610   41.0520 N.pl3 147  ARG147     -0.0865
     42  CZ       135.4420   16.7240   41.1100 C.cat 147  ARG147      0.5346
     43  NH1      135.5050   17.9850   40.6960 N.pl3 147  ARG147      0.1354
     44  NH2      136.5310   16.1270   41.5750 N.pl3 147  ARG147      0.1354
     45  N        130.6890   12.4400   38.8710 N.am  148  HIS148     -0.1976
     46  CA       130.4370   11.6650   37.6620 C.3   148  HIS148      0.1656
     47  C        128.9340   11.4440   37.6740 C.2   148  HIS148      0.2291
     48  O        128.3160   11.5300   38.7290 O.2   148  HIS148     -0.2864
     49  CB       131.1030   10.2790   37.6950 C.3   148  HIS148      0.0771
     50  CG       132.5140   10.2540   38.2090 C.ar  148  HIS148      0.0820
     51  ND1      133.1190   11.3230   38.8360 N.ar  148  HIS148     -0.2267
     52  CD2      133.4350    9.2610   38.1960 C.ar  148  HIS148      0.1154
     53  CE1      134.3500   10.9920   39.1830 C.ar  148  HIS148      0.1986
     54  NE2      134.5680    9.7470   38.8020 N.ar  148  HIS148     -0.2212
     55  N        127.4070    9.2060   34.7310 N.3   150  ASN150     -0.1240
     56  CA       127.1100    8.4210   33.5380 C.3   150  ASN150      0.1653
     57  C        126.4020    7.1070   33.8620 C.2   150  ASN150      0.2266
     58  O        126.1620    6.2860   32.9810 O.2   150  ASN150     -0.2867
     59  CB       128.3790    8.1730   32.7130 C.3   150  ASN150      0.1155
     60  CG       129.6500    8.4120   33.5070 C.2   150  ASN150      0.2627
     61  OD1      129.6140    8.9460   34.6170 O.2   150  ASN150     -0.2716
     62  ND2      130.7860    8.0210   32.9350 N.am  150  ASN150     -0.0877
     63  N        127.6970    4.9100   35.6000 N.3   152  VAL152     -0.1245
     64  CA       128.7650    3.9180   35.7010 C.3   152  VAL152      0.1561
     65  C        129.1420    3.6200   37.1550 C.2   152  VAL152      0.2260
     66  O        129.0470    4.4830   38.0230 O.2   152  VAL152     -0.2867
     67  CB       130.0260    4.3600   34.9360 C.3   152  VAL152      0.0252
     68  CG1      129.7680    4.3370   33.4470 C.3   152  VAL152      0.0019
     69  CG2      130.4580    5.7490   35.3800 C.3   152  VAL152      0.0019
     70  N        132.3390    2.4310   39.2820 N.3   154  THR154     -0.1218
     71  CA       133.7750    2.2600   39.1740 C.3   154  THR154      0.1862
     72  C        134.4010    2.0250   40.5390 C.2   154  THR154      0.2287
     73  O        133.7060    1.7610   41.5130 O.2   154  THR154     -0.2866
     74  CB       134.4320    3.4730   38.4810 C.3   154  THR154      0.1770
     75  OG1      135.8540    3.3000   38.4400 O.3   154  THR154     -0.2211
     76  CG2      134.0980    4.7700   39.2100 C.3   154  THR154      0.0375
     77  N        138.9410    6.1600   44.4470 N.3   157  ALA157     -0.1245
     78  CA       140.1890    6.8710   44.2190 C.3   157  ALA157      0.1562
     79  C        140.3130    8.1010   45.1090 C.2   157  ALA157      0.2260
     80  O        139.3160    8.6970   45.5110 O.2   157  ALA157     -0.2867
     81  CB       140.3260    7.2550   42.7460 C.3   157  ALA157      0.0290
     82  N        143.5040   11.3250   46.6190 N.3   159  PHE159     -0.1241
     83  CA       144.8500   11.8740   46.5740 C.3   159  PHE159      0.1605
     84  C        145.7260   11.4640   47.7400 C.2   159  PHE159      0.2264
     85  O        145.2970   11.4830   48.8970 O.2   159  PHE159     -0.2867
     86  CB       144.7910   13.3890   46.5340 C.3   159  PHE159      0.0534
     87  CG       144.3680   13.9460   45.2120 C.ar  159  PHE159     -0.0203
     88  CD1      145.3150   14.3280   44.2800 C.ar  159  PHE159     -0.0042
     89  CD2      143.0240   14.1070   44.9090 C.ar  159  PHE159     -0.0042
     90  CE1      144.9320   14.8610   43.0650 C.ar  159  PHE159     -0.0003
     91  CE2      142.6300   14.6410   43.6900 C.ar  159  PHE159     -0.0003
     92  CZ       143.5850   15.0170   42.7670 C.ar  159  PHE159     -0.0000
     93  N        147.9450   11.1740   34.6840 N.3   193  TRP193     -0.1241
     94  CA       146.6700   11.7820   34.3190 C.3   193  TRP193      0.1605
     95  C        146.8480   13.2730   34.0460 C.2   193  TRP193      0.2264
     96  O        147.3920   13.9910   34.8830 O.2   193  TRP193     -0.2867
     97  CB       145.6550   11.5550   35.4300 C.3   193  TRP193      0.0550
     98  CG       144.2740   11.9870   35.1130 C.ar  193  TRP193      0.0003
     99  CD1      143.6500   13.1270   35.5320 C.ar  193  TRP193      0.0946
    100  CD2      143.3210   11.2750   34.3290 C.ar  193  TRP193      0.0152
    101  NE1      142.3660   13.1690   35.0530 N.ar  193  TRP193     -0.2442
    102  CE2      142.1400   12.0460   34.3040 C.ar  193  TRP193      0.0810
    103  CE3      143.3510   10.0630   33.6370 C.ar  193  TRP193      0.0012
    104  CZ2      141.0020   11.6440   33.6120 C.ar  193  TRP193      0.0191
    105  CZ3      142.2160    9.6640   32.9540 C.ar  193  TRP193      0.0001
    106  CH2      141.0600   10.4530   32.9470 C.ar  193  TRP193      0.0015
    107  N        143.4960   17.2110   36.7310 N.3   196  PRO196     -0.2116
    108  CA       144.7440   17.8620   37.1470 C.3   196  PRO196      0.1372
    109  C        145.9100   16.8810   37.1390 C.2   196  PRO196      0.2244
    110  O        145.7100   15.6790   37.2920 O.2   196  PRO196     -0.2868
    111  CB       144.4360   18.3410   38.5640 C.3   196  PRO196      0.0268
    112  CG       143.3930   17.3890   39.0440 C.3   196  PRO196      0.0207
    113  CD       142.5510   17.0620   37.8470 C.3   196  PRO196      0.0892
    114  N        148.4310   14.3300   37.6280 N.3   198  SER198     -0.1217
    115  CA       148.5290   13.3440   38.6850 C.3   198  SER198      0.1889
    116  C        149.0180   12.0090   38.1700 C.2   198  SER198      0.2288
    117  O        148.8400   11.6780   36.9910 O.2   198  SER198     -0.2866
    118  CB       147.1810   13.1780   39.3890 C.3   198  SER198      0.2089
    119  OG       146.1180   13.1910   38.4570 O.3   198  SER198     -0.2183
    120  N        148.4050    8.2440   39.1030 N.3   200  MET200     -0.1245
    121  CA       147.6420    7.3470   39.9400 C.3   200  MET200      0.1570
    122  C        148.3040    5.9890   39.9520 C.2   200  MET200      0.2261
    123  O        148.8260    5.5320   38.9410 O.2   200  MET200     -0.2867
    124  CB       146.1870    7.2650   39.4910 C.3   200  MET200      0.0387
    125  CG       145.9710    6.4720   38.2400 C.3   200  MET200      0.0595
    126  SD       144.3390    6.7570   37.5640 S.3   200  MET200     -0.1393
    127  CE       144.4820    8.4950   37.2280 C.3   200  MET200      0.0692
    128  N        133.4390    1.2770   33.9590 N.3   234  PRO234     -0.2103
    129  CA       134.2200    2.2000   33.1320 C.3   234  PRO234      0.1489
    130  C        134.6640    1.4820   31.8520 C.2   234  PRO234      0.2417
    131  O        134.8890    0.2690   31.8830 O.2   234  PRO234     -0.2734
    132  CB       135.4430    2.5040   34.0040 C.3   234  PRO234      0.0282
    133  CG       135.0920    2.0620   35.3770 C.3   234  PRO234      0.0208
    134  CD       134.1130    0.9610   35.2300 C.3   234  PRO234      0.0893
    135  N        134.7830    2.2180   30.7370 N.am  235  PRO235     -0.2729
    136  CA       135.1450    1.6530   29.4360 C.3   235  PRO235      0.1401
    137  C        136.5050    0.9610   29.4320 C.2   235  PRO235      0.2269
    138  O        137.4000    1.3560   30.1830 O.2   235  PRO235     -0.2865
    139  CB       135.2280    2.8890   28.5440 C.3   235  PRO235      0.0296
    140  CG       134.3550    3.8580   29.1820 C.3   235  PRO235      0.0237
    141  CD       134.5500    3.6630   30.6420 C.3   235  PRO235      0.0939
    142  N        140.6420    2.1230   30.1470 N.3   238  THR238     -0.1203
    143  CA       140.8290    2.8520   31.4000 C.3   238  THR238      0.1994
    144  C        141.4230    1.9680   32.4920 C.2   238  THR238      0.2618
    145  O        141.1970    0.7610   32.5100 O.2   238  THR238     -0.2717
    146  CB       139.4870    3.3890   31.9210 C.3   238  THR238      0.1784
    147  OG1      138.6530    2.3050   32.3800 O.3   238  THR238     -0.2211
    148  CG2      138.7700    4.1870   30.8490 C.3   238  THR238      0.0376
    149  N        142.1670    2.5720   33.4120 N.am  239  VAL239     -0.1965
    150  CA       142.8180    1.8190   34.4850 C.3   239  VAL239      0.1727
    151  C        141.8110    1.1410   35.4150 C.2   239  VAL239      0.2616
    152  O        141.9950   -0.0210   35.8040 O.2   239  VAL239     -0.2715
    153  CB       143.7940    2.7140   35.2940 C.3   239  VAL239      0.0290
    154  CG1      144.1280    2.0950   36.6470 C.3   239  VAL239      0.0023
    155  CG2      145.0590    2.9500   34.4960 C.3   239  VAL239      0.0023
    156  N        140.7460    1.8650   35.7540 N.am  240  ALA240     -0.1977
    157  CA       139.7320    1.3690   36.6790 C.3   240  ALA240      0.1597
    158  C        139.1540    0.0650   36.1790 C.2   240  ALA240      0.2287
    159  O        138.9260   -0.8750   36.9470 O.2   240  ALA240     -0.2864
    160  CB       138.6270    2.3840   36.8430 C.3   240  ALA240      0.0319
@<TRIPOS>BOND
     1    15    14    2
     2    14    13    1
     3    12    13    1
     4    13    16    1
     5    18    16    1
     6    16    17    1
     7   139   140    1
     8   139   136    1
     9    17    19    1
    10   140   141    1
    11   137   136    1
    12   137   138    2
    13   136   135    1
    14   142   143    1
    15     3     2    1
    16     3     4    2
    17   141   135    1
    18     1     2    1
    19     2     5    1
    20   135   130   am
    21   148   146    1
    22   143   146    1
    23   143   144    1
    24   130   131    2
    25   130   129    1
    26   146   147    1
    27     5     6    1
    28   144   145    2
    29   144   149   am
    30    59    60    1
    31    59    56    1
    32    62    60   am
    33   106   105   ar
    34   106   104   ar
    35   105   103   ar
    36    58    57    2
    37     6     7    1
    38   129   128    1
    39   129   132    1
    40   149   150    1
    41    11     9    1
    42    68    67    1
    43    60    61    2
    44    56    57    1
    45    56    55    1
    46   104   102   ar
    47   103   100   ar
    48    10     9    1
    49     9     8    2
    50   128   134    1
    51   132   133    1
    52    95    94    1
    53    95    96    2
    54   102   100   ar
    55   102   101   ar
    56    94    93    1
    57    94    97    1
    58   100    98   ar
    59     8     7    1
    60   150   153    1
    61   150   151    1
    62   155   153    1
    63    67    69    1
    64    67    64    1
    65   101    99   ar
    66    98    97    1
    67    98    99   ar
    68   134   133    1
    69   153   154    1
    70   151   156   am
    71   151   152    2
    72    63    64    1
    73    64    65    1
    74   156   157    1
    75   158   157    1
    76   158   159    2
    77   157   160    1
    78   107   108    1
    79   107   113    1
    80   117   116    2
    81   109   108    1
    82   109   110    2
    83   108   111    1
    84    65    66    2
    85   127   126    1
    86   126   125    1
    87   114   115    1
    88    46    47    1
    89    46    49    1
    90    46    45    1
    91    47    48    2
    92    49    50    1
    93   113   112    1
    94    37    36    2
    95   116   115    1
    96    52    50   ar
    97    52    54   ar
    98    50    51   ar
    99   125   124    1
   100    75    74    1
   101   119   118    1
   102    74    71    1
   103    74    76    1
   104   111   112    1
   105   115   118    1
   106    54    53   ar
   107    51    53   ar
   108    45    36   am
   109   123   122    2
   110    36    35    1
   111   120   121    1
   112    71    70    1
   113    71    72    1
   114    33    31    1
   115   124   121    1
   116   121   122    1
   117    35    38    1
   118    35    34    1
   119    72    73    2
   120    38    39    1
   121    43    42    1
   122    32    30    1
   123    39    40    1
   124    31    30    1
   125    41    42    2
   126    41    40    1
   127    42    44    1
   128    30    27    1
   129    24    25    1
   130    24    21    1
   131    81    78    1
   132    92    90   ar
   133    92    91   ar
   134    27    28    1
   135    27    26    1
   136    90    88   ar
   137    23    22    2
   138    28    29    2
   139    20    21    1
   140    21    22    1
   141    91    89   ar
   142    78    77    1
   143    78    79    1
   144    88    87   ar
   145    89    87   ar
   146    79    80    2
   147    87    86    1
   148    86    83    1
   149    83    82    1
   150    83    84    1
   151    84    85    2
