@<TRIPOS>MOLECULE
tmp/5iw8B00.pdb
 197 184 0 0 0
SMALL
GASTEIGER

@<TRIPOS>ATOM
      1  N        -18.6500   -5.8630  -20.9780 N.3    49  LYS49      -0.1245
      2  CA       -19.1990   -7.0400  -21.6330 C.3    49  LYS49       0.1561
      3  C        -19.2400   -8.2110  -20.7220 C.2    49  LYS49       0.2260
      4  O        -20.0080   -9.1210  -20.9520 O.2    49  LYS49      -0.2867
      5  CB       -18.4820   -7.4070  -22.9430 C.3    49  LYS49       0.0271
      6  CG       -18.7570   -6.3750  -24.0350 C.3    49  LYS49       0.0035
      7  CD       -20.2550   -6.2130  -24.3550 C.3    49  LYS49       0.0206
      8  CE       -20.4490   -5.4120  -25.6350 C.3    49  LYS49       0.1093
      9  NZ       -19.5930   -4.2300  -25.6940 N.3    49  LYS49      -0.1314
     10  N        -16.2550  -10.1400  -32.4470 N.3    77  SER77      -0.1202
     11  CA       -14.8460  -10.0530  -32.0950 C.3    77  SER77       0.2020
     12  C        -14.8480   -9.2720  -30.7500 C.2    77  SER77       0.2619
     13  O        -15.9110   -9.1750  -30.0510 O.2    77  SER77      -0.2717
     14  CB       -14.0600   -9.3660  -33.2310 C.3    77  SER77       0.2103
     15  OG       -14.6900   -8.1430  -33.6470 O.3    77  SER77      -0.2182
     16  N        -13.7030   -8.7340  -30.3820 N.am   78  GLY78      -0.1942
     17  CA       -13.6630   -7.7330  -29.3420 C.3    78  GLY78       0.2014
     18  C        -14.0300   -8.1860  -27.9210 C.2    78  GLY78       0.2639
     19  O        -13.7870   -9.2960  -27.5070 O.2    78  GLY78      -0.2714
     20  N        -14.6130   -7.2610  -27.1770 N.am   79  ASN79      -0.1958
     21  CA       -14.8260   -7.4220  -25.7420 C.3    79  ASN79       0.1819
     22  C        -15.7720   -8.5670  -25.3840 C.2    79  ASN79       0.2621
     23  O        -15.5450   -9.3200  -24.4340 O.2    79  ASN79      -0.2715
     24  CB       -15.3710   -6.1150  -25.2030 C.3    79  ASN79       0.1195
     25  CG       -14.2960   -5.0810  -25.0120 C.2    79  ASN79       0.2630
     26  OD1      -13.1140   -5.4100  -24.9040 O.2    79  ASN79      -0.2716
     27  ND2      -14.6960   -3.8470  -24.8870 N.am   79  ASN79      -0.0877
     28  N        -16.8350   -8.6940  -26.1570 N.am   80  THR80      -0.1951
     29  CA       -17.7990   -9.7530  -25.9090 C.3    80  THR80       0.1897
     30  C        -17.1670  -11.1320  -26.1010 C.2    80  THR80       0.2313
     31  O        -17.4740  -12.0790  -25.3870 O.2    80  THR80      -0.2863
     32  CB       -19.0230   -9.5940  -26.8370 C.3    80  THR80       0.1794
     33  OG1      -19.7370   -8.4030  -26.4840 O.3    80  THR80      -0.2208
     34  CG2      -19.9420  -10.7720  -26.6280 C.3    80  THR80       0.0378
     35  N         -8.9220   -6.3510  -32.3820 N.3   107  ARG107     -0.1245
     36  CA       -10.1800   -6.9410  -31.9410 C.3   107  ARG107      0.1563
     37  C        -10.1200   -8.4590  -31.8260 C.2   107  ARG107      0.2260
     38  O        -11.1240   -9.0990  -31.4210 O.2   107  ARG107     -0.2867
     39  CB       -11.3200   -6.5300  -32.8730 C.3   107  ARG107      0.0307
     40  CG       -11.4820   -5.0210  -32.9790 C.3   107  ARG107      0.0489
     41  CD       -12.7820   -4.6580  -33.6590 C.3   107  ARG107      0.2205
     42  NE       -13.9160   -5.2340  -32.9500 N.pl3 107  ARG107     -0.0865
     43  CZ       -14.5390   -4.6900  -31.9060 C.cat 107  ARG107      0.5346
     44  NH1      -14.1540   -3.5030  -31.3990 N.pl3 107  ARG107      0.1354
     45  NH2      -15.5800   -5.3410  -31.3700 N.pl3 107  ARG107      0.1354
     46  N        -25.8510  -11.7500  -29.0670 N.3   149  GLN149     -0.1231
     47  CA       -25.9540  -10.5610  -28.2160 C.3   149  GLN149      0.1698
     48  C        -26.8060   -9.4120  -28.7820 C.2   149  GLN149      0.2592
     49  O        -27.3940   -8.6450  -28.0140 O.2   149  GLN149     -0.2718
     50  CB       -24.5480  -10.0190  -27.8760 C.3   149  GLN149      0.0381
     51  CG       -23.7530   -9.5440  -29.0700 C.3   149  GLN149      0.0905
     52  CD       -22.3730   -8.9850  -28.6990 C.2   149  GLN149      0.2608
     53  OE1      -22.1340   -8.5350  -27.5990 O.2   149  GLN149     -0.2717
     54  NE2      -21.4840   -8.9830  -29.6530 N.am  149  GLN149     -0.0878
     55  N        -26.8910   -9.3070  -30.1060 N.am  150  TYR150     -0.1976
     56  CA       -27.7260   -8.2960  -30.7740 C.3   150  TYR150      0.1639
     57  C        -29.2670   -8.4660  -30.6360 C.2   150  TYR150      0.2290
     58  O        -30.0510   -7.5230  -30.8970 O.2   150  TYR150     -0.2864
     59  CB       -27.2960   -8.2150  -32.2450 C.3   150  TYR150      0.0560
     60  CG       -25.9300   -7.5570  -32.3270 C.ar  150  TYR150     -0.0198
     61  CD1      -25.7930   -6.2110  -32.0590 C.ar  150  TYR150     -0.0009
     62  CD2      -24.7780   -8.2840  -32.5770 C.ar  150  TYR150     -0.0009
     63  CE1      -24.5570   -5.5980  -32.0890 C.ar  150  TYR150      0.0417
     64  CE2      -23.5250   -7.6760  -32.6040 C.ar  150  TYR150      0.0417
     65  CZ       -23.4160   -6.3370  -32.3410 C.ar  150  TYR150      0.1957
     66  OH       -22.1960   -5.6630  -32.3410 O.3   150  TYR150     -0.2866
     67  N        -22.2860    4.5050  -24.9630 N.3   180  GLY180     -0.1210
     68  CA       -22.1290    4.1280  -26.3630 C.3   180  GLY180      0.1956
     69  C        -23.2740    3.2440  -26.8380 C.2   180  GLY180      0.2612
     70  O        -23.8990    2.5540  -26.0420 O.2   180  GLY180     -0.2717
     71  N        -23.5290    3.2630  -28.1330 N.am  181  LEU181     -0.1965
     72  CA       -24.6490    2.5460  -28.7470 C.3   181  LEU181      0.1728
     73  C        -24.0680    1.5170  -29.6690 C.2   181  LEU181      0.2617
     74  O        -23.6550    1.8500  -30.7690 O.2   181  LEU181     -0.2715
     75  CB       -25.5410    3.5320  -29.5010 C.3   181  LEU181      0.0311
     76  CG       -26.9050    3.0460  -29.9720 C.3   181  LEU181      0.0022
     77  CD1      -27.8220    2.7300  -28.8120 C.3   181  LEU181      0.0001
     78  CD2      -27.5460    4.0850  -30.8700 C.3   181  LEU181      0.0001
     79  N        -23.9770    0.2810  -29.2030 N.am  182  GLY182     -0.1940
     80  CA       -23.3500   -0.7950  -29.9700 C.3   182  GLY182      0.2014
     81  C        -24.3650   -1.8970  -30.1880 C.2   182  GLY182      0.2639
     82  O        -25.2470   -1.7500  -31.0170 O.2   182  GLY182     -0.2714
     83  N        -24.3050   -2.9540  -29.3860 N.am  183  THR183     -0.1950
     84  CA       -25.4350   -3.8820  -29.2620 C.3   183  THR183      0.1897
     85  C        -26.7150   -3.1830  -28.7800 C.2   183  THR183      0.2313
     86  O        -27.8090   -3.7020  -28.9790 O.2   183  THR183     -0.2863
     87  CB       -25.1680   -5.0420  -28.2580 C.3   183  THR183      0.1794
     88  OG1      -25.2480   -4.5630  -26.9110 O.3   183  THR183     -0.2208
     89  CG2      -23.8070   -5.7090  -28.5100 C.3   183  THR183      0.0378
     90  N        -24.0450    8.0250  -27.5290 N.3   206  ALA206     -0.1231
     91  CA       -22.9500    8.4050  -28.4270 C.3   206  ALA206      0.1694
     92  C        -22.6630    7.2630  -29.4280 C.2   206  ALA206      0.2592
     93  O        -22.7680    6.0930  -29.0840 O.2   206  ALA206     -0.2718
     94  CB       -21.6870    8.6940  -27.6280 C.3   206  ALA206      0.0304
     95  N        -22.2480    7.6180  -30.6360 N.am  207  GLU207     -0.1966
     96  CA       -21.9290    6.6390  -31.6640 C.3   207  GLU207      0.1718
     97  C        -20.9720    7.1770  -32.6790 C.2   207  GLU207      0.2458
     98  O        -20.7080    8.3730  -32.7200 O.2   207  GLU207     -0.2730
     99  CB       -23.2010    6.1200  -32.3530 C.3   207  GLU207      0.0428
    100  CG       -24.1400    7.1770  -32.8820 C.3   207  GLU207      0.1163
    101  CD       -25.3740    6.5390  -33.5160 C.2   207  GLU207      0.3649
    102  OE1      -26.3570    7.2780  -33.7420 O.co2 207  GLU207     -0.2457
    103  OE2      -25.3730    5.2780  -33.7180 O.co2 207  GLU207     -0.2457
    104  N        -20.3910    6.2830  -33.4820 N.am  208  PRO208     -0.2727
    105  CA       -19.4540    6.7960  -34.4640 C.3   208  PRO208      0.1402
    106  C        -20.1900    7.5860  -35.5330 C.2   208  PRO208      0.2269
    107  O        -21.3970    7.4420  -35.6680 O.2   208  PRO208     -0.2865
    108  CB       -18.8350    5.5280  -35.0710 C.3   208  PRO208      0.0296
    109  CG       -19.0770    4.4550  -34.0770 C.3   208  PRO208      0.0237
    110  CD       -20.3940    4.8120  -33.4300 C.3   208  PRO208      0.0939
    111  N        -17.1520    7.1650  -41.1050 N.3   212  GLU212     -0.1245
    112  CA       -15.8520    6.8940  -40.4920 C.3   212  GLU212      0.1567
    113  C        -15.8490    5.4300  -40.0660 C.2   212  GLU212      0.2260
    114  O        -16.7870    4.9530  -39.3860 O.2   212  GLU212     -0.2867
    115  CB       -15.6000    7.8110  -39.3040 C.3   212  GLU212      0.0388
    116  CG       -15.5790    9.3030  -39.6290 C.3   212  GLU212      0.1160
    117  CD       -14.9850   10.1430  -38.5080 C.2   212  GLU212      0.3649
    118  OE1      -14.9230    9.6590  -37.3610 O.co2 212  GLU212     -0.2457
    119  OE2      -14.5770   11.2930  -38.7640 O.co2 212  GLU212     -0.2457
    120  N        -13.3680    3.7470  -38.1170 N.3   214  VAL214     -0.1245
    121  CA       -12.8600    3.5170  -36.7300 C.3   214  VAL214      0.1561
    122  C        -12.8360    2.0110  -36.3830 C.2   214  VAL214      0.2260
    123  O        -13.2850    1.5760  -35.3040 O.2   214  VAL214     -0.2867
    124  CB       -13.6200    4.3590  -35.6550 C.3   214  VAL214      0.0252
    125  CG1      -13.4230    5.8520  -35.8960 C.3   214  VAL214      0.0019
    126  CG2      -15.1150    4.0300  -35.6070 C.3   214  VAL214      0.0019
    127  N        -12.5610   -0.1520  -33.1610 N.3   217  LEU217     -0.1231
    128  CA       -13.5810    0.0600  -32.1400 C.3   217  LEU217      0.1693
    129  C        -14.9880   -0.4240  -32.5310 C.2   217  LEU217      0.2592
    130  O        -15.8900   -0.4170  -31.6770 O.2   217  LEU217     -0.2718
    131  CB       -13.6510    1.5460  -31.7920 C.3   217  LEU217      0.0284
    132  CG       -12.2760    2.1640  -31.5580 C.3   217  LEU217      0.0019
    133  CD1      -12.3920    3.6740  -31.5700 C.3   217  LEU217      0.0001
    134  CD2      -11.6480    1.6470  -30.2810 C.3   217  LEU217      0.0001
    135  N        -15.1750   -0.8420  -33.7880 N.am  218  ARG218     -0.1966
    136  CA       -16.4970   -1.2740  -34.2810 C.3   218  ARG218      0.1729
    137  C        -16.6550   -2.7770  -34.5330 C.2   218  ARG218      0.2616
    138  O        -15.8940   -3.3890  -35.2900 O.2   218  ARG218     -0.2715
    139  CB       -16.8770   -0.5420  -35.5790 C.3   218  ARG218      0.0348
    140  CG       -15.8400   -0.6180  -36.6880 C.3   218  ARG218      0.0492
    141  CD       -16.4260   -0.3550  -38.0800 C.3   218  ARG218      0.2205
    142  NE       -17.8730   -0.1580  -38.0780 N.pl3 218  ARG218     -0.0865
    143  CZ       -18.5080    1.0150  -37.9490 C.cat 218  ARG218      0.5346
    144  NH1      -17.8500    2.1540  -37.8190 N.pl3 218  ARG218      0.1354
    145  NH2      -19.8410    1.0430  -37.9700 N.pl3 218  ARG218      0.1354
    146  N        -17.7110   -3.3350  -33.9490 N.am  219  ASN219     -0.1972
    147  CA       -18.0770   -4.7370  -34.1250 C.3   219  ASN219      0.1688
    148  C        -18.9270   -4.9980  -35.3940 C.2   219  ASN219      0.2292
    149  O        -18.9120   -6.1160  -35.9310 O.2   219  ASN219     -0.2864
    150  CB       -18.8380   -5.2130  -32.8630 C.3   219  ASN219      0.1181
    151  CG       -18.5880   -6.6940  -32.5130 C.2   219  ASN219      0.2629
    152  OD1      -17.4800   -7.2280  -32.6940 O.2   219  ASN219     -0.2716
    153  ND2      -19.6280   -7.3550  -31.9670 N.am  219  ASN219     -0.0877
    154  N        -20.1690   11.1150  -33.0030 N.3   240  VAL240     -0.1245
    155  CA       -18.9350   11.7190  -32.5730 C.3   240  VAL240      0.1561
    156  C        -17.8060   11.3910  -33.5250 C.2   240  VAL240      0.2260
    157  O        -17.5500   10.2340  -33.8520 O.2   240  VAL240     -0.2867
    158  CB       -18.5740   11.2990  -31.1470 C.3   240  VAL240      0.0252
    159  CG1      -17.3050   11.9940  -30.7360 C.3   240  VAL240      0.0019
    160  CG2      -19.7250   11.6730  -30.1960 C.3   240  VAL240      0.0019
    161  N        -13.9800   10.9360  -34.9510 N.3   242  ALA242     -0.1245
    162  CA       -12.7840   10.2610  -34.4620 C.3   242  ALA242      0.1562
    163  C        -11.8150   11.2250  -33.7960 C.2   242  ALA242      0.2260
    164  O        -11.2310   10.9000  -32.7900 O.2   242  ALA242     -0.2867
    165  CB       -12.1030    9.5540  -35.6110 C.3   242  ALA242      0.0290
    166  N        -13.4060   12.1000  -30.3940 N.3   245  ALA245     -0.1245
    167  CA       -13.3360   10.9420  -29.4980 C.3   245  ALA245      0.1562
    168  C        -11.9310   10.7560  -28.9330 C.2   245  ALA245      0.2260
    169  O        -11.7700   10.5300  -27.7350 O.2   245  ALA245     -0.2867
    170  CB       -13.7570    9.6610  -30.2180 C.3   245  ALA245      0.0290
    171  N        -11.4440    4.1270  -26.4930 N.3   262  ILE262     -0.1231
    172  CA       -11.8290    5.2560  -27.3190 C.3   262  ILE262      0.1692
    173  C        -13.3160    5.5520  -27.2860 C.2   262  ILE262      0.2592
    174  O        -13.7140    6.7300  -27.4460 O.2   262  ILE262     -0.2718
    175  CB       -11.3690    5.1090  -28.7750 C.3   262  ILE262      0.0266
    176  CG1       -9.8710    4.8270  -28.8350 C.3   262  ILE262      0.0019
    177  CG2      -11.5870    6.4170  -29.5470 C.3   262  ILE262      0.0020
    178  CD1       -9.0100    5.9600  -28.3340 C.3   262  ILE262      0.0001
    179  N        -14.1380    4.5330  -27.0790 N.am  263  SER263     -0.1952
    180  CA       -15.5830    4.7820  -27.0460 C.3   263  SER263      0.1924
    181  C        -15.9580    5.6580  -25.8730 C.2   263  SER263      0.2314
    182  O        -16.8620    6.4650  -25.9710 O.2   263  SER263     -0.2863
    183  CB       -16.3950    3.4800  -27.0710 C.3   263  SER263      0.2116
    184  OG       -16.3410    2.7640  -25.8630 O.3   263  SER263     -0.2180
    185  N        -15.7790    9.1550  -26.9460 N.3   266  ALA266     -0.1245
    186  CA       -16.9610    9.5640  -27.6550 C.3   266  ALA266      0.1562
    187  C        -18.1150    9.8790  -26.6900 C.2   266  ALA266      0.2260
    188  O        -18.8190   10.9080  -26.8330 O.2   266  ALA266     -0.2867
    189  CB       -17.3440    8.4920  -28.6710 C.3   266  ALA266      0.0290
    190  N         -6.9230    5.1290  -37.0790 N.3   315  LEU315     -0.1245
    191  CA        -8.2710    4.6130  -36.9120 C.3   315  LEU315      0.1561
    192  C         -8.9530    4.4340  -38.2600 C.2   315  LEU315      0.2260
    193  O         -9.6790    3.4560  -38.4610 O.2   315  LEU315     -0.2867
    194  CB        -9.1040    5.5420  -36.0300 C.3   315  LEU315      0.0270
    195  CG        -8.6600    5.7370  -34.5720 C.3   315  LEU315      0.0019
    196  CD1       -9.7620    6.4580  -33.8200 C.3   315  LEU315      0.0001
    197  CD2       -8.2980    4.4360  -33.8680 C.3   315  LEU315      0.0001
@<TRIPOS>BOND
     1   111   112    1
     2   112   113    1
     3   112   115    1
     4   113   114    2
     5   116   115    1
     6   116   117    1
     7   119   117   ar
     8   117   118   ar
     9   193   192    2
    10   192   191    1
    11   120   121    1
    12   141   142    1
    13   141   140    1
    14   142   143    2
    15   145   143    1
    16   143   144    1
    17   190   191    1
    18   191   194    1
    19   121   122    1
    20   121   124    1
    21   140   139    1
    22   122   123    2
    23   194   195    1
    24   149   148    2
    25   125   124    1
    26   107   106    2
    27   124   126    1
    28   165   162    1
    29   139   136    1
    30   106   105    1
    31   148   147    1
    32   138   137    2
    33   108   105    1
    34   108   109    1
    35   161   162    1
    36   195   197    1
    37   195   196    1
    38   137   136    1
    39   137   146   am
    40   105   104    1
    41   162   163    1
    42   136   135    1
    43   147   146    1
    44   147   150    1
    45   109   110    1
    46   157   156    2
    47   163   164    2
    48   135   129   am
    49   102   101   ar
    50   103   101   ar
    51    41    40    1
    52    41    42    1
    53    15    14    1
    54   156   155    1
    55   101   100    1
    56   104   110    1
    57   104    97   am
    58    14    11    1
    59   127   128    1
    60   154   155    1
    61    40    39    1
    62    42    43    2
    63   100    99    1
    64    39    36    1
    65   150   151    1
    66    98    97    2
    67   152   151    2
    68    97    96    1
    69    64    62   ar
    70    64    65   ar
    71    62    60   ar
    72   155   158    1
    73   129   128    1
    74   129   130    2
    75   151   153   am
    76    10    11    1
    77    35    36    1
    78    99    96    1
    79    66    65    1
    80    65    63   ar
    81    60    59    1
    82    60    61   ar
    83    59    56    1
    84   128   131    1
    85    11    12    1
    86    63    61   ar
    87    36    37    1
    88    43    44    1
    89    43    45    1
    90    37    38    2
    91   131   132    1
    92    96    95    1
    93   133   132    1
    94   132   134    1
    95   158   159    1
    96   158   160    1
    97    82    81    2
    98    58    57    2
    99    78    76    1
   100    56    57    1
   101    56    55    1
   102    74    73    2
   103    12    16   am
   104    12    13    2
   105    95    92   am
   106   166   167    1
   107    16    17    1
   108   170   167    1
   109    81    80    1
   110    81    83   am
   111    55    48   am
   112    76    75    1
   113    76    77    1
   114    80    79    1
   115    73    79   am
   116    73    72    1
   117    54    52   am
   118   177   175    1
   119    75    72    1
   120   167   168    1
   121    92    93    2
   122    92    91    1
   123    83    84    1
   124    17    18    1
   125    84    85    1
   126    84    87    1
   127    51    52    1
   128    51    50    1
   129    46    47    1
   130    86    85    2
   131   168   169    2
   132   176   175    1
   133   176   178    1
   134    48    47    1
   135    48    49    2
   136   175   172    1
   137    72    71    1
   138    52    53    2
   139   189   186    1
   140    89    87    1
   141    91    94    1
   142    91    90    1
   143    87    88    1
   144    47    50    1
   145    71    69   am
   146    18    19    2
   147    18    20   am
   148   186   185    1
   149   186   187    1
   150   174   173    2
   151   172   173    1
   152   172   171    1
   153   173   179   am
   154    20    21    1
   155   179   180    1
   156   183   180    1
   157   183   184    1
   158   180   181    1
   159    69    68    1
   160    69    70    2
   161    32    34    1
   162    32    33    1
   163    32    29    1
   164   188   187    2
   165    68    67    1
   166    28    29    1
   167    28    22   am
   168    30    29    1
   169    30    31    2
   170   182   181    2
   171    21    22    1
   172    21    24    1
   173     9     8    1
   174     8     7    1
   175    22    23    2
   176    24    25    1
   177    25    26    2
   178    25    27   am
   179     7     6    1
   180     6     5    1
   181     5     2    1
   182     2     1    1
   183     2     3    1
   184     4     3    2
