@<TRIPOS>MOLECULE
tmp/5iwcA01.pdb
 156 146 0 0 0
SMALL
GASTEIGER

@<TRIPOS>ATOM
      1  N          0.9930   -0.9800   -6.4760 N.3    50  LYS50      -0.1245
      2  CA         1.7220    0.2580   -6.0970 C.3    50  LYS50       0.1561
      3  C          0.8690    1.4750   -5.8530 C.2    50  LYS50       0.2260
      4  O          1.3410    2.4470   -5.2700 O.2    50  LYS50      -0.2867
      5  CB         2.7290    0.6920   -7.1590 C.3    50  LYS50       0.0271
      6  CG         3.8450   -0.3180   -7.3330 C.3    50  LYS50       0.0035
      7  CD         4.5660   -0.5910   -6.0040 C.3    50  LYS50       0.0206
      8  CE         5.9210   -1.1950   -6.2650 C.3    50  LYS50       0.1093
      9  NZ         5.7240   -2.4090   -6.9760 N.3    50  LYS50      -0.1314
     10  N         11.9930    5.2030  -10.2620 N.3    77  THR77      -0.1218
     11  CA        11.2030    4.1190  -10.8140 C.3    77  THR77       0.1862
     12  C         10.7400    4.5130  -12.2130 C.2    77  THR77       0.2287
     13  O         10.3940    5.6790  -12.4520 O.2    77  THR77      -0.2866
     14  CB         9.9530    3.8140   -9.9520 C.3    77  THR77       0.1770
     15  OG1        9.1360    2.8230  -10.5990 O.3    77  THR77      -0.2211
     16  CG2        9.1240    5.0890   -9.7010 C.3    77  THR77       0.0375
     17  N          8.5370    1.9880  -13.4860 N.3    79  GLY79      -0.1210
     18  CA         7.5140    0.9740  -13.5590 C.3    79  GLY79       0.1956
     19  C          6.1990    1.3630  -12.9220 C.2    79  GLY79       0.2612
     20  O          5.6690    2.4600  -13.0990 O.2    79  GLY79      -0.2717
     21  N          5.7020    0.4330  -12.1350 N.am   80  ASN80      -0.1960
     22  CA         4.4140    0.5360  -11.5500 C.3    80  ASN80       0.1819
     23  C          4.2780    1.6440  -10.5280 C.2    80  ASN80       0.2621
     24  O          3.1930    2.1990  -10.3580 O.2    80  ASN80      -0.2715
     25  CB         4.0570   -0.8250  -10.9430 C.3    80  ASN80       0.1195
     26  CG         3.7100   -1.8480  -11.9980 C.2    80  ASN80       0.2630
     27  OD1        3.3430   -1.5030  -13.1040 O.2    80  ASN80      -0.2716
     28  ND2        3.7900   -3.1090  -11.6530 N.am   80  ASN80      -0.0877
     29  N          5.3450    1.9290   -9.8140 N.am   81  THR81      -0.1951
     30  CA         5.3300    2.9720   -8.8020 C.3    81  THR81       0.1897
     31  C          5.2430    4.3390   -9.4370 C.2    81  THR81       0.2313
     32  O          4.5350    5.2170   -8.9080 O.2    81  THR81      -0.2863
     33  CB         6.5720    2.9070   -7.9000 C.3    81  THR81       0.1794
     34  OG1        6.5830    1.6550   -7.2120 O.3    81  THR81      -0.2208
     35  CG2        6.5130    3.9680   -6.8350 C.3    81  THR81       0.0378
     36  N         10.5150    5.0410   -1.9230 N.3   145  GLN145     -0.1231
     37  CA         9.7180    3.8280   -1.6550 C.3   145  GLN145      0.1698
     38  C         10.4830    2.6720   -1.0450 C.2   145  GLN145      0.2592
     39  O          9.9070    1.8660   -0.3090 O.2   145  GLN145     -0.2718
     40  CB         9.0600    3.3170   -2.9340 C.3   145  GLN145      0.0381
     41  CG        10.0410    3.0290   -4.0640 C.3   145  GLN145      0.0905
     42  CD         9.4040    2.3990   -5.2690 C.2   145  GLN145      0.2608
     43  OE1        8.4610    1.6270   -5.1310 O.2   145  GLN145     -0.2717
     44  NE2        9.9280    2.7060   -6.4710 N.am  145  GLN145     -0.0878
     45  N         11.7610    2.5760   -1.4000 N.am  146  TYR146     -0.1976
     46  CA        12.6570    1.5650   -0.8470 C.3   146  TYR146      0.1639
     47  C         12.9670    1.7620    0.6510 C.2   146  TYR146      0.2290
     48  O         13.1000    0.7860    1.3960 O.2   146  TYR146     -0.2864
     49  CB        13.9230    1.5140   -1.6920 C.3   146  TYR146      0.0560
     50  CG        13.7040    0.8440   -3.0410 C.ar  146  TYR146     -0.0198
     51  CD1       13.4920   -0.5410   -3.1150 C.ar  146  TYR146     -0.0009
     52  CD2       13.7150    1.5590   -4.2310 C.ar  146  TYR146     -0.0009
     53  CE1       13.3060   -1.1860   -4.3300 C.ar  146  TYR146      0.0417
     54  CE2       13.5100    0.9180   -5.4540 C.ar  146  TYR146      0.0417
     55  CZ        13.3170   -0.4630   -5.4910 C.ar  146  TYR146      0.1957
     56  OH        13.1080   -1.1650   -6.6660 O.3   146  TYR146     -0.2866
     57  N          5.5630  -11.4690   -3.8790 N.3   176  GLY176     -0.1210
     58  CA         6.8410  -11.0830   -4.4210 C.3   176  GLY176      0.1956
     59  C          7.5670  -10.1000   -3.5220 C.2   176  GLY176      0.2612
     60  O          6.9510   -9.2710   -2.8360 O.2   176  GLY176     -0.2717
     61  N          8.8910  -10.2000   -3.5310 N.am  177  LEU177     -0.1965
     62  CA         9.7600   -9.3570   -2.7350 C.3   177  LEU177      0.1728
     63  C         10.5450   -8.4050   -3.6320 C.2   177  LEU177      0.2617
     64  O         11.4950   -8.8230   -4.2680 O.2   177  LEU177     -0.2715
     65  CB        10.7120  -10.2570   -1.9570 C.3   177  LEU177      0.0311
     66  CG        11.6160   -9.6390   -0.8850 C.3   177  LEU177      0.0022
     67  CD1       10.8730   -9.5900    0.4480 C.3   177  LEU177      0.0001
     68  CD2       12.8990  -10.4440   -0.7450 C.3   177  LEU177      0.0001
     69  N         10.1410   -7.1330   -3.6700 N.am  178  GLY178     -0.1940
     70  CA        10.8170   -6.0840   -4.4580 C.3   178  GLY178      0.2014
     71  C         11.3210   -4.9800   -3.5400 C.2   178  GLY178      0.2639
     72  O         12.4610   -5.0280   -3.0890 O.2   178  GLY178     -0.2714
     73  N         10.4680   -3.9990   -3.2470 N.am  179  THR179     -0.1950
     74  CA        10.7580   -2.9980   -2.2150 C.3   179  THR179      0.1897
     75  C         10.6900   -3.6090   -0.8240 C.2   179  THR179      0.2313
     76  O         11.2500   -3.0540    0.1270 O.2   179  THR179     -0.2863
     77  CB         9.7470   -1.8150   -2.1920 C.3   179  THR179      0.1794
     78  OG1        8.4630   -2.2650   -1.7210 O.3   179  THR179     -0.2208
     79  CG2        9.6230   -1.1290   -3.5520 C.3   179  THR179      0.0378
     80  N          8.6940  -14.8080   -2.6630 N.3   202  ALA202     -0.1231
     81  CA         9.1090  -15.2940   -3.9920 C.3   202  ALA202      0.1694
     82  C         10.0200  -14.2180   -4.5690 C.2   202  ALA202      0.2592
     83  O          9.7380  -13.0410   -4.4020 O.2   202  ALA202     -0.2718
     84  CB         7.8920  -15.5110   -4.8930 C.3   202  ALA202      0.0304
     85  N         11.1300  -14.6130   -5.1880 N.am  203  GLU203     -0.1966
     86  CA        12.0840  -13.6490   -5.7630 C.3   203  GLU203      0.1718
     87  C         12.7780  -14.2150   -7.0010 C.2   203  GLU203      0.2458
     88  O         12.6700  -15.4180   -7.2730 O.2   203  GLU203     -0.2730
     89  CB        13.1120  -13.2100   -4.7270 C.3   203  GLU203      0.0428
     90  CG        13.9800  -14.3440   -4.1920 C.3   203  GLU203      0.1163
     91  CD        15.0260  -13.9120   -3.1810 C.2   203  GLU203      0.3649
     92  OE1       15.3210  -14.7030   -2.2720 O.co2 203  GLU203     -0.2457
     93  OE2       15.5800  -12.8040   -3.3180 O.co2 203  GLU203     -0.2457
     94  N         13.4740  -13.3450   -7.7800 N.am  204  PRO204     -0.2727
     95  CA        14.1900  -13.8460   -8.9710 C.3   204  PRO204      0.1402
     96  C         15.5540  -14.4190   -8.6210 C.2   204  PRO204      0.2269
     97  O         16.1810  -13.9450   -7.6700 O.2   204  PRO204     -0.2865
     98  CB        14.3610  -12.5850   -9.8470 C.3   204  PRO204      0.0296
     99  CG        13.7700  -11.4340   -9.0860 C.3   204  PRO204      0.0237
    100  CD        13.6000  -11.8760   -7.6650 C.3   204  PRO204      0.0939
    101  N         12.9640  -18.1420   -7.9040 N.3   221  VAL221     -0.1245
    102  CA        12.1760  -18.6590   -9.0000 C.3   221  VAL221      0.1561
    103  C         12.8420  -18.2930  -10.2990 C.2   221  VAL221      0.2260
    104  O         13.2790  -17.1700  -10.5060 O.2   221  VAL221     -0.2867
    105  CB        10.7150  -18.1350   -8.9590 C.3   221  VAL221      0.0252
    106  CG1        9.8980  -18.7130  -10.0960 C.3   221  VAL221      0.0019
    107  CG2       10.0700  -18.5060   -7.6350 C.3   221  VAL221      0.0019
    108  N         12.9430  -17.7580  -14.4440 N.3   223  ALA223     -0.1245
    109  CA        12.0820  -17.2030  -15.4770 C.3   223  ALA223      0.1562
    110  C         11.1330  -18.2450  -16.1160 C.2   223  ALA223      0.2260
    111  O          9.9380  -17.9910  -16.2390 O.2   223  ALA223     -0.2867
    112  CB        12.9170  -16.5190  -16.5220 C.3   223  ALA223      0.0290
    113  N          8.3440  -19.1360  -13.6910 N.3   226  ALA226     -0.1245
    114  CA         7.4310  -17.9740  -13.6040 C.3   226  ALA226      0.1562
    115  C          6.4190  -17.9090  -14.7420 C.2   226  ALA226      0.2260
    116  O          5.2100  -17.9090  -14.5150 O.2   226  ALA226     -0.2867
    117  CB         8.2110  -16.6830  -13.5460 C.3   226  ALA226      0.0290
    118  N          3.8480  -11.2660  -14.7180 N.3   243  ILE243     -0.1231
    119  CA         4.9090  -12.2620  -14.5070 C.3   243  ILE243      0.1692
    120  C          5.2870  -12.5060  -13.0490 C.2   243  ILE243      0.2592
    121  O          5.5900  -13.6470  -12.6680 O.2   243  ILE243     -0.2718
    122  CB         6.2030  -11.9400  -15.2940 C.3   243  ILE243      0.0266
    123  CG1        5.9150  -11.5890  -16.7710 C.3   243  ILE243      0.0019
    124  CG2        7.1340  -13.1580  -15.2910 C.3   243  ILE243      0.0020
    125  CD1        5.1490  -12.6380  -17.5680 C.3   243  ILE243      0.0001
    126  N          5.2320  -11.4810  -12.2180 N.am  244  SER244     -0.1952
    127  CA         5.5590  -11.6790  -10.8060 C.3   244  SER244      0.1924
    128  C          4.5350  -12.6040  -10.1410 C.2   244  SER244      0.2314
    129  O          4.8710  -13.2890   -9.1810 O.2   244  SER244     -0.2863
    130  CB         5.6600  -10.3510  -10.0630 C.3   244  SER244      0.2116
    131  OG         4.3850   -9.8380   -9.7140 O.3   244  SER244     -0.2180
    132  N          5.7460  -16.1300  -10.4800 N.3   247  ALA247     -0.1245
    133  CA         6.7390  -16.4790   -9.4720 C.3   247  ALA247      0.1562
    134  C          6.0610  -16.8410   -8.1540 C.2   247  ALA247      0.2260
    135  O          6.3120  -17.9250   -7.5800 O.2   247  ALA247     -0.2867
    136  CB         7.7460  -15.3580   -9.2770 C.3   247  ALA247      0.0290
    137  N          2.6630   -6.7310  -20.2060 N.3   279  TYR279     -0.1241
    138  CA         3.7150   -7.7370  -20.4770 C.3   279  TYR279      0.1605
    139  C          3.4710   -8.5360  -21.7530 C.2   279  TYR279      0.2264
    140  O          4.2130   -9.4430  -22.0750 O.2   279  TYR279     -0.2867
    141  CB         3.8090   -8.7160  -19.2960 C.3   279  TYR279      0.0534
    142  CG         4.0750   -8.0230  -17.9860 C.ar  279  TYR279     -0.0201
    143  CD1        5.3630   -7.6760  -17.6080 C.ar  279  TYR279     -0.0009
    144  CD2        3.0230   -7.6760  -17.1470 C.ar  279  TYR279     -0.0009
    145  CE1        5.6010   -7.0110  -16.4160 C.ar  279  TYR279      0.0417
    146  CE2        3.2440   -7.0120  -15.9610 C.ar  279  TYR279      0.0417
    147  CZ         4.5280   -6.6750  -15.5990 C.ar  279  TYR279      0.1957
    148  OH         4.7160   -6.0290  -14.4210 O.3   279  TYR279     -0.2866
    149  N         12.0260  -11.9620  -22.4390 N.3   296  LEU296     -0.1245
    150  CA        11.8460  -11.1140  -21.2440 C.3   296  LEU296      0.1561
    151  C         13.0920  -10.3550  -20.8330 C.2   296  LEU296      0.2260
    152  O         12.9900   -9.2400  -20.3280 O.2   296  LEU296     -0.2867
    153  CB        11.3850  -11.9350  -20.0350 C.3   296  LEU296      0.0270
    154  CG         9.9320  -12.4210  -19.9940 C.3   296  LEU296      0.0019
    155  CD1        9.7580  -13.4300  -18.8690 C.3   296  LEU296      0.0001
    156  CD2        8.9510  -11.2710  -19.8420 C.3   296  LEU296      0.0001
@<TRIPOS>BOND
     1   149   150    1
     2   140   139    2
     3   139   138    1
     4   150   151    1
     5   150   153    1
     6   151   152    2
     7   138   137    1
     8   138   141    1
     9   153   154    1
    10   154   156    1
    11   154   155    1
    12   141   142    1
    13   142   143   ar
    14   142   144   ar
    15   143   145   ar
    16   125   123    1
    17   144   146   ar
    18   123   122    1
    19   112   109    1
    20   145   147   ar
    21   111   110    2
    22   110   109    1
    23   146   147   ar
    24   147   148    1
    25   109   108    1
    26   122   124    1
    27   122   119    1
    28   115   116    2
    29   115   114    1
    30   118   119    1
    31   119   120    1
    32   113   114    1
    33   114   117    1
    34    18    17    1
    35    18    19    1
    36    27    26    2
    37    20    19    2
    38   120   121    2
    39   120   126   am
    40    19    21   am
    41    13    12    2
    42   126   127    1
    43    12    11    1
    44    21    22    1
    45    26    28   am
    46    26    25    1
    47    22    25    1
    48    22    23    1
    49    11    10    1
    50    11    14    1
    51   127   128    1
    52   127   130    1
    53    15    14    1
    54    23    24    2
    55    23    29   am
    56   104   103    2
    57   132   133    1
    58   103   102    1
    59   128   129    2
    60   106   105    1
    61   130   131    1
    62    14    16    1
    63    98    99    1
    64    98    95    1
    65    29    30    1
    66   133   136    1
    67   133   134    1
    68    31    32    2
    69    31    30    1
    70    99   100    1
    71   102   105    1
    72   102   101    1
    73    95    96    1
    74    95    94    1
    75   105   107    1
    76    30    33    1
    77    96    97    2
    78   134   135    2
    79    33    34    1
    80    33    35    1
    81    94   100    1
    82    94    87   am
    83     6     5    1
    84     6     7    1
    85    88    87    2
    86     5     2    1
    87    87    86    1
    88     9     8    1
    89    56    55    1
    90     1     2    1
    91    44    42   am
    92     8     7    1
    93     2     3    1
    94     3     4    2
    95    86    85    1
    96    86    89    1
    97    55    54   ar
    98    55    53   ar
    99    54    52   ar
   100    42    43    2
   101    42    41    1
   102    85    82   am
   103    84    81    1
   104    89    90    1
   105    82    83    2
   106    82    81    1
   107    70    69    1
   108    70    71    1
   109    58    57    1
   110    58    59    1
   111    53    51   ar
   112    64    63    2
   113    52    50   ar
   114    90    91    1
   115    41    40    1
   116    81    80    1
   117    69    63   am
   118    63    62    1
   119    79    77    1
   120    71    73   am
   121    71    72    2
   122    61    59   am
   123    61    62    1
   124    59    60    2
   125    93    91   ar
   126    73    74    1
   127    91    92   ar
   128    51    50   ar
   129    50    49    1
   130    40    37    1
   131    62    65    1
   132    74    77    1
   133    74    75    1
   134    77    78    1
   135    65    66    1
   136    36    37    1
   137    49    46    1
   138    37    38    1
   139    45    38   am
   140    45    46    1
   141    38    39    2
   142    66    68    1
   143    66    67    1
   144    46    47    1
   145    75    76    2
   146    47    48    2
