@<TRIPOS>MOLECULE
tmp/5iwcA00.pdb
 129 123 0 0 0
SMALL
GASTEIGER

@<TRIPOS>ATOM
      1  N         -2.1080   -1.7990  -10.5920 N.3    48  SER48      -0.1202
      2  CA        -1.0830   -2.4610   -9.7980 C.3    48  SER48       0.2020
      3  C         -1.2250   -2.1820   -8.3120 C.2    48  SER48       0.2619
      4  O         -1.8500   -1.1980   -7.8930 O.2    48  SER48      -0.2717
      5  CB         0.3270   -2.0540  -10.2730 C.3    48  SER48       0.2103
      6  OG         0.9710   -1.1980   -9.3420 O.3    48  SER48      -0.2182
      7  N         -0.5960   -3.0580   -7.5340 N.am   49  ILE49      -0.1965
      8  CA        -0.5110   -2.9190   -6.0930 C.3    49  ILE49       0.1727
      9  C          0.1580   -1.6080   -5.6330 C.2    49  ILE49       0.2616
     10  O         -0.0940   -1.1810   -4.5170 O.2    49  ILE49      -0.2715
     11  CB         0.2360   -4.1200   -5.4710 C.3    49  ILE49       0.0290
     12  CG1       -0.0060   -4.2180   -3.9720 C.3    49  ILE49       0.0022
     13  CG2        1.7340   -4.0700   -5.7640 C.3    49  ILE49       0.0023
     14  CD1        0.4020   -5.5500   -3.3710 C.3    49  ILE49       0.0001
     15  N          0.9930   -0.9800   -6.4760 N.am   50  LYS50      -0.1977
     16  CA         1.7220    0.2580   -6.0970 C.3    50  LYS50       0.1596
     17  C          0.8690    1.4750   -5.8530 C.2    50  LYS50       0.2287
     18  O          1.3410    2.4470   -5.2700 O.2    50  LYS50      -0.2864
     19  CB         2.7290    0.6920   -7.1590 C.3    50  LYS50       0.0298
     20  CG         3.8450   -0.3180   -7.3330 C.3    50  LYS50       0.0038
     21  CD         4.5660   -0.5910   -6.0040 C.3    50  LYS50       0.0206
     22  CE         5.9210   -1.1950   -6.2650 C.3    50  LYS50       0.1093
     23  NZ         5.7240   -2.4090   -6.9760 N.3    50  LYS50      -0.1314
     24  N          5.7020    0.4330  -12.1350 N.3    80  ASN80      -0.1240
     25  CA         4.4140    0.5360  -11.5500 C.3    80  ASN80       0.1653
     26  C          4.2780    1.6440  -10.5280 C.2    80  ASN80       0.2266
     27  O          3.1930    2.1990  -10.3580 O.2    80  ASN80      -0.2867
     28  CB         4.0570   -0.8250  -10.9430 C.3    80  ASN80       0.1155
     29  CG         3.7100   -1.8480  -11.9980 C.2    80  ASN80       0.2627
     30  OD1        3.3430   -1.5030  -13.1040 O.2    80  ASN80      -0.2716
     31  ND2        3.7900   -3.1090  -11.6530 N.am   80  ASN80      -0.0877
     32  N          5.2930    3.1240    2.7200 N.3   151  ASN151     -0.1240
     33  CA         5.1580    1.9360    1.8620 C.3   151  ASN151      0.1653
     34  C          4.7220    0.6970    2.6560 C.2   151  ASN151      0.2266
     35  O          3.7050    0.0880    2.3690 O.2   151  ASN151     -0.2867
     36  CB         6.4830    1.6630    1.1310 C.3   151  ASN151      0.1155
     37  CG         6.4150    0.4690    0.2150 C.2   151  ASN151      0.2627
     38  OD1        5.4480   -0.2770    0.2230 O.2   151  ASN151     -0.2716
     39  ND2        7.4430    0.2860   -0.5880 N.am  151  ASN151     -0.0877
     40  N          0.3400   -1.4710    3.4550 N.3   155  HIS155     -0.1241
     41  CA        -0.0630   -2.8860    3.5390 C.3   155  HIS155      0.1621
     42  C         -0.4470   -3.3140    4.9390 C.2   155  HIS155      0.2264
     43  O         -1.3100   -4.1850    5.1160 O.2   155  HIS155     -0.2867
     44  CB         1.0410   -3.7840    3.0370 C.3   155  HIS155      0.0745
     45  CG         1.4860   -3.4600    1.6520 C.ar  155  HIS155      0.0817
     46  ND1        0.7770   -3.8580    0.5420 N.ar  155  HIS155     -0.2268
     47  CD2        2.5500   -2.7580    1.1930 C.ar  155  HIS155      0.1154
     48  CE1        1.4040   -3.4390   -0.5430 C.ar  155  HIS155      0.1986
     49  NE2        2.4820   -2.7670   -0.1750 N.ar  155  HIS155     -0.2212
     50  N          5.5630  -11.4690   -3.8790 N.3   176  GLY176     -0.1210
     51  CA         6.8410  -11.0830   -4.4210 C.3   176  GLY176      0.1956
     52  C          7.5670  -10.1000   -3.5220 C.2   176  GLY176      0.2612
     53  O          6.9510   -9.2710   -2.8360 O.2   176  GLY176     -0.2717
     54  N          8.8910  -10.2000   -3.5310 N.am  177  LEU177     -0.1965
     55  CA         9.7600   -9.3570   -2.7350 C.3   177  LEU177      0.1728
     56  C         10.5450   -8.4050   -3.6320 C.2   177  LEU177      0.2617
     57  O         11.4950   -8.8230   -4.2680 O.2   177  LEU177     -0.2715
     58  CB        10.7120  -10.2570   -1.9570 C.3   177  LEU177      0.0311
     59  CG        11.6160   -9.6390   -0.8850 C.3   177  LEU177      0.0022
     60  CD1       10.8730   -9.5900    0.4480 C.3   177  LEU177      0.0001
     61  CD2       12.8990  -10.4440   -0.7450 C.3   177  LEU177      0.0001
     62  N         10.1410   -7.1330   -3.6700 N.am  178  GLY178     -0.1940
     63  CA        10.8170   -6.0840   -4.4580 C.3   178  GLY178      0.2014
     64  C         11.3210   -4.9800   -3.5400 C.2   178  GLY178      0.2640
     65  O         12.4610   -5.0280   -3.0890 O.2   178  GLY178     -0.2714
     66  N         10.4680   -3.9990   -3.2470 N.am  179  THR179     -0.1936
     67  CA        10.7580   -2.9980   -2.2150 C.3   179  THR179      0.2028
     68  C         10.6900   -3.6090   -0.8240 C.2   179  THR179      0.2643
     69  O         11.2500   -3.0540    0.1270 O.2   179  THR179     -0.2714
     70  CB         9.7470   -1.8150   -2.1920 C.3   179  THR179      0.1808
     71  OG1        8.4630   -2.2650   -1.7210 O.3   179  THR179     -0.2208
     72  CG2        9.6230   -1.1290   -3.5520 C.3   179  THR179      0.0379
     73  N          9.9420   -4.7120   -0.7170 N.am  180  THR180     -0.1936
     74  CA         9.6650   -5.4800    0.5290 C.3   180  THR180      0.2028
     75  C          8.4630   -4.9940    1.2490 C.2   180  THR180      0.2643
     76  O          8.0080   -5.6650    2.1630 O.2   180  THR180     -0.2714
     77  CB        10.8550   -5.5820    1.5330 C.3   180  THR180      0.1808
     78  OG1       11.1500   -4.2920    2.0890 O.3   180  THR180     -0.2208
     79  CG2       12.0950   -6.1500    0.8560 C.3   180  THR180      0.0379
     80  N          7.9160   -3.8510    0.8420 N.am  181  GLY181     -0.1939
     81  CA         6.6850   -3.2950    1.4580 C.3   181  GLY181      0.2014
     82  C          5.5750   -4.3040    1.6970 C.2   181  GLY181      0.2640
     83  O          5.0800   -4.4350    2.8310 O.2   181  GLY181     -0.2714
     84  N          5.2010   -5.0400    0.6520 N.am  182  THR182     -0.1936
     85  CA         4.0560   -5.9640    0.7310 C.3   182  THR182      0.2028
     86  C          4.2620   -7.0080    1.8270 C.2   182  THR182      0.2642
     87  O          3.4200   -7.1610    2.7220 O.2   182  THR182     -0.2714
     88  CB         3.7420   -6.6620   -0.6230 C.3   182  THR182      0.1808
     89  OG1        3.4780   -5.6730   -1.6190 O.3   182  THR182     -0.2208
     90  CG2        2.5180   -7.6180   -0.5000 C.3   182  THR182      0.0379
     91  N          5.4000   -7.6810    1.7780 N.am  183  LEU183     -0.1977
     92  CA         5.6710   -8.7460    2.7450 C.3   183  LEU183      0.1596
     93  C          5.8590   -8.2340    4.1720 C.2   183  LEU183      0.2287
     94  O          5.2620   -8.7910    5.1010 O.2   183  LEU183     -0.2864
     95  CB         6.8770   -9.5710    2.3120 C.3   183  LEU183      0.0297
     96  CG         6.5010  -10.5200    1.1790 C.3   183  LEU183      0.0022
     97  CD1        7.7420  -10.9390    0.4420 C.3   183  LEU183      0.0001
     98  CD2        5.7550  -11.7270    1.7150 C.3   183  LEU183      0.0001
     99  N          5.2320  -11.4810  -12.2180 N.3   244  SER244     -0.1217
    100  CA         5.5590  -11.6790  -10.8060 C.3   244  SER244      0.1889
    101  C          4.5350  -12.6040  -10.1410 C.2   244  SER244      0.2288
    102  O          4.8710  -13.2890   -9.1810 O.2   244  SER244     -0.2866
    103  CB         5.6600  -10.3510  -10.0630 C.3   244  SER244      0.2089
    104  OG         4.3850   -9.8380   -9.7140 O.3   244  SER244     -0.2183
    105  N         -0.3680   -9.0310   -8.2330 N.3   273  ALA273     -0.1231
    106  CA         0.0750   -7.6420   -8.0270 C.3   273  ALA273      0.1694
    107  C         -0.2850   -6.7090   -9.1710 C.2   273  ALA273      0.2592
    108  O         -0.5160   -5.5060   -8.9490 O.2   273  ALA273     -0.2718
    109  CB         1.5770   -7.5770   -7.7500 C.3   273  ALA273      0.0304
    110  N         -0.2320   -7.2370  -10.3890 N.am  274  ASP274     -0.1974
    111  CA        -0.7220   -6.5290  -11.5680 C.3   274  ASP274      0.1709
    112  C         -1.2090   -7.5390  -12.6070 C.2   274  ASP274      0.2293
    113  O         -1.1890   -8.7330  -12.3680 O.2   274  ASP274     -0.2864
    114  CB         0.3140   -5.5150  -12.1160 C.3   274  ASP274      0.1436
    115  CG         1.5590   -6.1630  -12.7070 C.2   274  ASP274      0.3671
    116  OD1        1.6800   -7.3910  -12.6290 O.co2 274  ASP274     -0.2456
    117  OD2        2.4310   -5.4120  -13.2420 O.co2 274  ASP274     -0.2456
    118  N          2.6630   -6.7310  -20.2060 N.3   279  TYR279     -0.1241
    119  CA         3.7150   -7.7370  -20.4770 C.3   279  TYR279      0.1605
    120  C          3.4710   -8.5360  -21.7530 C.2   279  TYR279      0.2264
    121  O          4.2130   -9.4430  -22.0750 O.2   279  TYR279     -0.2867
    122  CB         3.8090   -8.7160  -19.2960 C.3   279  TYR279      0.0534
    123  CG         4.0750   -8.0230  -17.9860 C.ar  279  TYR279     -0.0201
    124  CD1        5.3630   -7.6760  -17.6080 C.ar  279  TYR279     -0.0009
    125  CD2        3.0230   -7.6760  -17.1470 C.ar  279  TYR279     -0.0009
    126  CE1        5.6010   -7.0110  -16.4160 C.ar  279  TYR279      0.0417
    127  CE2        3.2440   -7.0120  -15.9610 C.ar  279  TYR279      0.0417
    128  CZ         4.5280   -6.6750  -15.5990 C.ar  279  TYR279      0.1957
    129  OH         4.7160   -6.0290  -14.4210 O.3   279  TYR279     -0.2866
@<TRIPOS>BOND
     1   121   120    2
     2   120   119    1
     3   119   118    1
     4   119   122    1
     5   122   123    1
     6   123   124   ar
     7   123   125   ar
     8   124   126   ar
     9   125   127   ar
    10   126   128   ar
    11   127   128   ar
    12   128   129    1
    13   117   115   ar
    14    30    29    2
    15   115   116   ar
    16   115   114    1
    17   112   113    2
    18   112   111    1
    19    99   100    1
    20    24    25    1
    21   114   111    1
    22    29    31   am
    23    29    28    1
    24   111   110    1
    25    25    28    1
    26    25    26    1
    27   100   101    1
    28   100   103    1
    29     1     2    1
    30    26    27    2
    31   110   107   am
    32     5     2    1
    33     5     6    1
    34   101   102    2
    35   103   104    1
    36     2     3    1
    37   107   108    2
    38   107   106    1
    39     3     4    2
    40     3     7   am
    41   105   106    1
    42   106   109    1
    43     7     8    1
    44    20    19    1
    45    20    21    1
    46    19    16    1
    47    23    22    1
    48    15    16    1
    49    15     9   am
    50    22    21    1
    51    16    17    1
    52     8     9    1
    53     8    11    1
    54    17    18    2
    55    13    11    1
    56     9    10    2
    57    11    12    1
    58    63    62    1
    59    63    64    1
    60    51    50    1
    61    51    52    1
    62    57    56    2
    63    12    14    1
    64    62    56   am
    65    56    55    1
    66    72    70    1
    67    64    66   am
    68    64    65    2
    69    54    52   am
    70    54    55    1
    71    52    53    2
    72    66    67    1
    73    55    58    1
    74    67    70    1
    75    67    68    1
    76    70    71    1
    77    58    59    1
    78    89    88    1
    79    59    61    1
    80    59    60    1
    81    68    73   am
    82    68    69    2
    83    73    74    1
    84    88    90    1
    85    88    85    1
    86    39    37   am
    87    48    49   ar
    88    48    46   ar
    89    49    47   ar
    90    37    38    2
    91    37    36    1
    92    97    96    1
    93    74    75    1
    94    74    77    1
    95    46    45   ar
    96    84    85    1
    97    84    82   am
    98    85    86    1
    99    80    75   am
   100    80    81    1
   101    79    77    1
   102    36    33    1
   103    96    98    1
   104    96    95    1
   105    47    45   ar
   106    75    76    2
   107    81    82    1
   108    77    78    1
   109    45    44    1
   110    82    83    2
   111    91    86   am
   112    91    92    1
   113    86    87    2
   114    33    34    1
   115    33    32    1
   116    95    92    1
   117    35    34    2
   118    92    93    1
   119    44    41    1
   120    40    41    1
   121    41    42    1
   122    93    94    2
   123    42    43    2
