@<TRIPOS>MOLECULE
tmp/5iwdA00.pdb
 105 97 0 0 0
SMALL
GASTEIGER

@<TRIPOS>ATOM
      1  N         28.4720   28.8730  -16.3670 N.3    37  THR37      -0.1218
      2  CA        28.3500   30.3220  -16.2630 C.3    37  THR37       0.1862
      3  C         28.7130   30.8100  -14.8620 C.2    37  THR37       0.2287
      4  O         28.4210   30.1400  -13.8690 O.2    37  THR37      -0.2866
      5  CB        26.9150   30.7180  -16.6100 C.3    37  THR37       0.1770
      6  OG1       26.8440   31.0790  -18.0010 O.3    37  THR37      -0.2211
      7  CG2       26.4020   31.8200  -15.7440 C.3    37  THR37       0.0375
      8  N         28.1520   34.1950  -12.3700 N.3    39  THR39      -0.1218
      9  CA        27.3990   35.4310  -12.2380 C.3    39  THR39       0.1862
     10  C         27.7880   36.1710  -10.9620 C.2    39  THR39       0.2287
     11  O         27.8620   35.5740   -9.8790 O.2    39  THR39      -0.2866
     12  CB        25.9000   35.1610  -12.2630 C.3    39  THR39       0.1770
     13  OG1       25.5580   34.6580  -13.5520 O.3    39  THR39      -0.2211
     14  CG2       25.1290   36.4760  -12.0150 C.3    39  THR39       0.0375
     15  N         26.7790   39.4310   -8.5820 N.3    41  LEU41      -0.1245
     16  CA        25.6450   40.2680   -8.2690 C.3    41  LEU41       0.1561
     17  C         26.0030   41.2580   -7.1710 C.2    41  LEU41       0.2260
     18  O         26.8030   40.9450   -6.2810 O.2    41  LEU41      -0.2867
     19  CB        24.4560   39.4220   -7.8190 C.3    41  LEU41       0.0270
     20  CG        23.7970   38.5880   -8.9140 C.3    41  LEU41       0.0019
     21  CD1       22.5540   37.8450   -8.3810 C.3    41  LEU41       0.0001
     22  CD2       23.4600   39.4740  -10.0870 C.3    41  LEU41       0.0001
     23  N         27.2940   33.0950   -8.3330 N.3    47  ILE47      -0.1245
     24  CA        26.4630   31.9900   -8.7620 C.3    47  ILE47       0.1561
     25  C         27.1800   31.2830   -9.8950 C.2    47  ILE47       0.2260
     26  O         27.6030   31.9300  -10.8610 O.2    47  ILE47      -0.2867
     27  CB        25.0850   32.4890   -9.2260 C.3    47  ILE47       0.0252
     28  CG1       24.3490   33.1210   -8.0600 C.3    47  ILE47       0.0019
     29  CG2       24.2720   31.3440   -9.8840 C.3    47  ILE47       0.0019
     30  CD1       23.2350   34.0340   -8.5060 C.3    47  ILE47       0.0001
     31  N         26.2850   28.4550  -12.6630 N.3    49  GLN49      -0.1245
     32  CA        25.1150   27.7820  -13.2050 C.3    49  GLN49       0.1566
     33  C         25.5210   26.8930  -14.3730 C.2    49  GLN49       0.2260
     34  O         26.3190   27.2960  -15.2230 O.2    49  GLN49      -0.2867
     35  CB        24.0300   28.7830  -13.6280 C.3    49  GLN49       0.0367
     36  CG        22.7580   28.0640  -14.0300 C.3    49  GLN49       0.0905
     37  CD        21.6430   28.9850  -14.4660 C.2    49  GLN49       0.2608
     38  OE1       20.6480   29.1590  -13.7470 O.2    49  GLN49      -0.2717
     39  NE2       21.7810   29.5570  -15.6670 N.am   49  GLN49      -0.0878
     40  N         22.9420   24.6270   -9.8510 N.3    58  LYS58      -0.1245
     41  CA        23.4170   25.9520   -9.4780 C.3    58  LYS58       0.1561
     42  C         24.1520   26.0040   -8.1570 C.2    58  LYS58       0.2260
     43  O         23.7190   25.3750   -7.1500 O.2    58  LYS58      -0.2867
     44  CB        22.4710   27.0480   -9.8600 C.3    58  LYS58       0.0271
     45  CG        21.8350   27.9660   -8.7970 C.3    58  LYS58       0.0035
     46  CD        20.4150   28.4530   -9.1410 C.3    58  LYS58       0.0206
     47  CE        20.2060   29.9390   -9.3910 C.3    58  LYS58       0.1093
     48  NZ        19.6940   30.3300  -10.6580 N.3    58  LYS58      -0.1314
     49  N         25.2580   43.7920  -12.5670 N.3    75  PRO75      -0.2116
     50  CA        25.3440   42.3280  -12.6740 C.3    75  PRO75       0.1372
     51  C         26.1650   41.8970  -13.8780 C.2    75  PRO75       0.2244
     52  O         26.0770   42.4840  -14.9570 O.2    75  PRO75      -0.2868
     53  CB        23.8800   41.8970  -12.8190 C.3    75  PRO75       0.0268
     54  CG        23.1000   42.9980  -12.1680 C.3    75  PRO75       0.0207
     55  CD        23.8650   44.2650  -12.4720 C.3    75  PRO75       0.0892
     56  N         27.4300   38.2280  -15.8620 N.3    77  THR77      -0.1218
     57  CA        27.5570   36.7980  -16.0400 C.3    77  THR77       0.1862
     58  C         28.5590   36.5580  -17.1640 C.2    77  THR77       0.2287
     59  O         28.3910   37.0900  -18.2690 O.2    77  THR77      -0.2866
     60  CB        26.1990   36.1600  -16.3460 C.3    77  THR77       0.1770
     61  OG1       25.9050   36.2990  -17.7390 O.3    77  THR77      -0.2211
     62  CG2       25.1120   36.8510  -15.5770 C.3    77  THR77       0.0375
     63  N         19.1460   37.3030  -19.6480 N.3   131  GLN131     -0.1231
     64  CA        19.4050   36.9050  -18.2690 C.3   131  GLN131      0.1698
     65  C         18.8870   35.5060  -17.9590 C.2   131  GLN131      0.2592
     66  O         17.6840   35.2370  -17.9860 O.2   131  GLN131     -0.2718
     67  CB        18.8180   37.9320  -17.3040 C.3   131  GLN131      0.0381
     68  CG        19.4170   39.3170  -17.4970 C.3   131  GLN131      0.0905
     69  CD        20.8720   39.2750  -17.9620 C.2   131  GLN131      0.2608
     70  OE1       21.7200   38.6080  -17.3590 O.2   131  GLN131     -0.2717
     71  NE2       21.1630   39.9920  -19.0420 N.am  131  GLN131     -0.0878
     72  N         19.8340   34.6210  -17.6530 N.am  132  ASP132     -0.1960
     73  CA        19.5550   33.2080  -17.4480 C.3   132  ASP132      0.1840
     74  C         18.8560   32.9560  -16.1180 C.2   132  ASP132      0.2622
     75  O         19.2980   32.1120  -15.3360 O.2   132  ASP132     -0.2715
     76  CB        20.8600   32.4150  -17.5300 C.3   132  ASP132      0.1450
     77  CG        21.6500   32.7230  -18.7970 C.2   132  ASP132      0.3671
     78  OD1       21.0590   33.3140  -19.7390 O.co2 132  ASP132     -0.2456
     79  OD2       22.8500   32.3630  -18.8520 O.co2 132  ASP132     -0.2456
     80  N         17.7540   33.6640  -15.8690 N.am  133  ILE133     -0.1963
     81  CA        17.0210   33.5350  -14.6130 C.3   133  ILE133      0.1727
     82  C         16.3410   32.1750  -14.5670 C.2   133  ILE133      0.2616
     83  O         15.4550   31.8820  -15.3790 O.2   133  ILE133     -0.2715
     84  CB        15.9840   34.6550  -14.4570 C.3   133  ILE133      0.0290
     85  CG1       16.5860   36.0050  -14.8320 C.3   133  ILE133      0.0022
     86  CG2       15.4250   34.6720  -13.0320 C.3   133  ILE133      0.0023
     87  CD1       17.8390   36.3210  -14.0860 C.3   133  ILE133      0.0001
     88  N         16.7460   31.3420  -13.6070 N.am  134  VAL134     -0.1963
     89  CA        16.0950   30.0630  -13.3390 C.3   134  VAL134      0.1727
     90  C         16.1510   29.8110  -11.8360 C.2   134  VAL134      0.2616
     91  O         17.1490   29.2910  -11.3260 O.2   134  VAL134     -0.2715
     92  CB        16.7610   28.9110  -14.1160 C.3   134  VAL134      0.0290
     93  CG1       16.1290   27.5830  -13.7250 C.3   134  VAL134      0.0023
     94  CG2       16.6890   29.1320  -15.6450 C.3   134  VAL134      0.0023
     95  N         15.0970   30.1800  -11.1090 N.am  135  ARG135     -0.1977
     96  CA        15.1540   30.1750   -9.6530 C.3   135  ARG135      0.1597
     97  C         13.9330   29.4940   -9.0410 C.2   135  ARG135      0.2287
     98  O         12.9070   29.2720   -9.6920 O.2   135  ARG135     -0.2864
     99  CB        15.3080   31.6020   -9.0960 C.3   135  ARG135      0.0334
    100  CG        14.6260   32.7100   -9.9040 C.3   135  ARG135      0.0492
    101  CD        13.1060   32.6820   -9.7630 C.3   135  ARG135      0.2205
    102  NE        12.4830   33.9280  -10.2060 N.pl3 135  ARG135     -0.0865
    103  CZ        11.1710   34.1020  -10.3460 C.cat 135  ARG135      0.5346
    104  NH1       10.3350   33.1070  -10.0880 N.pl3 135  ARG135      0.1354
    105  NH2       10.6950   35.2710  -10.7520 N.pl3 135  ARG135      0.1354
@<TRIPOS>BOND
     1    78    77   ar
     2    63    64    1
     3    71    69   am
     4    79    77   ar
     5    77    76    1
     6    59    58    2
     7    64    65    1
     8    64    67    1
     9     6     5    1
    10    66    65    2
    11    69    68    1
    12    69    70    2
    13    65    72   am
    14    61    60    1
    15    72    73    1
    16    76    73    1
    17    68    67    1
    18    73    74    1
    19    58    57    1
    20     5     2    1
    21     5     7    1
    22     1     2    1
    23    60    57    1
    24    60    62    1
    25     2     3    1
    26    74    80   am
    27    74    75    2
    28    57    56    1
    29    80    81    1
    30    39    37   am
    31    94    92    1
    32    83    82    2
    33    34    33    2
    34    52    51    2
    35     3     4    2
    36    85    84    1
    37    85    87    1
    38    81    82    1
    39    81    84    1
    40    82    88   am
    41    37    36    1
    42    37    38    2
    43    84    86    1
    44    33    32    1
    45    92    93    1
    46    92    89    1
    47    36    35    1
    48    51    50    1
    49    35    32    1
    50    88    89    1
    51    13    12    1
    52    89    90    1
    53    32    31    1
    54    53    50    1
    55    53    54    1
    56    50    49    1
    57    49    55    1
    58    55    54    1
    59     8     9    1
    60    12     9    1
    61    12    14    1
    62     9    10    1
    63    90    91    2
    64    90    95   am
    65    95    96    1
    66    10    11    2
    67    26    25    2
    68   105   103    1
    69    48    47    1
    70   103   102    2
    71   103   104    1
    72   102   101    1
    73    22    20    1
    74   100   101    1
    75   100    99    1
    76    25    24    1
    77    29    27    1
    78    44    41    1
    79    44    45    1
    80    40    41    1
    81    98    97    2
    82    96    99    1
    83    96    97    1
    84    41    42    1
    85    47    46    1
    86    27    24    1
    87    27    28    1
    88    46    45    1
    89    20    21    1
    90    20    19    1
    91    24    23    1
    92    15    16    1
    93    30    28    1
    94    16    19    1
    95    16    17    1
    96    42    43    2
    97    17    18    2
