@<TRIPOS>MOLECULE
tmp/5iweA00.pdb
 145 141 0 0 0
SMALL
GASTEIGER

@<TRIPOS>ATOM
      1  N         15.3340   25.7970    5.4790 N.3    45  SER45      -0.1202
      2  CA        14.5390   25.0220    6.4320 C.3    45  SER45       0.2020
      3  C         13.9190   25.9370    7.4780 C.2    45  SER45       0.2618
      4  O         12.7610   25.7470    7.8770 O.2    45  SER45      -0.2717
      5  CB        15.3840   23.9370    7.1010 C.3    45  SER45       0.2103
      6  OG        16.3360   24.4900    7.9800 O.3    45  SER45      -0.2182
      7  N         14.6660   26.9500    7.9150 N.am   46  GLN46      -0.1979
      8  CA        14.1010   28.0150    8.7330 C.3    46  GLN46       0.1601
      9  C         14.7400   29.3490    8.3950 C.2    46  GLN46       0.2287
     10  O         15.9250   29.4370    8.0530 O.2    46  GLN46      -0.2864
     11  CB        14.2670   27.7870   10.2530 C.3    46  GLN46       0.0394
     12  CG        13.4000   26.6710   10.8660 C.3    46  GLN46       0.0908
     13  CD        14.0600   25.3050   10.7660 C.2    46  GLN46       0.2608
     14  OE1       15.2610   25.2120   10.6480 O.2    46  GLN46      -0.2717
     15  NE2       13.2610   24.2550   10.7420 N.am   46  GLN46      -0.0878
     16  N          9.4660   28.1310    9.2060 N.3    65  THR65      -0.1218
     17  CA         9.7680   27.2900    8.0500 C.3    65  THR65       0.1862
     18  C          9.1040   27.9330    6.8480 C.2    65  THR65       0.2287
     19  O          8.3670   28.8990    6.9710 O.2    65  THR65      -0.2866
     20  CB         9.2330   25.8720    8.2340 C.3    65  THR65       0.1770
     21  OG1        7.8180   25.8630    8.0020 O.3    65  THR65      -0.2211
     22  CG2        9.5300   25.3410    9.6230 C.3    65  THR65       0.0375
     23  N          7.3570   28.1940   13.9960 N.3    70  LEU70      -0.1245
     24  CA         7.7530   27.1950   14.9850 C.3    70  LEU70       0.1561
     25  C          7.9500   27.8170   16.3650 C.2    70  LEU70       0.2260
     26  O          8.4590   28.9340   16.4780 O.2    70  LEU70      -0.2867
     27  CB         9.0730   26.5210   14.5830 C.3    70  LEU70       0.0270
     28  CG         9.1210   25.7330   13.2720 C.3    70  LEU70       0.0019
     29  CD1       10.5030   25.0630   13.1350 C.3    70  LEU70       0.0001
     30  CD2        8.0160   24.7000   13.2340 C.3    70  LEU70       0.0001
     31  N         10.0070   26.4800   18.7230 N.3    72  PHE72      -0.1227
     32  CA        11.3870   26.2870   19.1370 C.3    72  PHE72       0.1736
     33  C         12.1620   25.4830   18.1050 C.2    72  PHE72       0.2595
     34  O         11.6910   24.4590   17.6090 O.2    72  PHE72      -0.2718
     35  CB        11.4740   25.5710   20.4900 C.3    72  PHE72       0.0547
     36  CG        12.8840   25.4070   20.9890 C.ar   72  PHE72      -0.0202
     37  CD1       13.5950   26.4960   21.4460 C.ar   72  PHE72      -0.0042
     38  CD2       13.4860   24.1670   21.0110 C.ar   72  PHE72      -0.0042
     39  CE1       14.8850   26.3560   21.8910 C.ar   72  PHE72      -0.0003
     40  CE2       14.7640   24.0270   21.4500 C.ar   72  PHE72      -0.0003
     41  CZ        15.4640   25.1240   21.8970 C.ar   72  PHE72      -0.0000
     42  N         13.3860   25.9280   17.8330 N.am   73  ALA73      -0.1966
     43  CA        14.2920   25.1420   17.0170 C.3    73  ALA73       0.1728
     44  C         15.7120   25.5270   17.4060 C.2    73  ALA73       0.2617
     45  O         16.0010   26.7080   17.6230 O.2    73  ALA73      -0.2715
     46  CB        14.0460   25.3720   15.5300 C.3    73  ALA73       0.0334
     47  N         16.5800   24.5310   17.5310 N.am   74  GLY74      -0.1940
     48  CA        17.9160   24.7870   18.0540 C.3    74  GLY74       0.2014
     49  C         18.8820   25.4550   17.0930 C.2    74  GLY74       0.2639
     50  O         19.4810   26.4860   17.4240 O.2    74  GLY74      -0.2714
     51  N         19.0660   24.8870   15.9050 N.am   75  HIS75      -0.1959
     52  CA        20.0790   25.4710   15.0170 C.3    75  HIS75       0.1772
     53  C         19.6560   26.8600   14.5420 C.2    75  HIS75       0.2462
     54  O         20.5190   27.7510   14.4340 O.2    75  HIS75      -0.2730
     55  CB        20.4200   24.5130   13.8490 C.3    75  HIS75       0.0785
     56  CG        19.7470   24.8130   12.5440 C.ar   75  HIS75       0.0821
     57  ND1       18.6610   24.0970   12.0880 N.ar   75  HIS75      -0.2267
     58  CD2       20.0420   25.7080   11.5690 C.ar   75  HIS75       0.1154
     59  CE1       18.2750   24.5780   10.9200 C.ar   75  HIS75       0.1986
     60  NE2       19.1080   25.5440   10.5720 N.ar   75  HIS75      -0.2212
     61  N         18.3630   27.1340   14.3130 N.am   76  PRO76      -0.2727
     62  CA        18.0130   28.5110   13.9250 C.3    76  PRO76       0.1402
     63  C         18.2600   29.5160   15.0280 C.2    76  PRO76       0.2269
     64  O         18.6930   30.6380   14.7550 O.2    76  PRO76      -0.2865
     65  CB        16.5280   28.4040   13.5380 C.3    76  PRO76       0.0296
     66  CG        16.3350   26.9500   13.1600 C.3    76  PRO76       0.0237
     67  CD        17.2070   26.2230   14.1570 C.3    76  PRO76       0.0939
     68  N          9.4680   20.7280   19.4120 N.3   154  PRO154     -0.2116
     69  CA         9.3960   19.5660   18.5180 C.3   154  PRO154      0.1372
     70  C          9.4790   18.2820   19.3300 C.2   154  PRO154      0.2244
     71  O          9.6780   18.3070   20.5440 O.2   154  PRO154     -0.2868
     72  CB        10.6210   19.7410   17.6170 C.3   154  PRO154      0.0268
     73  CG        11.5770   20.4720   18.4660 C.3   154  PRO154      0.0207
     74  CD        10.7810   21.3710   19.3700 C.3   154  PRO154      0.0892
     75  N         11.3680   14.3740   19.3690 N.3   156  HIS156     -0.1241
     76  CA        12.5240   13.6440   18.8660 C.3   156  HIS156      0.1621
     77  C         12.5240   12.2380   19.4310 C.2   156  HIS156      0.2264
     78  O         12.5030   12.0610   20.6540 O.2   156  HIS156     -0.2867
     79  CB        13.8240   14.3450   19.2490 C.3   156  HIS156      0.0745
     80  CG        13.9940   15.6500   18.5440 C.ar  156  HIS156      0.0817
     81  ND1       14.1110   15.7280   17.1730 N.ar  156  HIS156     -0.2268
     82  CD2       13.9560   16.9220   19.0020 C.ar  156  HIS156      0.1154
     83  CE1       14.1960   17.0010   16.8240 C.ar  156  HIS156      0.1986
     84  NE2       14.1150   17.7420   17.9180 N.ar  156  HIS156     -0.2212
     85  N         19.4170   12.3000   11.4950 N.3   199  MET199     -0.1245
     86  CA        18.0250   12.6400   11.7570 C.3   199  MET199      0.1570
     87  C         17.2320   12.5810   10.4570 C.2   199  MET199      0.2261
     88  O         17.6500   13.1410    9.4300 O.2   199  MET199     -0.2867
     89  CB        17.9070   14.0260   12.4020 C.3   199  MET199      0.0387
     90  CG        16.4920   14.4120   12.8060 C.3   199  MET199      0.0595
     91  SD        15.4180   14.9520   11.4340 S.3   199  MET199     -0.1393
     92  CE        15.0800   16.6250   11.9710 C.3   199  MET199      0.0692
     93  N          8.6220   16.8510    9.5360 N.3   204  TYR204     -0.1227
     94  CA         9.2400   18.1710    9.5290 C.3   204  TYR204      0.1736
     95  C          9.8190   18.5080    8.1570 C.2   204  TYR204      0.2596
     96  O         10.5760   19.4760    8.0120 O.2   204  TYR204     -0.2718
     97  CB        10.2960   18.2620   10.6370 C.3   204  TYR204      0.0548
     98  CG         9.7310   18.0580   12.0540 C.ar  204  TYR204     -0.0200
     99  CD1        8.3890   18.2910   12.3440 C.ar  204  TYR204     -0.0009
    100  CD2       10.5490   17.6210   13.0890 C.ar  204  TYR204     -0.0009
    101  CE1        7.8910   18.1060   13.6360 C.ar  204  TYR204      0.0417
    102  CE2       10.0650   17.4300   14.3670 C.ar  204  TYR204      0.0417
    103  CZ         8.7410   17.6740   14.6430 C.ar  204  TYR204      0.1957
    104  OH         8.2970   17.4570   15.9380 O.3   204  TYR204     -0.2866
    105  N          9.4190   17.7580    7.1350 N.am  205  GLY205     -0.1942
    106  CA         9.7470   18.1150    5.7710 C.3   205  GLY205      0.2014
    107  C         11.1990   17.9480    5.3960 C.2   205  GLY205      0.2638
    108  O         11.6920   18.6980    4.5490 O.2   205  GLY205     -0.2714
    109  N         11.9010   16.9740    5.9750 N.am  206  VAL206     -0.1977
    110  CA        13.3120   16.7660    5.6570 C.3   206  VAL206      0.1596
    111  C         13.5940   15.2750    5.5230 C.2   206  VAL206      0.2287
    112  O         13.2570   14.4830    6.4110 O.2   206  VAL206     -0.2864
    113  CB        14.2380   17.4110    6.7070 C.3   206  VAL206      0.0276
    114  CG1       14.0800   16.7470    8.0640 C.3   206  VAL206      0.0022
    115  CG2       15.6830   17.3630    6.2480 C.3   206  VAL206      0.0022
    116  N         18.2980   15.6370    8.0620 N.3   209  ASP209     -0.1239
    117  CA        18.7010   16.9410    8.5810 C.3   209  ASP209      0.1674
    118  C         20.1950   16.9780    8.8800 C.2   209  ASP209      0.2266
    119  O         20.7580   16.0100    9.3950 O.2   209  ASP209     -0.2867
    120  CB        17.9150   17.2340    9.8580 C.3   209  ASP209      0.1410
    121  CG        17.9430   18.6930   10.2550 C.2   209  ASP209      0.3668
    122  OD1       18.0650   19.5640    9.3610 O.co2 209  ASP209     -0.2456
    123  OD2       17.7960   18.9590   11.4670 O.co2 209  ASP209     -0.2456
    124  N         21.7970   19.2210   11.0750 N.3   211  ALA211     -0.1231
    125  CA        22.0770   19.5120   12.4840 C.3   211  ALA211      0.1694
    126  C         20.7550   19.7870   13.1720 C.2   211  ALA211      0.2593
    127  O         20.0910   20.7750   12.8660 O.2   211  ALA211     -0.2718
    128  CB        23.0130   20.7050   12.6340 C.3   211  ALA211      0.0304
    129  N         20.3470   18.8800   14.0550 N.am  212  THR212     -0.1939
    130  CA        19.0840   19.0180   14.7610 C.3   212  THR212      0.2028
    131  C         19.4080   19.4860   16.1750 C.2   212  THR212      0.2643
    132  O         19.5390   18.6900   17.1060 O.2   212  THR212     -0.2714
    133  CB        18.3200   17.7070   14.7260 C.3   212  THR212      0.1808
    134  OG1       18.2930   17.2090   13.3780 O.3   212  THR212     -0.2208
    135  CG2       16.8950   17.9390   15.2060 C.3   212  THR212      0.0379
    136  N         19.5440   20.8070   16.3180 N.am  213  GLY213     -0.1939
    137  CA        19.9880   21.3810   17.5770 C.3   213  GLY213      0.2014
    138  C         19.0480   21.0950   18.7310 C.2   213  GLY213      0.2639
    139  O         19.5000   20.9070   19.8710 O.2   213  GLY213     -0.2714
    140  N         17.7410   21.0290   18.4630 N.am  214  SER214     -0.1949
    141  CA        16.8110   20.7320   19.5490 C.3   214  SER214      0.1924
    142  C         16.8260   19.2660   19.9520 C.2   214  SER214      0.2314
    143  O         16.2030   18.9230   20.9640 O.2   214  SER214     -0.2863
    144  CB        15.3850   21.1290   19.1790 C.3   214  SER214      0.2116
    145  OG        14.9290   20.4100   18.0690 O.3   214  SER214     -0.2180
@<TRIPOS>BOND
     1   108   107    2
     2   107   106    1
     3   107   109   am
     4     1     2    1
     5   111   110    1
     6   111   112    2
     7   110   109    1
     8   110   113    1
     9   106   105    1
    10   115   113    1
    11     2     5    1
    12     2     3    1
    13   113   114    1
    14    18    19    2
    15    18    17    1
    16     5     6    1
    17   105    95   am
    18     3     4    2
    19     3     7   am
    20     7     8    1
    21    21    20    1
    22    96    95    2
    23    17    20    1
    24    17    16    1
    25    10     9    2
    26   116   117    1
    27    95    94    1
    28    20    22    1
    29     9     8    1
    30   117   118    1
    31   117   120    1
    32     8    11    1
    33   118   119    2
    34   122   121   ar
    35    88    87    2
    36    94    93    1
    37    94    97    1
    38   120   121    1
    39    11    12    1
    40   121   123   ar
    41    87    86    1
    42    60    59   ar
    43    60    58   ar
    44    97    98    1
    45    14    13    2
    46    15    13   am
    47    13    12    1
    48    59    57   ar
    49   124   125    1
    50    91    92    1
    51    91    90    1
    52    85    86    1
    53    58    56   ar
    54    86    89    1
    55    98    99   ar
    56    98   100   ar
    57    57    56   ar
    58    99   101   ar
    59    89    90    1
    60   125   128    1
    61   125   126    1
    62    56    55    1
    63   127   126    2
    64   100   102   ar
    65    29    28    1
    66    66    65    1
    67    66    67    1
    68   126   129   am
    69    30    28    1
    70    28    27    1
    71   134   133    1
    72    65    62    1
    73   101   103   ar
    74    55    52    1
    75    62    61    1
    76    62    63    1
    77    23    24    1
    78   129   130    1
    79    67    61    1
    80    61    53   am
    81   102   103   ar
    82    54    53    2
    83    53    52    1
    84    27    24    1
    85   103   104    1
    86   133   130    1
    87   133   135    1
    88    64    63    2
    89   130   131    1
    90    24    25    1
    91    52    51    1
    92    46    43    1
    93    51    49   am
    94   131   136   am
    95   131   132    2
    96   136   137    1
    97    25    26    2
    98    83    81   ar
    99    83    84   ar
   100    43    44    1
   101    43    42    1
   102    49    50    2
   103    49    48    1
   104    81    80   ar
   105    44    47   am
   106    44    45    2
   107    47    48    1
   108   137   138    1
   109    34    33    2
   110    72    73    1
   111    72    69    1
   112    42    33   am
   113    84    82   ar
   114   145   144    1
   115    33    32    1
   116   140   138   am
   117   140   141    1
   118    73    74    1
   119    69    70    1
   120    69    68    1
   121    80    82   ar
   122    80    79    1
   123    31    32    1
   124   138   139    2
   125    76    79    1
   126    76    75    1
   127    76    77    1
   128    32    35    1
   129   144   141    1
   130    70    71    2
   131    74    68    1
   132    77    78    2
   133   141   142    1
   134   142   143    2
   135    35    36    1
   136    36    38   ar
   137    36    37   ar
   138    38    40   ar
   139    37    39   ar
   140    40    41   ar
   141    39    41   ar
