@<TRIPOS>MOLECULE
tmp/5iweA02.pdb
 77 72 0 0 0
SMALL
GASTEIGER

@<TRIPOS>ATOM
      1  N         24.3710   23.6430    9.2750 N.3    19  ASN19      -0.1226
      2  CA        22.9790   23.7210    8.8560 C.3    19  ASN19       0.1770
      3  C         22.5850   25.1850    8.6970 C.2    19  ASN19       0.2439
      4  O         22.6520   25.9460    9.6800 O.2    19  ASN19      -0.2733
      5  CB        22.1100   23.0250    9.8950 C.3    19  ASN19       0.1168
      6  CG        20.8200   22.5160    9.3260 C.2    19  ASN19       0.2627
      7  OD1       20.5280   22.7040    8.1470 O.2    19  ASN19      -0.2716
      8  ND2       20.0420   21.8400   10.1570 N.am   19  ASN19      -0.0877
      9  N         22.1700   25.6330    7.5050 N.am   20  PRO20      -0.2729
     10  CA        21.9320   27.0620    7.2960 C.3    20  PRO20       0.1401
     11  C         20.6450   27.5720    7.9210 C.2    20  PRO20       0.2269
     12  O         19.6370   26.8660    8.0260 O.2    20  PRO20      -0.2865
     13  CB        21.8600   27.2020    5.7670 C.3    20  PRO20       0.0296
     14  CG        22.3460   25.9250    5.2070 C.3    20  PRO20       0.0237
     15  CD        22.0980   24.8740    6.2420 C.3    20  PRO20       0.0939
     16  N         14.7710   28.2280    2.8510 N.3    44  LEU44      -0.1231
     17  CA        15.6260   27.5290    3.7990 C.3    44  LEU44       0.1693
     18  C         14.7690   26.8330    4.8440 C.2    44  LEU44       0.2592
     19  O         13.6290   27.2290    5.0960 O.2    44  LEU44      -0.2718
     20  CB        16.5950   28.4960    4.4660 C.3    44  LEU44       0.0284
     21  CG        17.6710   29.0620    3.5260 C.3    44  LEU44       0.0019
     22  CD1       18.3890   30.2160    4.2090 C.3    44  LEU44       0.0001
     23  CD2       18.6760   28.0210    3.1120 C.3    44  LEU44       0.0001
     24  N         15.3340   25.7970    5.4790 N.am   45  SER45      -0.1952
     25  CA        14.5390   25.0220    6.4320 C.3    45  SER45       0.1924
     26  C         13.9190   25.9370    7.4780 C.2    45  SER45       0.2314
     27  O         12.7610   25.7470    7.8770 O.2    45  SER45      -0.2863
     28  CB        15.3840   23.9370    7.1010 C.3    45  SER45       0.2116
     29  OG        16.3360   24.4900    7.9800 O.3    45  SER45      -0.2180
     30  N         11.9010   16.9740    5.9750 N.3   206  VAL206     -0.1245
     31  CA        13.3120   16.7660    5.6570 C.3   206  VAL206      0.1561
     32  C         13.5940   15.2750    5.5230 C.2   206  VAL206      0.2260
     33  O         13.2570   14.4830    6.4110 O.2   206  VAL206     -0.2867
     34  CB        14.2380   17.4110    6.7070 C.3   206  VAL206      0.0252
     35  CG1       14.0800   16.7470    8.0640 C.3   206  VAL206      0.0019
     36  CG2       15.6830   17.3630    6.2480 C.3   206  VAL206      0.0019
     37  N         16.7770   14.0890    5.3700 N.3   208  GLU208     -0.1231
     38  CA        17.7950   13.9420    6.4010 C.3   208  GLU208      0.1699
     39  C         18.3390   15.3210    6.7760 C.2   208  GLU208      0.2592
     40  O         18.7620   16.0920    5.9120 O.2   208  GLU208     -0.2718
     41  CB        18.9250   13.0080    5.9380 C.3   208  GLU208      0.0402
     42  CG        19.9280   12.7720    7.0490 C.3   208  GLU208      0.1161
     43  CD        20.9030   11.6390    6.7930 C.2   208  GLU208      0.3649
     44  OE1       20.7780   10.9400    5.7670 O.co2 208  GLU208     -0.2457
     45  OE2       21.7990   11.4520    7.6460 O.co2 208  GLU208     -0.2457
     46  N         18.2980   15.6370    8.0620 N.am  209  ASP209     -0.1960
     47  CA        18.7010   16.9410    8.5810 C.3   209  ASP209      0.1840
     48  C         20.1950   16.9780    8.8800 C.2   209  ASP209      0.2621
     49  O         20.7580   16.0100    9.3950 O.2   209  ASP209     -0.2715
     50  CB        17.9150   17.2340    9.8580 C.3   209  ASP209      0.1450
     51  CG        17.9430   18.6930   10.2550 C.2   209  ASP209      0.3671
     52  OD1       18.0650   19.5640    9.3610 O.co2 209  ASP209     -0.2456
     53  OD2       17.7960   18.9590   11.4670 O.co2 209  ASP209     -0.2456
     54  N         20.8350   18.1250    8.6030 N.am  210  ALA210     -0.1977
     55  CA        22.2710   18.2430    8.8880 C.3   210  ALA210      0.1597
     56  C         22.5570   18.3780   10.3740 C.2   210  ALA210      0.2287
     57  O         23.5120   17.7720   10.8780 O.2   210  ALA210     -0.2864
     58  CB        22.8950   19.4440    8.1730 C.3   210  ALA210      0.0319
     59  N         25.5110   12.9340    4.6140 N.3   243  ILE243     -0.1245
     60  CA        24.9630   13.8150    3.5890 C.3   243  ILE243      0.1561
     61  C         25.9050   14.9700    3.2530 C.2   243  ILE243      0.2260
     62  O         25.5190   15.8900    2.5160 O.2   243  ILE243     -0.2867
     63  CB        23.5690   14.3360    3.9880 C.3   243  ILE243      0.0252
     64  CG1       23.6450   15.2430    5.2210 C.3   243  ILE243      0.0019
     65  CG2       22.6320   13.1660    4.2570 C.3   243  ILE243      0.0019
     66  CD1       22.4270   16.1290    5.3980 C.3   243  ILE243      0.0001
     67  N         27.1750   17.3580    5.1950 N.3   245  ARG245     -0.1245
     68  CA        26.9550   18.5790    5.9760 C.3   245  ARG245      0.1563
     69  C         27.3640   18.3200    7.4200 C.2   245  ARG245      0.2260
     70  O         26.5390   18.4180    8.3330 O.2   245  ARG245     -0.2867
     71  CB        25.4930   19.0240    5.9270 C.3   245  ARG245      0.0307
     72  CG        24.9280   19.3890    4.5520 C.3   245  ARG245      0.0489
     73  CD        25.5040   20.6520    3.9510 C.3   245  ARG245      0.2205
     74  NE        25.4270   21.8320    4.8070 N.pl3 245  ARG245     -0.0865
     75  CZ        25.3540   23.0820    4.3550 C.cat 245  ARG245      0.5346
     76  NH1       25.2700   23.3300    3.0540 N.pl3 245  ARG245      0.1354
     77  NH2       25.3560   24.0810    5.2120 N.pl3 245  ARG245      0.1354
@<TRIPOS>BOND
     1    62    61    2
     2    16    17    1
     3    76    75    1
     4    23    21    1
     5    61    60    1
     6    21    22    1
     7    21    20    1
     8    60    63    1
     9    60    59    1
    10    17    20    1
    11    17    18    1
    12    73    72    1
    13    73    74    1
    14    63    65    1
    15    63    64    1
    16    75    74    2
    17    75    77    1
    18    72    71    1
    19    18    19    2
    20    18    24   am
    21    67    68    1
    22    14    13    1
    23    14    15    1
    24    64    66    1
    25    37    38    1
    26    24    25    1
    27    32    31    1
    28    32    33    2
    29    31    30    1
    30    31    34    1
    31    13    10    1
    32    44    43   ar
    33    40    39    2
    34    71    68    1
    35    41    38    1
    36    41    42    1
    37    68    69    1
    38    15     9    1
    39    36    34    1
    40    38    39    1
    41    25    28    1
    42    25    26    1
    43    34    35    1
    44    39    46   am
    45    43    42    1
    46    43    45   ar
    47    28    29    1
    48    10     9    1
    49    10    11    1
    50    69    70    2
    51    26    27    2
    52     9     3   am
    53    11    12    2
    54    46    47    1
    55     7     6    2
    56    58    55    1
    57    47    48    1
    58    47    50    1
    59    54    48   am
    60    54    55    1
    61     3     2    1
    62     3     4    2
    63     2     1    1
    64     2     5    1
    65    48    49    2
    66    55    56    1
    67     6     5    1
    68     6     8   am
    69    52    51   ar
    70    50    51    1
    71    51    53   ar
    72    56    57    2
