@<TRIPOS>MOLECULE
tmp/5iwgB00.pdb
 183 176 0 0 0
SMALL
GASTEIGER

@<TRIPOS>ATOM
      1  N         85.8770   48.5460  -22.4450 N.3    16  TYR16      -0.1241
      2  CA        86.3010   49.7740  -23.1530 C.3    16  TYR16       0.1605
      3  C         85.5200   51.0290  -22.7610 C.2    16  TYR16       0.2264
      4  O         86.0360   52.1410  -22.9390 O.2    16  TYR16      -0.2867
      5  CB        86.2470   49.5950  -24.6820 C.3    16  TYR16       0.0534
      6  CG        87.4820   48.9620  -25.2880 C.ar   16  TYR16      -0.0201
      7  CD1       87.8870   47.6730  -24.9210 C.ar   16  TYR16      -0.0009
      8  CD2       88.2550   49.6510  -26.2400 C.ar   16  TYR16      -0.0009
      9  CE1       89.0150   47.0840  -25.4880 C.ar   16  TYR16       0.0417
     10  CE2       89.3790   49.0720  -26.8160 C.ar   16  TYR16       0.0417
     11  CZ        89.7620   47.7940  -26.4370 C.ar   16  TYR16       0.1957
     12  OH        90.8730   47.2300  -27.0110 O.3    16  TYR16      -0.2866
     13  N         84.0140   47.5890  -29.3810 N.3    22  MET22      -0.1245
     14  CA        84.8740   46.4980  -28.8650 C.3    22  MET22       0.1570
     15  C         84.4140   45.9600  -27.5060 C.2    22  MET22       0.2261
     16  O         84.4640   46.6800  -26.5160 O.2    22  MET22      -0.2867
     17  CB        86.3520   46.9360  -28.7870 C.3    22  MET22       0.0387
     18  CG        87.3380   45.8480  -28.3570 C.3    22  MET22       0.0595
     19  SD        87.1010   44.2400  -29.1370 S.3    22  MET22      -0.1393
     20  CE        87.8210   44.5340  -30.7490 C.3    22  MET22       0.0692
     21  N         82.9530   39.0700  -25.8490 N.3    26  ARG26      -0.1245
     22  CA        82.8580   38.1550  -26.9970 C.3    26  ARG26       0.1563
     23  C         83.8360   36.9670  -26.9470 C.2    26  ARG26       0.2260
     24  O         83.5090   35.8930  -27.4340 O.2    26  ARG26      -0.2867
     25  CB        83.0240   38.9100  -28.3310 C.3    26  ARG26       0.0307
     26  CG        84.4540   39.3210  -28.6480 C.3    26  ARG26       0.0489
     27  CD        84.5700   40.5520  -29.5270 C.3    26  ARG26       0.2205
     28  NE        86.0030   40.7950  -29.6520 N.pl3  26  ARG26      -0.0865
     29  CZ        86.7330   40.8190  -30.7700 C.cat  26  ARG26       0.5346
     30  NH1       86.1930   40.7690  -31.9900 N.pl3  26  ARG26       0.1354
     31  NH2       88.0520   40.9580  -30.6580 N.pl3  26  ARG26       0.1354
     32  N         89.1310   56.7040  -29.6350 N.3    91  ASP91      -0.1239
     33  CA        88.7740   55.3430  -30.0890 C.3    91  ASP91       0.1674
     34  C         89.5990   54.2330  -29.4140 C.2    91  ASP91       0.2266
     35  O         89.1450   53.0970  -29.3580 O.2    91  ASP91      -0.2867
     36  CB        88.8810   55.2000  -31.6220 C.3    91  ASP91       0.1410
     37  CG        87.8160   55.9970  -32.3790 C.2    91  ASP91       0.3668
     38  OD1       87.2660   56.9840  -31.8390 O.co2  91  ASP91      -0.2456
     39  OD2       87.5360   55.6310  -33.5400 O.co2  91  ASP91      -0.2456
     40  N         95.1590   43.8670  -19.8060 N.3   101  PHE101     -0.1241
     41  CA        94.4400   43.4380  -21.0110 C.3   101  PHE101      0.1605
     42  C         95.3870   43.2400  -22.1980 C.2   101  PHE101      0.2264
     43  O         95.3180   42.2080  -22.8790 O.2   101  PHE101     -0.2867
     44  CB        93.3350   44.4470  -21.3480 C.3   101  PHE101      0.0534
     45  CG        92.5340   44.1000  -22.5680 C.ar  101  PHE101     -0.0203
     46  CD1       91.6800   42.9970  -22.5550 C.ar  101  PHE101     -0.0042
     47  CD2       92.6180   44.8770  -23.7350 C.ar  101  PHE101     -0.0042
     48  CE1       90.9240   42.6670  -23.6750 C.ar  101  PHE101     -0.0003
     49  CE2       91.8570   44.5530  -24.8590 C.ar  101  PHE101     -0.0003
     50  CZ        91.0090   43.4470  -24.8220 C.ar  101  PHE101     -0.0000
     51  N         96.2340   39.4530  -23.9300 N.3   105  SER105     -0.1217
     52  CA        96.0140   39.2570  -25.3780 C.3   105  SER105      0.1889
     53  C         97.3240   38.9290  -26.1040 C.2   105  SER105      0.2288
     54  O         97.3850   37.9800  -26.8840 O.2   105  SER105     -0.2866
     55  CB        95.3310   40.4770  -26.0000 C.3   105  SER105      0.2089
     56  OG        96.0970   41.6370  -25.7730 O.3   105  SER105     -0.2183
     57  N         91.7910   35.9710  -28.3710 N.3   128  ALA128     -0.1231
     58  CA        92.0030   37.3080  -27.7920 C.3   128  ALA128      0.1694
     59  C         92.9710   38.2060  -28.5680 C.2   128  ALA128      0.2593
     60  O         92.9510   39.4190  -28.3630 O.2   128  ALA128     -0.2718
     61  CB        92.4480   37.2090  -26.3410 C.3   128  ALA128      0.0304
     62  N         93.8240   37.6210  -29.4120 N.am  129  GLY129     -0.1942
     63  CA        94.8060   38.3500  -30.2130 C.3   129  GLY129      0.2014
     64  C         94.3080   38.8250  -31.5680 C.2   129  GLY129      0.2639
     65  O         93.1000   38.9580  -31.7970 O.2   129  GLY129     -0.2714
     66  N         95.2480   39.0600  -32.4780 N.am  130  GLY130     -0.1939
     67  CA        94.9770   39.6320  -33.7980 C.3   130  GLY130      0.2014
     68  C         94.8030   41.1400  -33.8860 C.2   130  GLY130      0.2639
     69  O         94.0640   41.6220  -34.7630 O.2   130  GLY130     -0.2714
     70  N         95.5350   41.8790  -33.0470 N.am  131  LEU131     -0.1963
     71  CA        95.3960   43.3490  -32.9190 C.3   131  LEU131      0.1728
     72  C         96.2700   44.0400  -33.9690 C.2   131  LEU131      0.2616
     73  O         97.2750   44.6910  -33.6720 O.2   131  LEU131     -0.2715
     74  CB        95.7280   43.8050  -31.4900 C.3   131  LEU131      0.0311
     75  CG        94.6690   43.5000  -30.4240 C.3   131  LEU131      0.0022
     76  CD1       94.5640   42.0250  -30.0630 C.3   131  LEU131      0.0001
     77  CD2       94.9440   44.3280  -29.1790 C.3   131  LEU131      0.0001
     78  N         95.8490   43.9010  -35.2200 N.am  132  HIS132     -0.1959
     79  CA        96.7090   44.2270  -36.3660 C.3   132  HIS132      0.1787
     80  C         96.9780   45.7170  -36.6620 C.2   132  HIS132      0.2620
     81  O         97.8800   46.0140  -37.4510 O.2   132  HIS132     -0.2715
     82  CB        96.2360   43.4810  -37.6150 C.3   132  HIS132      0.0785
     83  CG        94.9200   43.9220  -38.1570 C.ar  132  HIS132      0.0821
     84  ND1       94.4090   43.3950  -39.3180 N.ar  132  HIS132     -0.2267
     85  CD2       94.0090   44.8220  -37.7220 C.ar  132  HIS132      0.1154
     86  CE1       93.2460   43.9530  -39.5820 C.ar  132  HIS132      0.1986
     87  NE2       92.9770   44.8130  -38.6230 N.ar  132  HIS132     -0.2212
     88  N         96.2310   46.6310  -36.0280 N.am  133  HIS133     -0.1973
     89  CA        96.4060   48.0830  -36.2300 C.3   133  HIS133      0.1656
     90  C         97.4780   48.7510  -35.3680 C.2   133  HIS133      0.2291
     91  O         97.9320   49.8510  -35.7260 O.2   133  HIS133     -0.2864
     92  CB        95.0870   48.8270  -35.9990 C.3   133  HIS133      0.0771
     93  CG        94.0100   48.4840  -36.9770 C.ar  133  HIS133      0.0820
     94  ND1       94.2320   48.4170  -38.3340 N.ar  133  HIS133     -0.2267
     95  CD2       92.6910   48.2280  -36.7980 C.ar  133  HIS133      0.1154
     96  CE1       93.1050   48.1150  -38.9490 C.ar  133  HIS133      0.1986
     97  NE2       92.1560   48.0010  -38.0410 N.ar  133  HIS133     -0.2212
     98  N         92.8900   52.1140  -33.9360 N.3   141  GLY141     -0.1210
     99  CA        91.7910   51.2030  -34.2920 C.3   141  GLY141      0.1956
    100  C         91.4000   50.2110  -33.2130 C.2   141  GLY141      0.2612
    101  O         91.1650   49.0400  -33.5020 O.2   141  GLY141     -0.2717
    102  N         91.3790   50.6900  -31.9650 N.am  142  PHE142     -0.1962
    103  CA        91.0770   49.8940  -30.7530 C.3   142  PHE142      0.1771
    104  C         92.2320   48.9920  -30.2630 C.2   142  PHE142      0.2619
    105  O         92.0590   48.3030  -29.2560 O.2   142  PHE142     -0.2715
    106  CB        89.8010   49.0140  -30.8690 C.3   142  PHE142      0.0574
    107  CG        88.6030   49.6450  -31.5690 C.ar  142  PHE142     -0.0200
    108  CD1       88.3910   51.0230  -31.6250 C.ar  142  PHE142     -0.0042
    109  CD2       87.6200   48.8040  -32.1200 C.ar  142  PHE142     -0.0042
    110  CE1       87.2590   51.5550  -32.2480 C.ar  142  PHE142     -0.0003
    111  CE2       86.4780   49.3280  -32.7320 C.ar  142  PHE142     -0.0003
    112  CZ        86.3010   50.7020  -32.7940 C.ar  142  PHE142     -0.0000
    113  N         93.3880   49.0210  -30.9390 N.am  143  CYS143     -0.1968
    114  CA        94.5310   48.1440  -30.6810 C.3   143  CYS143      0.1712
    115  C         95.6370   48.9490  -30.0130 C.2   143  CYS143      0.2296
    116  O         95.9390   50.0580  -30.4590 O.2   143  CYS143     -0.2864
    117  CB        95.0910   47.5830  -31.9960 C.3   143  CYS143      0.0983
    118  SG        93.9300   46.6400  -33.0100 S.3   143  CYS143     -0.0798
    119  N         90.4110   39.7420  -41.7130 N.3   168  ASP168     -0.1239
    120  CA        89.7010   40.8960  -41.1390 C.3   168  ASP168      0.1674
    121  C         89.2000   41.7760  -42.2910 C.2   168  ASP168      0.2266
    122  O         89.8740   41.8780  -43.3170 O.2   168  ASP168     -0.2867
    123  CB        90.6850   41.7000  -40.2790 C.3   168  ASP168      0.1410
    124  CG        90.0260   42.6050  -39.3040 C.2   168  ASP168      0.3668
    125  OD1       89.6110   43.7040  -39.7290 O.co2 168  ASP168     -0.2456
    126  OD2       89.9710   42.2800  -38.0910 O.co2 168  ASP168     -0.2456
    127  N         89.3070   44.9310  -42.3380 N.3   170  HIS170     -0.1241
    128  CA        90.2630   46.0430  -42.4190 C.3   170  HIS170      0.1621
    129  C         91.6350   45.5700  -42.8790 C.2   170  HIS170      0.2264
    130  O         92.0270   44.4030  -42.6680 O.2   170  HIS170     -0.2867
    131  CB        90.3480   46.7960  -41.0880 C.3   170  HIS170      0.0745
    132  CG        89.0270   47.3190  -40.6170 C.ar  170  HIS170      0.0817
    133  ND1       88.1960   46.5830  -39.8130 N.ar  170  HIS170     -0.2268
    134  CD2       88.3840   48.4860  -40.8390 C.ar  170  HIS170      0.1154
    135  CE1       87.0850   47.2510  -39.5840 C.ar  170  HIS170      0.1986
    136  NE2       87.1800   48.4180  -40.1840 N.ar  170  HIS170     -0.2212
    137  N         88.5280   52.7530  -43.0240 N.3   197  PHE197     -0.1241
    138  CA        89.6570   52.6150  -42.1000 C.3   197  PHE197      0.1605
    139  C         90.5090   51.3910  -42.4830 C.2   197  PHE197      0.2264
    140  O         89.9440   50.3800  -42.8920 O.2   197  PHE197     -0.2867
    141  CB        89.1470   52.4610  -40.6600 C.3   197  PHE197      0.0534
    142  CG        90.2250   52.5440  -39.6230 C.ar  197  PHE197     -0.0203
    143  CD1       90.5890   53.7800  -39.0800 C.ar  197  PHE197     -0.0042
    144  CD2       90.8930   51.3890  -39.1760 C.ar  197  PHE197     -0.0042
    145  CE1       91.5900   53.8690  -38.1140 C.ar  197  PHE197     -0.0003
    146  CE2       91.8940   51.4820  -38.2100 C.ar  197  PHE197     -0.0003
    147  CZ        92.2420   52.7190  -37.6780 C.ar  197  PHE197     -0.0000
    148  N         84.9110   40.7050  -38.2640 N.3   256  ASP256     -0.1239
    149  CA        84.2210   41.8670  -38.8360 C.3   256  ASP256      0.1674
    150  C         83.9950   41.8170  -40.3570 C.2   256  ASP256      0.2266
    151  O         83.3490   42.7060  -40.8910 O.2   256  ASP256     -0.2867
    152  CB        84.8630   43.1990  -38.3960 C.3   256  ASP256      0.1410
    153  CG        86.3680   43.2720  -38.6450 C.2   256  ASP256      0.3668
    154  OD1       86.9550   42.3980  -39.3330 O.co2 256  ASP256     -0.2456
    155  OD2       86.9780   44.2060  -38.0930 O.co2 256  ASP256     -0.2456
    156  N         79.9640   47.0900  -37.7210 N.3   263  LEU263     -0.1245
    157  CA        80.8900   48.0230  -38.3840 C.3   263  LEU263      0.1561
    158  C         81.4260   47.5740  -39.7550 C.2   263  LEU263      0.2260
    159  O         82.1610   48.3390  -40.3940 O.2   263  LEU263     -0.2867
    160  CB        82.0700   48.2950  -37.4500 C.3   263  LEU263      0.0270
    161  CG        81.7540   48.7380  -36.0160 C.3   263  LEU263      0.0019
    162  CD1       83.0480   49.0120  -35.2750 C.3   263  LEU263      0.0001
    163  CD2       80.8550   49.9660  -35.9790 C.3   263  LEU263      0.0001
    164  N         90.6870   38.9920  -33.9790 N.3   292  GLY292     -0.1210
    165  CA        90.6670   40.2410  -34.7140 C.3   292  GLY292      0.1956
    166  C         89.4040   41.0010  -34.4190 C.2   292  GLY292      0.2612
    167  O         88.8380   40.8700  -33.3350 O.2   292  GLY292     -0.2717
    168  N         88.9330   41.7770  -35.3910 N.am  293  GLY293     -0.1956
    169  CA        87.6840   42.5090  -35.2190 C.3   293  GLY293      0.1869
    170  C         86.4590   41.6050  -35.1710 C.2   293  GLY293      0.2309
    171  O         86.5540   40.3860  -35.2810 O.2   293  GLY293     -0.2863
    172  N         82.0540   42.7550  -34.3000 N.3   295  TYR295     -0.1241
    173  CA        81.2280   43.6810  -33.5070 C.3   295  TYR295      0.1605
    174  C         79.7640   43.2610  -33.3320 C.2   295  TYR295      0.2264
    175  O         79.0740   43.8720  -32.5310 O.2   295  TYR295     -0.2867
    176  CB        81.3880   45.1070  -34.0770 C.3   295  TYR295      0.0534
    177  CG        82.8590   45.4410  -34.1200 C.ar  295  TYR295     -0.0201
    178  CD1       83.5500   45.6770  -32.9300 C.ar  295  TYR295     -0.0009
    179  CD2       83.6020   45.3590  -35.3150 C.ar  295  TYR295     -0.0009
    180  CE1       84.9150   45.8970  -32.9170 C.ar  295  TYR295      0.0417
    181  CE2       84.9790   45.5960  -35.3190 C.ar  295  TYR295      0.0417
    182  CZ        85.6310   45.8610  -34.1100 C.ar  295  TYR295      0.1957
    183  OH        86.9860   46.0480  -34.0480 O.3   295  TYR295     -0.2866
@<TRIPOS>BOND
     1   122   121    2
     2   137   138    1
     3   140   139    2
     4   129   130    2
     5   129   128    1
     6   139   138    1
     7   128   127    1
     8   128   131    1
     9   121   120    1
    10   138   141    1
    11   119   120    1
    12   120   123    1
    13   131   132    1
    14   151   150    2
    15   134   132   ar
    16   134   136   ar
    17   141   142    1
    18   132   133   ar
    19   159   158    2
    20   150   149    1
    21   123   124    1
    22   136   135   ar
    23   133   135   ar
    24   158   157    1
    25   125   124   ar
    26   142   144   ar
    27   142   143   ar
    28    86    84   ar
    29    86    87   ar
    30   154   153   ar
    31    84    83   ar
    32   124   126   ar
    33   144   146   ar
    34   143   145   ar
    35    96    94   ar
    36    96    97   ar
    37   149   152    1
    38   149   148    1
    39   153   152    1
    40   153   155   ar
    41    87    85   ar
    42   157   156    1
    43   157   160    1
    44    94    93   ar
    45   146   147   ar
    46    83    85   ar
    47    83    82    1
    48   145   147   ar
    49    97    95   ar
    50    82    79    1
    51    81    80    2
    52   160   161    1
    53    93    95   ar
    54    93    92    1
    55    80    79    1
    56    80    88   am
    57    79    78    1
    58    89    88    1
    59    89    92    1
    60    89    90    1
    61   161   163    1
    62   161   162    1
    63    91    90    2
    64   168   169    1
    65   168   166   am
    66   181   179   ar
    67   181   182   ar
    68   179   177   ar
    69   171   170    2
    70    78    72   am
    71   169   170    1
    72    69    68    2
    73   165   166    1
    74   165   164    1
    75   166   167    2
    76   172   173    1
    77    99    98    1
    78    99   100    1
    79   177   176    1
    80   177   178   ar
    81   182   183    1
    82   182   180   ar
    83   176   173    1
    84    72    73    2
    85    72    71    1
    86    68    67    1
    87    68    70   am
    88    67    66    1
    89    39    37   ar
    90   173   174    1
    91   101   100    2
    92   174   175    2
    93   100   102   am
    94    70    71    1
    95   118   117    1
    96   178   180   ar
    97    71    74    1
    98   112   111   ar
    99   112   110   ar
   100   111   109   ar
   101    66    64   am
   102    37    38   ar
   103    37    36    1
   104   110   108   ar
   105   109   107   ar
   106   117   114    1
   107    30    29    1
   108   102   103    1
   109    65    64    2
   110   108   107   ar
   111    36    33    1
   112   107   106    1
   113    64    63    1
   114    74    75    1
   115   113   114    1
   116   113   104   am
   117   106   103    1
   118    29    31    1
   119    29    28    2
   120   103   104    1
   121    20    19    1
   122   114   115    1
   123   116   115    2
   124    75    76    1
   125    75    77    1
   126   104   105    2
   127    63    62    1
   128    33    32    1
   129    33    34    1
   130    28    27    1
   131    27    26    1
   132    34    35    2
   133    62    59   am
   134    13    14    1
   135    19    18    1
   136    14    17    1
   137    14    15    1
   138    17    18    1
   139    26    25    1
   140    59    60    2
   141    59    58    1
   142    57    58    1
   143    25    22    1
   144    58    61    1
   145    15    16    2
   146    24    23    2
   147    12    11    1
   148    22    23    1
   149    22    21    1
   150    54    53    2
   151    10    11   ar
   152    10     8   ar
   153    11     9   ar
   154     8     6   ar
   155    53    52    1
   156    55    56    1
   157    55    52    1
   158     9     7   ar
   159    52    51    1
   160     6     7   ar
   161     6     5    1
   162    49    50   ar
   163    49    47   ar
   164    50    48   ar
   165     5     2    1
   166    47    45   ar
   167    48    46   ar
   168     2     3    1
   169     2     1    1
   170     4     3    2
   171    43    42    2
   172    45    46   ar
   173    45    44    1
   174    42    41    1
   175    44    41    1
   176    41    40    1
