@<TRIPOS>MOLECULE
tmp/5iwpA00.pdb
 151 142 0 0 0
SMALL
GASTEIGER

@<TRIPOS>ATOM
      1  N        -55.5500  -42.4410   21.3050 N.3     7  ARG7       -0.1245
      2  CA       -55.5550  -41.9710   22.6870 C.3     7  ARG7        0.1563
      3  C        -56.9660  -41.9350   23.2580 C.2     7  ARG7        0.2260
      4  O        -57.1510  -42.1430   24.4620 O.2     7  ARG7       -0.2867
      5  CB       -54.9050  -40.5920   22.7800 C.3     7  ARG7        0.0307
      6  CG       -55.5980  -39.5270   21.9570 C.3     7  ARG7        0.0489
      7  CD       -54.9090  -38.1910   22.1120 C.3     7  ARG7        0.2205
      8  NE       -54.8860  -37.7540   23.5030 N.pl3   7  ARG7       -0.0865
      9  CZ       -54.3070  -36.6330   23.9200 C.cat   7  ARG7        0.5346
     10  NH1      -53.7010  -35.8360   23.0490 N.pl3   7  ARG7        0.1354
     11  NH2      -54.3350  -36.3110   25.2070 N.pl3   7  ARG7        0.1354
     12  N        -57.4260  -43.9440   26.5990 N.3    11  ASN11      -0.1240
     13  CA       -58.0630  -43.4030   27.7940 C.3    11  ASN11       0.1653
     14  C        -59.2690  -44.2360   28.2020 C.2    11  ASN11       0.2266
     15  O        -59.5370  -44.3960   29.3980 O.2    11  ASN11      -0.2867
     16  CB       -58.4640  -41.9460   27.5660 C.3    11  ASN11       0.1155
     17  CG       -57.2800  -41.0020   27.6200 C.2    11  ASN11       0.2627
     18  OD1      -56.9850  -40.4190   28.6600 O.2    11  ASN11      -0.2716
     19  ND2      -56.5900  -40.8520   26.4970 N.am   11  ASN11      -0.0877
     20  N        -57.5820  -47.3650   29.4630 N.3    14  GLN14      -0.1231
     21  CA       -57.0330  -47.1550   30.7990 C.3    14  GLN14       0.1698
     22  C        -58.0940  -47.3900   31.8650 C.2    14  GLN14       0.2592
     23  O        -57.8960  -48.1890   32.7880 O.2    14  GLN14      -0.2718
     24  CB       -56.4500  -45.7470   30.9220 C.3    14  GLN14       0.0381
     25  CG       -55.7540  -45.4860   32.2530 C.3    14  GLN14       0.0905
     26  CD       -55.3020  -44.0460   32.4080 C.2    14  GLN14       0.2608
     27  OE1      -55.9150  -43.1290   31.8600 O.2    14  GLN14      -0.2717
     28  NE2      -54.2230  -43.8410   33.1550 N.am   14  GLN14      -0.0878
     29  N        -59.2390  -46.7120   31.7440 N.am   15  GLN15      -0.1979
     30  CA       -60.3250  -46.8970   32.7000 C.3    15  GLN15       0.1601
     31  C        -60.8320  -48.3330   32.7280 C.2    15  GLN15       0.2287
     32  O        -61.4560  -48.7370   33.7140 O.2    15  GLN15      -0.2864
     33  CB       -61.4740  -45.9400   32.3770 C.3    15  GLN15       0.0394
     34  CG       -61.0470  -44.4880   32.2390 C.3    15  GLN15       0.0908
     35  CD       -60.3340  -43.9660   33.4720 C.2    15  GLN15       0.2608
     36  OE1      -60.7770  -44.1840   34.6000 O.2    15  GLN15      -0.2717
     37  NE2      -59.2180  -43.2760   33.2610 N.am   15  GLN15      -0.0878
     38  N        -48.7380  -47.2360   33.9140 N.3    54  GLU54      -0.1245
     39  CA       -48.7840  -46.5160   35.1760 C.3    54  GLU54       0.1567
     40  C        -48.7940  -47.4920   36.3450 C.2    54  GLU54       0.2260
     41  O        -49.3160  -48.6060   36.2460 O.2    54  GLU54      -0.2867
     42  CB       -50.0160  -45.6100   35.2490 C.3    54  GLU54       0.0388
     43  CG       -51.3310  -46.3420   35.4800 C.3    54  GLU54       0.1160
     44  CD       -51.9680  -46.8390   34.1970 C.2    54  GLU54       0.3649
     45  OE1      -53.2130  -46.7900   34.0900 O.co2  54  GLU54      -0.2457
     46  OE2      -51.2270  -47.2740   33.2920 O.co2  54  GLU54      -0.2457
     47  N        -49.2450  -43.9520   40.4720 N.3    58  HIS58      -0.1226
     48  CA       -49.6140  -43.0160   39.4140 C.3    58  HIS58       0.1752
     49  C        -51.1160  -42.7670   39.4110 C.2    58  HIS58       0.2595
     50  O        -51.5680  -41.6180   39.3350 O.2    58  HIS58      -0.2718
     51  CB       -49.1540  -43.5490   38.0560 C.3    58  HIS58       0.0759
     52  CG       -47.6860  -43.3960   37.8050 C.ar   58  HIS58       0.0818
     53  ND1      -46.9520  -44.3260   37.1010 N.ar   58  HIS58      -0.2268
     54  CD2      -46.8190  -42.4150   38.1510 C.ar   58  HIS58       0.1154
     55  CE1      -45.6940  -43.9290   37.0310 C.ar   58  HIS58       0.1986
     56  NE2      -45.5860  -42.7720   37.6600 N.ar   58  HIS58      -0.2212
     57  N        -51.9070  -43.8380   39.4990 N.am   59  ILE59      -0.1980
     58  CA       -53.3560  -43.6920   39.5920 C.3    59  ILE59       0.1595
     59  C        -53.7320  -42.9660   40.8760 C.2    59  ILE59       0.2287
     60  O        -54.6160  -42.1000   40.8830 O.2    59  ILE59      -0.2864
     61  CB       -54.0350  -45.0690   39.4950 C.3    59  ILE59       0.0276
     62  CG1      -53.7760  -45.6830   38.1210 C.3    59  ILE59       0.0022
     63  CG2      -55.5270  -44.9540   39.7610 C.3    59  ILE59       0.0022
     64  CD1      -54.2130  -44.7950   36.9760 C.3    59  ILE59       0.0001
     65  N        -53.0130  -39.3390   40.0930 N.3    62  LEU62      -0.1245
     66  CA       -53.9440  -38.6960   39.1720 C.3    62  LEU62       0.1561
     67  C        -55.1420  -38.1350   39.9250 C.2    62  LEU62       0.2260
     68  O        -55.3770  -36.9210   39.9410 O.2    62  LEU62      -0.2867
     69  CB       -54.3970  -39.6990   38.1090 C.3    62  LEU62       0.0270
     70  CG       -55.4350  -39.2670   37.0700 C.3    62  LEU62       0.0019
     71  CD1      -54.8650  -38.1380   36.2250 C.3    62  LEU62       0.0001
     72  CD2      -55.9010  -40.4240   36.1950 C.3    62  LEU62       0.0001
     73  N        -43.8880  -43.5900   33.8920 N.3    84  MET84      -0.1245
     74  CA       -44.8440  -44.1970   32.9740 C.3    84  MET84       0.1570
     75  C        -44.0890  -44.8630   31.8290 C.2    84  MET84       0.2261
     76  O        -43.3920  -44.1890   31.0630 O.2    84  MET84      -0.2867
     77  CB       -45.8080  -43.1430   32.4340 C.3    84  MET84       0.0387
     78  CG       -46.4280  -42.2440   33.4880 C.3    84  MET84       0.0595
     79  SD       -47.9770  -42.8790   34.1460 S.3    84  MET84      -0.1393
     80  CE       -49.0400  -42.7420   32.7130 C.3    84  MET84       0.0692
     81  N        -46.8600  -41.2600   27.6900 N.3    89  TYR89      -0.1241
     82  CA       -46.4190  -40.5940   28.9110 C.3    89  TYR89       0.1605
     83  C        -44.9980  -40.9950   29.2910 C.2    89  TYR89       0.2264
     84  O        -44.6370  -40.9590   30.4700 O.2    89  TYR89      -0.2867
     85  CB       -47.3710  -40.8920   30.0710 C.3    89  TYR89       0.0534
     86  CG       -48.8210  -40.5810   29.7880 C.ar   89  TYR89      -0.0201
     87  CD1      -49.3670  -39.3510   30.1270 C.ar   89  TYR89      -0.0009
     88  CD2      -49.6470  -41.5210   29.1880 C.ar   89  TYR89      -0.0009
     89  CE1      -50.6960  -39.0650   29.8720 C.ar   89  TYR89       0.0417
     90  CE2      -50.9730  -41.2430   28.9270 C.ar   89  TYR89       0.0417
     91  CZ       -51.4930  -40.0160   29.2700 C.ar   89  TYR89       0.1957
     92  OH       -52.8150  -39.7410   29.0100 O.3    89  TYR89      -0.2866
     93  N        -42.9660  -39.5200   32.5570 N.3    92  GLN92      -0.1245
     94  CA       -43.7180  -38.8870   33.6320 C.3    92  GLN92       0.1566
     95  C        -43.6560  -39.7350   34.8970 C.2    92  GLN92       0.2260
     96  O        -43.9150  -40.9410   34.8640 O.2    92  GLN92      -0.2867
     97  CB       -45.1720  -38.6720   33.2170 C.3    92  GLN92       0.0367
     98  CG       -45.9820  -37.8800   34.2330 C.3    92  GLN92       0.0905
     99  CD       -47.4690  -37.9030   33.9480 C.2    92  GLN92       0.2608
    100  OE1      -48.0080  -38.9110   33.4930 O.2    92  GLN92      -0.2717
    101  NE2      -48.1400  -36.7890   34.2140 N.am   92  GLN92      -0.0878
    102  N        -47.4030  -35.6330   38.2870 N.3    97  ILE97      -0.1245
    103  CA       -48.8490  -35.5870   38.4650 C.3    97  ILE97       0.1561
    104  C        -49.2130  -34.8480   39.7440 C.2    97  ILE97       0.2260
    105  O        -50.2320  -34.1490   39.7970 O.2    97  ILE97      -0.2867
    106  CB       -49.4290  -37.0110   38.4540 C.3    97  ILE97       0.0252
    107  CG1      -48.8630  -37.8050   37.2760 C.3    97  ILE97       0.0019
    108  CG2      -50.9390  -36.9610   38.3750 C.3    97  ILE97       0.0019
    109  CD1      -49.3520  -39.2360   37.2100 C.3    97  ILE97       0.0001
    110  N        -47.8440  -36.9390   24.7960 N.3   125  VAL125     -0.1231
    111  CA       -48.9050  -36.0320   25.2280 C.3   125  VAL125      0.1692
    112  C        -48.2780  -34.7040   25.6170 C.2   125  VAL125      0.2592
    113  O        -48.8310  -33.6460   25.2880 O.2   125  VAL125     -0.2718
    114  CB       -49.8380  -36.7400   26.2300 C.3   125  VAL125      0.0266
    115  CG1      -50.5520  -37.9020   25.5620 C.3   125  VAL125      0.0020
    116  CG2      -49.0660  -37.2010   27.4610 C.3   125  VAL125      0.0020
    117  N        -47.1340  -34.7250   26.3010 N.am  126  PHE126     -0.1976
    118  CA       -46.4220  -33.5140   26.6790 C.3   126  PHE126      0.1639
    119  C        -45.7090  -32.7040   25.6060 C.2   126  PHE126      0.2290
    120  O        -45.0090  -31.7410   25.9360 O.2   126  PHE126     -0.2864
    121  CB       -45.4320  -33.8920   27.7830 C.3   126  PHE126      0.0560
    122  CG       -46.0350  -34.7130   28.8860 C.ar  126  PHE126     -0.0200
    123  CD1      -46.7940  -34.1170   29.8770 C.ar  126  PHE126     -0.0042
    124  CD2      -45.8340  -36.0800   28.9350 C.ar  126  PHE126     -0.0042
    125  CE1      -47.3470  -34.8710   30.8920 C.ar  126  PHE126     -0.0003
    126  CE2      -46.3840  -36.8400   29.9480 C.ar  126  PHE126     -0.0003
    127  CZ       -47.1410  -36.2350   30.9270 C.ar  126  PHE126     -0.0000
    128  N        -52.3710  -30.9600   21.5990 N.3   132  ASN132     -0.1225
    129  CA       -52.2170  -31.0570   23.0440 C.3   132  ASN132      0.1785
    130  C        -52.6730  -29.7430   23.6620 C.2   132  ASN132      0.2597
    131  O        -52.1480  -28.6780   23.3190 O.2   132  ASN132     -0.2718
    132  CB       -50.7700  -31.3680   23.4260 C.3   132  ASN132      0.1169
    133  CG       -50.3670  -32.7860   23.0730 C.2   132  ASN132      0.2627
    134  OD1      -51.2010  -33.6930   23.0500 O.2   132  ASN132     -0.2716
    135  ND2      -49.0840  -32.9860   22.7980 N.am  132  ASN132     -0.0877
    136  N        -53.6470  -29.8220   24.5720 N.am  133  LEU133     -0.1966
    137  CA       -54.2670  -28.6170   25.1120 C.3   133  LEU133      0.1728
    138  C        -53.3280  -27.8100   25.9980 C.2   133  LEU133      0.2616
    139  O        -53.5630  -26.6120   26.1910 O.2   133  LEU133     -0.2715
    140  CB       -55.5260  -28.9850   25.8950 C.3   133  LEU133      0.0311
    141  CG       -56.6650  -29.6170   25.0960 C.3   133  LEU133      0.0022
    142  CD1      -57.7790  -30.0580   26.0300 C.3   133  LEU133      0.0001
    143  CD2      -57.1910  -28.6450   24.0500 C.3   133  LEU133      0.0001
    144  N        -52.2830  -28.4270   26.5470 N.am  134  ILE134     -0.1977
    145  CA       -51.3340  -27.7330   27.4080 C.3   134  ILE134      0.1596
    146  C        -49.9180  -28.1220   27.0110 C.2   134  ILE134      0.2287
    147  O        -49.6650  -29.2370   26.5460 O.2   134  ILE134     -0.2864
    148  CB       -51.5670  -28.0370   28.9060 C.3   134  ILE134      0.0276
    149  CG1      -51.4950  -29.5430   29.1660 C.3   134  ILE134      0.0022
    150  CG2      -52.8970  -27.4650   29.3730 C.3   134  ILE134      0.0022
    151  CD1      -51.5920  -29.9130   30.6270 C.3   134  ILE134      0.0001
@<TRIPOS>BOND
     1     1     2    1
     2   128   129    1
     3     6     7    1
     4     6     5    1
     5     7     8    1
     6     2     5    1
     7     2     3    1
     8   135   133   am
     9   129   132    1
    10   129   130    1
    11    10     9    1
    12   134   133    2
    13   133   132    1
    14     3     4    2
    15   131   130    2
    16     8     9    2
    17   130   136   am
    18     9    11    1
    19   143   141    1
    20   136   137    1
    21   110   111    1
    22   141   140    1
    23   141   142    1
    24   137   140    1
    25   137   138    1
    26   111   112    1
    27   111   114    1
    28   113   112    2
    29   115   114    1
    30   119   120    2
    31   119   118    1
    32   112   117   am
    33   138   139    2
    34   138   144   am
    35   114   116    1
    36   117   118    1
    37    19    17   am
    38   147   146    2
    39   144   145    1
    40    12    13    1
    41   118   121    1
    42   146   145    1
    43   145   148    1
    44    16    17    1
    45    16    13    1
    46    17    18    2
    47    81    82    1
    48   121   122    1
    49    13    14    1
    50    14    15    2
    51   122   124   ar
    52   122   123   ar
    53   148   149    1
    54   148   150    1
    55    82    83    1
    56    82    85    1
    57    90    88   ar
    58    90    91   ar
    59   124   126   ar
    60    92    91    1
    61   149   151    1
    62    88    86   ar
    63    91    89   ar
    64    83    84    2
    65    20    21    1
    66    86    85    1
    67    86    87   ar
    68    89    87   ar
    69   123   125   ar
    70   126   127   ar
    71    21    24    1
    72    21    22    1
    73   125   127   ar
    74    24    25    1
    75    76    75    2
    76    29    22   am
    77    29    30    1
    78    75    74    1
    79    27    26    2
    80    22    23    2
    81    34    33    1
    82    34    35    1
    83    25    26    1
    84    33    30    1
    85    26    28   am
    86    77    74    1
    87    77    78    1
    88    93    94    1
    89    30    31    1
    90    80    79    1
    91    31    32    2
    92    74    73    1
    93    97    94    1
    94    97    98    1
    95    37    35   am
    96    46    44   ar
    97    35    36    2
    98    78    79    1
    99   100    99    2
   100    94    95    1
   101    38    39    1
   102    99   101   am
   103    99    98    1
   104    45    44   ar
   105    44    43    1
   106    96    95    2
   107    39    42    1
   108    39    40    1
   109    42    43    1
   110    72    70    1
   111    71    70    1
   112    41    40    2
   113    64    62    1
   114    55    53   ar
   115    55    56   ar
   116    70    69    1
   117    53    52   ar
   118   109   107    1
   119   107   106    1
   120    56    54   ar
   121    52    51    1
   122    52    54   ar
   123    51    48    1
   124    69    66    1
   125    62    61    1
   126   102   103    1
   127   108   106    1
   128   106   103    1
   129   103   104    1
   130    66    67    1
   131    66    65    1
   132    50    49    2
   133    49    48    1
   134    49    57   am
   135    48    47    1
   136    61    58    1
   137    61    63    1
   138    57    58    1
   139    58    59    1
   140   104   105    2
   141    67    68    2
   142    59    60    2
