@<TRIPOS>MOLECULE
tmp/5iwqB01.pdb
 106 102 0 0 0
SMALL
GASTEIGER

@<TRIPOS>ATOM
      1  N        -15.4820    9.5450   19.0860 N.3    36  ARG36      -0.1231
      2  CA       -15.2040    8.6380   20.2150 C.3    36  ARG36       0.1694
      3  C        -16.1530    7.4450   20.2150 C.2    36  ARG36       0.2593
      4  O        -17.3380    7.6650   20.0860 O.2    36  ARG36      -0.2718
      5  CB       -15.2150    9.4230   21.5310 C.3    36  ARG36       0.0321
      6  CG       -13.9870   10.3660   21.6470 C.3    36  ARG36       0.0489
      7  CD       -13.9810   11.2840   22.8700 C.3    36  ARG36       0.2205
      8  NE       -12.8290   12.2090   22.7980 N.pl3  36  ARG36      -0.0865
      9  CZ       -11.5390   11.8900   23.0120 C.cat  36  ARG36       0.5346
     10  NH1      -11.1290   10.6500   23.3370 N.pl3  36  ARG36       0.1354
     11  NH2      -10.6240   12.8550   22.9130 N.pl3  36  ARG36       0.1354
     12  N        -15.6670    6.2350   20.3930 N.am   37  GLY37      -0.1942
     13  CA       -16.5360    5.1030   20.4440 C.3    37  GLY37       0.2014
     14  C        -17.1110    4.9410   21.8390 C.2    37  GLY37       0.2635
     15  O        -16.8340    3.9870   22.4650 O.2    37  GLY37      -0.2714
     16  N        -17.8630    5.9340   22.3290 N.am   38  LYS38      -0.2030
     17  CA       -18.4460    5.9460   23.7010 C.3    38  LYS38       0.1282
     18  C        -19.9280    5.4630   23.4900 C.3    38  LYS38       0.2036
     19  O        -20.6060    5.9540   22.5080 O.3    38  LYS38      -0.2185
     20  CB       -18.4810    7.3520   24.2680 C.3    38  LYS38       0.0244
     21  CG       -17.1320    7.8460   24.7060 C.3    38  LYS38       0.0034
     22  CD       -17.0410    9.3140   24.7690 C.3    38  LYS38       0.0206
     23  CE       -17.5420    9.9380   26.0000 C.3    38  LYS38       0.1093
     24  NZ       -16.4210   10.8280   26.4840 N.3    38  LYS38      -0.1314
     25  N         -6.2080   -0.3150   16.3950 N.3   139  TYR139     -0.1227
     26  CA        -6.6510    0.4920   17.5220 C.3   139  TYR139      0.1736
     27  C         -5.5460    1.4140   18.0400 C.2   139  TYR139      0.2595
     28  O         -4.4780    0.9580   18.4310 O.2   139  TYR139     -0.2718
     29  CB        -7.0730   -0.4690   18.6180 C.3   139  TYR139      0.0548
     30  CG        -7.6240    0.1320   19.8600 C.ar  139  TYR139     -0.0200
     31  CD1       -8.3440    1.3570   19.8630 C.ar  139  TYR139     -0.0009
     32  CD2       -7.5540   -0.5800   21.0360 C.ar  139  TYR139     -0.0009
     33  CE1       -8.9390    1.8670   21.0170 C.ar  139  TYR139      0.0417
     34  CE2       -8.1420   -0.0700   22.1970 C.ar  139  TYR139      0.0417
     35  CZ        -8.7840    1.1400   22.1930 C.ar  139  TYR139      0.1957
     36  OH        -9.3540    1.5760   23.3720 O.3   139  TYR139     -0.2866
     37  N         -5.7950    2.7050   17.9780 N.am  140  ASP140     -0.1960
     38  CA        -4.8630    3.7190   18.3630 C.3   140  ASP140      0.1840
     39  C         -4.2900    3.6200   19.7810 C.2   140  ASP140      0.2621
     40  O         -3.0600    3.8430   19.9810 O.2   140  ASP140     -0.2715
     41  CB        -5.4230    5.1040   18.1100 C.3   140  ASP140      0.1450
     42  CG        -6.7120    5.3930   18.8670 C.2   140  ASP140      0.3671
     43  OD1       -7.4760    4.5130   19.3440 O.co2 140  ASP140     -0.2456
     44  OD2       -6.9950    6.5740   18.9230 O.co2 140  ASP140     -0.2456
     45  N         -5.1340    3.2290   20.7260 N.am  141  ARG141     -0.1977
     46  CA        -4.6880    3.0770   22.1230 C.3   141  ARG141      0.1597
     47  C         -3.7310    1.9070   22.3150 C.2   141  ARG141      0.2287
     48  O         -2.8300    2.0530   23.1010 O.2   141  ARG141     -0.2864
     49  CB        -5.8400    2.9920   23.0950 C.3   141  ARG141      0.0334
     50  CG        -6.6100    4.3260   23.0640 C.3   141  ARG141      0.0492
     51  CD        -7.5860    4.3010   24.1590 C.3   141  ARG141      0.2205
     52  NE        -8.4280    5.4620   24.1210 N.pl3 141  ARG141     -0.0865
     53  CZ        -8.2220    6.6260   24.7550 C.cat 141  ARG141      0.5346
     54  NH1       -7.1920    6.8100   25.5400 N.pl3 141  ARG141      0.1354
     55  NH2       -9.1430    7.5830   24.6460 N.pl3 141  ARG141      0.1354
     56  N        -11.4900   -3.2070   15.9250 N.3   188  ASN188     -0.1240
     57  CA       -11.4540   -1.7660   15.8790 C.3   188  ASN188      0.1653
     58  C        -10.3670   -1.3430   14.8550 C.2   188  ASN188      0.2266
     59  O         -9.1530   -1.5240   15.1330 O.2   188  ASN188     -0.2867
     60  CB       -11.1990   -1.2310   17.2970 C.3   188  ASN188      0.1155
     61  CG       -11.0780    0.2480   17.3660 C.2   188  ASN188      0.2627
     62  OD1      -10.9990    0.9500   16.3520 O.2   188  ASN188     -0.2716
     63  ND2      -11.0680    0.7620   18.5850 N.am  188  ASN188     -0.0877
     64  N        -14.7520   -6.7940   21.7920 N.3   220  TYR220     -0.1241
     65  CA       -16.0810   -6.8230   21.1720 C.3   220  TYR220      0.1605
     66  C        -16.6680   -8.2480   21.0920 C.2   220  TYR220      0.2264
     67  O        -17.5020   -8.5480   20.2170 O.2   220  TYR220     -0.2867
     68  CB       -16.0800   -6.0510   19.7860 C.3   220  TYR220      0.0534
     69  CG       -15.5970   -4.6420   19.9190 C.ar  220  TYR220     -0.0201
     70  CD1      -16.4610   -3.6550   20.3970 C.ar  220  TYR220     -0.0009
     71  CD2      -14.2580   -4.2870   19.6650 C.ar  220  TYR220     -0.0009
     72  CE1      -16.0070   -2.3700   20.6480 C.ar  220  TYR220      0.0417
     73  CE2      -13.8040   -2.9790   19.9040 C.ar  220  TYR220      0.0417
     74  CZ       -14.6960   -2.0340   20.3900 C.ar  220  TYR220      0.1957
     75  OH       -14.2900   -0.7620   20.6350 O.3   220  TYR220     -0.2866
     76  N        -18.3060   -1.5710   27.3770 N.3   256  LYS256     -0.1245
     77  CA       -19.4310   -1.2810   26.4220 C.3   256  LYS256      0.1561
     78  C        -20.5930   -2.2500   26.6160 C.2   256  LYS256      0.2260
     79  O        -21.3370   -2.6080   25.6430 O.2   256  LYS256     -0.2867
     80  CB       -18.9190   -1.2800   24.9420 C.3   256  LYS256      0.0271
     81  CG       -17.7220   -0.3600   24.7720 C.3   256  LYS256      0.0035
     82  CD       -17.2390   -0.2100   23.3530 C.3   256  LYS256      0.0206
     83  CE       -15.9960    0.6540   23.4130 C.3   256  LYS256      0.1093
     84  NZ       -15.8160    1.3890   22.1390 N.3   256  LYS256     -0.1314
     85  N        -17.4300    0.6930   15.1130 N.3   348  PHE348     -0.1241
     86  CA       -16.8700    1.5860   14.1260 C.3   348  PHE348      0.1605
     87  C        -17.1740    1.1740   12.7070 C.2   348  PHE348      0.2264
     88  O        -17.4650   -0.0110   12.4360 O.2   348  PHE348     -0.2867
     89  CB       -15.3280    1.7300   14.3110 C.3   348  PHE348      0.0534
     90  CG       -14.9400    2.0830   15.6700 C.ar  348  PHE348     -0.0203
     91  CD1      -14.9550    3.3750   16.0780 C.ar  348  PHE348     -0.0042
     92  CD2      -14.5760    1.0850   16.5990 C.ar  348  PHE348     -0.0042
     93  CE1      -14.6440    3.7120   17.3700 C.ar  348  PHE348     -0.0003
     94  CE2      -14.2950    1.4140   17.9070 C.ar  348  PHE348     -0.0003
     95  CZ       -14.2950    2.7340   18.2980 C.ar  348  PHE348     -0.0000
     96  N        -11.7630    6.7560   10.4330 N.3   391  ARG391     -0.1245
     97  CA       -12.5910    5.9200   11.2360 C.3   391  ARG391      0.1563
     98  C        -13.8340    6.7640   11.5800 C.2   391  ARG391      0.2260
     99  O        -13.7520    7.9440   11.8390 O.2   391  ARG391     -0.2867
    100  CB       -11.8190    5.5250   12.4650 C.3   391  ARG391      0.0307
    101  CG       -12.6000    4.6080   13.3750 C.3   391  ARG391      0.0489
    102  CD       -11.7980    4.3120   14.6030 C.3   391  ARG391      0.2205
    103  NE       -12.1340    5.2950   15.6070 N.pl3 391  ARG391     -0.0865
    104  CZ       -11.8160    5.1890   16.8880 C.cat 391  ARG391      0.5346
    105  NH1      -11.0150    4.1940   17.2870 N.pl3 391  ARG391      0.1354
    106  NH2      -12.2090    6.1300   17.7460 N.pl3 391  ARG391      0.1354
@<TRIPOS>BOND
     1    96    97    1
     2    97    98    1
     3    97   100    1
     4    98    99    2
     5    88    87    2
     6   100   101    1
     7    87    86    1
     8   101   102    1
     9    86    89    1
    10    86    85    1
    11    89    90    1
    12   102   103    1
    13    58    59    2
    14    58    57    1
    15   103   104    2
    16    90    91   ar
    17    90    92   ar
    18    57    56    1
    19    57    60    1
    20    91    93   ar
    21    62    61    2
    22    25    26    1
    23    92    94   ar
    24   104   105    1
    25   104   106    1
    26    60    61    1
    27    61    63   am
    28    93    95   ar
    29    26    27    1
    30    26    29    1
    31    94    95   ar
    32    37    27   am
    33    37    38    1
    34    27    28    2
    35    41    38    1
    36    41    42    1
    37    38    39    1
    38    29    30    1
    39    42    44   ar
    40    42    43   ar
    41     1     2    1
    42    71    73   ar
    43    71    69   ar
    44    39    40    2
    45    39    45   am
    46    68    69    1
    47    68    65    1
    48    30    31   ar
    49    30    32   ar
    50    31    33   ar
    51    73    74   ar
    52    69    70   ar
    53     4     3    2
    54     2     3    1
    55     2     5    1
    56     3    12   am
    57    67    66    2
    58    74    75    1
    59    74    72   ar
    60    12    13    1
    61    70    72   ar
    62    13    14    1
    63    45    46    1
    64    33    35   ar
    65    32    34   ar
    66    66    65    1
    67    65    64    1
    68     5     6    1
    69     6     7    1
    70    14    16   am
    71    14    15    2
    72    46    47    1
    73    46    49    1
    74    84    83    1
    75    35    34   ar
    76    35    36    1
    77    47    48    2
    78    16    17    1
    79    19    18    1
    80     8     7    1
    81     8     9    2
    82    11     9    1
    83     9    10    1
    84    50    49    1
    85    50    51    1
    86    82    83    1
    87    82    81    1
    88    18    17    1
    89    17    20    1
    90    52    51    1
    91    52    53    2
    92    20    21    1
    93    55    53    1
    94    21    22    1
    95    53    54    1
    96    22    23    1
    97    81    80    1
    98    80    77    1
    99    79    78    2
   100    23    24    1
   101    77    78    1
   102    77    76    1
