@<TRIPOS>MOLECULE
tmp/5iwyA00.pdb
 83 80 0 0 0
SMALL
GASTEIGER

@<TRIPOS>ATOM
      1  N         18.5690   10.9580   31.6380 N.3   101  ALA101     -0.1231
      2  CA        18.6160   11.6880   32.9090 C.3   101  ALA101      0.1694
      3  C         18.0190   10.8530   34.0260 C.2   101  ALA101      0.2591
      4  O         16.9540   10.2580   33.8230 O.2   101  ALA101     -0.2718
      5  CB        17.8350   12.9730   32.7840 C.3   101  ALA101      0.0304
      6  N         18.6660   10.8400   35.2020 N.am  102  GLN102     -0.1979
      7  CA        18.1140   10.1330   36.3380 C.3   102  GLN102      0.1601
      8  C         16.9090   10.9050   36.8610 C.2   102  GLN102      0.2287
      9  O         15.8580   10.3150   37.1490 O.2   102  GLN102     -0.2864
     10  CB        19.1530    9.9180   37.4470 C.3   102  GLN102      0.0394
     11  CG        18.7020    8.9110   38.4980 C.3   102  GLN102      0.0908
     12  CD        18.5180    7.5120   37.9340 C.2   102  GLN102      0.2608
     13  OE1       19.3400    7.0010   37.1430 O.2   102  GLN102     -0.2717
     14  NE2       17.4350    6.8780   38.3310 N.am  102  GLN102     -0.0878
     15  N         15.2180   15.4100   36.5610 N.3   104  PRO104     -0.2102
     16  CA        13.8220   15.1020   36.9160 C.3   104  PRO104      0.1504
     17  C         13.1040   14.2260   35.9240 C.2   104  PRO104      0.2576
     18  O         13.6520   13.8840   34.8730 O.2   104  PRO104     -0.2718
     19  CB        13.1600   16.4780   36.9430 C.3   104  PRO104      0.0282
     20  CG        14.0050   17.3160   36.0450 C.3   104  PRO104      0.0208
     21  CD        15.4090   16.8390   36.2810 C.3   104  PRO104      0.0893
     22  N         11.8960   13.8410   36.3070 N.am  105  LYS105     -0.1966
     23  CA        10.9350   13.1610   35.4520 C.3   105  LYS105      0.1728
     24  C         10.6060   14.0910   34.2820 C.2   105  LYS105      0.2616
     25  O         10.2130   15.2190   34.4870 O.2   105  LYS105     -0.2715
     26  CB         9.6620   12.8530   36.2560 C.3   105  LYS105      0.0311
     27  CG         8.6080   12.0500   35.5290 C.3   105  LYS105      0.0038
     28  CD         9.0030   10.5900   35.3970 C.3   105  LYS105      0.0206
     29  CE         7.9250    9.7750   34.6880 C.3   105  LYS105      0.1093
     30  NZ         8.3860    8.3830   34.4300 N.3   105  LYS105     -0.1314
     31  N         10.8660   13.6370   33.0660 N.am  106  MET106     -0.1963
     32  CA        10.7370   14.4910   31.8950 C.3   106  MET106      0.1736
     33  C          9.3300   14.4970   31.3400 C.2   106  MET106      0.2616
     34  O          8.8770   15.5210   30.8380 O.2   106  MET106     -0.2715
     35  CB        11.7290   14.0540   30.7990 C.3   106  MET106      0.0427
     36  CG        13.1720   14.2640   31.1920 C.3   106  MET106      0.0599
     37  SD        13.5970   15.9900   31.3870 S.3   106  MET106     -0.1393
     38  CE        14.9780   15.8040   32.4770 C.3   106  MET106      0.0692
     39  N          8.6760   13.3450   31.4530 N.am  107  LEU107     -0.1977
     40  CA         7.3370   13.0460   30.9460 C.3   107  LEU107      0.1596
     41  C          6.3050   14.1850   30.8650 C.2   107  LEU107      0.2287
     42  O          5.6700   14.3330   29.8230 O.2   107  LEU107     -0.2864
     43  CB         6.7470   11.8870   31.7670 C.3   107  LEU107      0.0297
     44  CG         5.3050   11.5040   31.4730 C.3   107  LEU107      0.0022
     45  CD1        5.2690   10.7090   30.1670 C.3   107  LEU107      0.0001
     46  CD2        4.7120   10.7270   32.6410 C.3   107  LEU107      0.0001
     47  N         11.7720   11.0720   23.8750 N.3   131  LYS131     -0.1231
     48  CA        11.5980   10.2090   24.9920 C.3   131  LYS131      0.1693
     49  C         12.6810   10.4010   26.0240 C.2   131  LYS131      0.2592
     50  O         13.6590   11.1200   25.7770 O.2   131  LYS131     -0.2718
     51  CB        11.5100    8.7610   24.5600 C.3   131  LYS131      0.0285
     52  CG        12.5260    8.2040   23.6120 C.3   131  LYS131      0.0035
     53  CD        11.8550    7.3170   22.5440 C.3   131  LYS131      0.0206
     54  CE        12.8470    6.4170   21.8010 C.3   131  LYS131      0.1093
     55  NZ        13.8550    7.2590   21.1190 N.3   131  LYS131     -0.1314
     56  N         12.4730    9.7870   27.1840 N.am  132  ALA132     -0.1966
     57  CA        13.4500    9.8590   28.2940 C.3   132  ALA132      0.1728
     58  C         13.7220    8.4770   28.8470 C.2   132  ALA132      0.2617
     59  O         12.8590    7.5960   28.7260 O.2   132  ALA132     -0.2715
     60  CB        12.9290   10.7900   29.3510 C.3   132  ALA132      0.0334
     61  N         14.9530    8.2290   29.3270 N.am  133  THR133     -0.1937
     62  CA        15.2930    6.9850   30.0580 C.3   133  THR133      0.2028
     63  C         16.3140    7.3870   31.1290 C.2   133  THR133      0.2642
     64  O         16.9750    8.4000   31.0120 O.2   133  THR133     -0.2714
     65  CB        15.8310    5.8140   29.1610 C.3   133  THR133      0.1808
     66  OG1       15.9890    4.5850   29.9230 O.3   133  THR133     -0.2208
     67  CG2       17.1770    6.1500   28.5020 C.3   133  THR133      0.0379
     68  N         16.3430    6.6480   32.2210 N.am  134  THR134     -0.1950
     69  CA        17.3800    6.8050   33.2480 C.3   134  THR134      0.1897
     70  C         18.4060    5.7610   32.8490 C.2   134  THR134      0.2313
     71  O         18.1970    4.9930   31.9050 O.2   134  THR134     -0.2863
     72  CB        16.8460    6.4780   34.6620 C.3   134  THR134      0.1794
     73  OG1       16.5360    5.0860   34.7430 O.3   134  THR134     -0.2208
     74  CG2       15.5830    7.2350   34.9760 C.3   134  THR134      0.0378
     75  N         19.3660    3.7480   35.4160 N.3   136  GLU136     -0.1245
     76  CA        19.1420    2.8930   36.5750 C.3   136  GLU136      0.1567
     77  C         20.2240    3.1090   37.6040 C.2   136  GLU136      0.2260
     78  O         20.8360    2.1540   38.0630 O.2   136  GLU136     -0.2867
     79  CB        19.1010    1.4290   36.1290 C.3   136  GLU136      0.0388
     80  CG        18.0070    1.1180   35.1220 C.3   136  GLU136      0.1160
     81  CD        16.6040    1.2810   35.6970 C.2   136  GLU136      0.3649
     82  OE1       16.4190    1.2570   36.9630 O.co2 136  GLU136     -0.2457
     83  OE2       15.6770    1.4480   34.8740 O.co2 136  GLU136     -0.2457
@<TRIPOS>BOND
     1    55    54    1
     2    54    53    1
     3    53    52    1
     4    52    51    1
     5    47    48    1
     6    51    48    1
     7    48    49    1
     8    50    49    2
     9    49    56   am
    10    56    57    1
    11    57    58    1
    12    57    60    1
    13    67    65    1
    14    59    58    2
    15    58    61   am
    16    65    66    1
    17    65    62    1
    18    61    62    1
    19    42    41    2
    20    62    63    1
    21    45    44    1
    22    35    36    1
    23    35    32    1
    24    34    33    2
    25    41    40    1
    26    40    39    1
    27    40    43    1
    28    64    63    2
    29    63    68   am
    30    36    37    1
    31    33    39   am
    32    33    32    1
    33    37    38    1
    34    44    43    1
    35    44    46    1
    36     1     2    1
    37    32    31    1
    38    71    70    2
    39    68    69    1
    40     5     2    1
    41    70    69    1
    42     2     3    1
    43    31    24   am
    44    69    72    1
    45     4     3    2
    46     3     6   am
    47    24    25    2
    48    24    23    1
    49    30    29    1
    50    72    73    1
    51    72    74    1
    52    29    28    1
    53    18    17    2
    54    83    81   ar
    55    80    81    1
    56    80    79    1
    57     6     7    1
    58    28    27    1
    59    75    76    1
    60    23    26    1
    61    23    22    1
    62    27    26    1
    63    81    82   ar
    64    17    22   am
    65    17    16    1
    66    20    21    1
    67    20    19    1
    68    79    76    1
    69    21    15    1
    70     7     8    1
    71     7    10    1
    72    15    16    1
    73    76    77    1
    74     8     9    2
    75    16    19    1
    76    13    12    2
    77    10    11    1
    78    77    78    2
    79    12    14   am
    80    12    11    1
