@<TRIPOS>MOLECULE
tmp/5ix0B07.pdb
 95 93 0 0 0
SMALL
GASTEIGER

@<TRIPOS>ATOM
      1  N        112.7950   30.7100  -41.3720 N.3   160  GLN160     -0.1231
      2  CA       113.3660   31.6570  -42.3390 C.3   160  GLN160      0.1698
      3  C        112.2940   32.5290  -43.0110 C.2   160  GLN160      0.2592
      4  O        112.5010   33.7360  -43.1890 O.2   160  GLN160     -0.2718
      5  CB       114.1870   30.9120  -43.4090 C.3   160  GLN160      0.0381
      6  CG       114.9510   31.7920  -44.3980 C.3   160  GLN160      0.0905
      7  CD       115.9280   32.7480  -43.7280 C.2   160  GLN160      0.2608
      8  OE1      116.5960   32.3870  -42.7590 O.2   160  GLN160     -0.2717
      9  NE2      116.0140   33.9730  -44.2400 N.am  160  GLN160     -0.0878
     10  N        111.1700   31.9040  -43.3720 N.am  161  ARG161     -0.1980
     11  CA       110.0510   32.5620  -44.0390 C.3   161  ARG161      0.1597
     12  C        108.7400   32.2640  -43.3010 C.2   161  ARG161      0.2287
     13  O        108.4010   31.0970  -43.0850 O.2   161  ARG161     -0.2864
     14  CB       109.9810   32.0820  -45.4820 C.3   161  ARG161      0.0334
     15  CG       111.1380   32.5950  -46.3320 C.3   161  ARG161      0.0492
     16  CD       111.0350   32.1580  -47.7870 C.3   161  ARG161      0.2205
     17  NE       110.9390   30.7060  -47.9170 N.pl3 161  ARG161     -0.0865
     18  CZ       111.9420   29.8320  -47.7640 C.cat 161  ARG161      0.5346
     19  NH1      113.1930   30.2250  -47.4790 N.pl3 161  ARG161      0.1354
     20  NH2      111.6870   28.5260  -47.9030 N.pl3 161  ARG161      0.1354
     21  N        111.8670   40.3470  -46.8000 N.3   183  ASP183     -0.1225
     22  CA       111.3720   39.1360  -47.4860 C.3   183  ASP183      0.1805
     23  C        111.1600   37.9400  -46.5440 C.2   183  ASP183      0.2597
     24  O        110.7000   36.8920  -46.9880 O.2   183  ASP183     -0.2718
     25  CB       112.2950   38.7380  -48.6630 C.3   183  ASP183      0.1424
     26  CG       113.7510   38.4830  -48.2480 C.2   183  ASP183      0.3668
     27  OD1      114.1320   38.7830  -47.0920 O.co2 183  ASP183     -0.2456
     28  OD2      114.5300   38.0150  -49.1020 O.co2 183  ASP183     -0.2456
     29  N        111.4980   38.0900  -45.2610 N.am  184  ARG184     -0.1979
     30  CA       111.3100   37.0250  -44.2670 C.3   184  ARG184      0.1597
     31  C        109.8870   36.8930  -43.7360 C.2   184  ARG184      0.2287
     32  O        109.5790   35.9020  -43.0720 O.2   184  ARG184     -0.2864
     33  CB       112.2920   37.2070  -43.1200 C.3   184  ARG184      0.0334
     34  CG       113.7360   37.0050  -43.5740 C.3   184  ARG184      0.0492
     35  CD       114.6620   36.7630  -42.4020 C.3   184  ARG184      0.2205
     36  NE       114.1990   35.6220  -41.6120 N.pl3 184  ARG184     -0.0865
     37  CZ       114.4590   35.3970  -40.3200 C.cat 184  ARG184      0.5346
     38  NH1      115.2450   36.2090  -39.5980 N.pl3 184  ARG184      0.1354
     39  NH2      113.9280   34.3210  -39.7410 N.pl3 184  ARG184      0.1354
     40  N        106.7980   41.1920  -51.4110 N.3   214  TYR214     -0.1241
     41  CA       106.4460   40.4140  -50.2020 C.3   214  TYR214      0.1605
     42  C        105.3370   41.0620  -49.3520 C.2   214  TYR214      0.2264
     43  O        105.1670   40.7100  -48.1880 O.2   214  TYR214     -0.2867
     44  CB       107.7140   40.1250  -49.3790 C.3   214  TYR214      0.0534
     45  CG       108.7090   39.2950  -50.1540 C.ar  214  TYR214     -0.0201
     46  CD1      109.6700   39.9010  -50.9780 C.ar  214  TYR214     -0.0009
     47  CD2      108.6770   37.8950  -50.0960 C.ar  214  TYR214     -0.0009
     48  CE1      110.5790   39.1380  -51.7110 C.ar  214  TYR214      0.0417
     49  CE2      109.5800   37.1250  -50.8230 C.ar  214  TYR214      0.0417
     50  CZ       110.5300   37.7450  -51.6260 C.ar  214  TYR214      0.1957
     51  OH       111.4160   36.9780  -52.3390 O.3   214  TYR214     -0.2866
     52  N        105.1080   29.8580  -54.5310 N.3   243  MET243     -0.1230
     53  CA       106.1880   30.8190  -54.8070 C.3   243  MET243      0.1702
     54  C        107.0330   31.1520  -53.5830 C.2   243  MET243      0.2592
     55  O        108.2630   31.2150  -53.6880 O.2   243  MET243     -0.2718
     56  CB       105.6290   32.1210  -55.4060 C.3   243  MET243      0.0401
     57  CG       104.9180   31.9730  -56.7500 C.3   243  MET243      0.0596
     58  SD       105.8390   31.0930  -58.0200 S.3   243  MET243     -0.1393
     59  CE       107.3030   32.1150  -58.1440 C.3   243  MET243      0.0692
     60  N        106.3790   31.3770  -52.4440 N.am  244  TYR244     -0.1962
     61  CA       107.0590   31.8280  -51.2200 C.3   244  TYR244      0.1771
     62  C        107.6320   30.6940  -50.3700 C.2   244  TYR244      0.2619
     63  O        108.6880   30.8680  -49.7530 O.2   244  TYR244     -0.2715
     64  CB       106.1200   32.7050  -50.3830 C.3   244  TYR244      0.0574
     65  CG       106.7910   33.4020  -49.2260 C.ar  244  TYR244     -0.0198
     66  CD1      107.9130   34.2120  -49.4340 C.ar  244  TYR244     -0.0009
     67  CD2      106.3120   33.2570  -47.9140 C.ar  244  TYR244     -0.0009
     68  CE1      108.5420   34.8520  -48.3790 C.ar  244  TYR244      0.0417
     69  CE2      106.9370   33.9020  -46.8500 C.ar  244  TYR244      0.0417
     70  CZ       108.0470   34.6980  -47.0910 C.ar  244  TYR244      0.1957
     71  OH       108.6770   35.3260  -46.0550 O.3   244  TYR244     -0.2866
     72  N        106.9330   29.5570  -50.3310 N.am  245  GLN245     -0.1977
     73  CA       107.3410   28.3620  -49.5760 C.3   245  GLN245      0.1601
     74  C        107.6590   28.6580  -48.0910 C.2   245  GLN245      0.2287
     75  O        108.7930   28.4390  -47.6400 O.2   245  GLN245     -0.2864
     76  CB       108.5130   27.6580  -50.2760 C.3   245  GLN245      0.0394
     77  CG       108.1960   27.1900  -51.6900 C.3   245  GLN245      0.0908
     78  CD       109.2140   26.2000  -52.2280 C.2   245  GLN245      0.2608
     79  OE1      108.8530   25.1330  -52.7250 O.2   245  GLN245     -0.2717
     80  NE2      110.4930   26.5440  -52.1260 N.am  245  GLN245     -0.0878
     81  N        108.6560   36.7250  -57.6930 N.3   365  LEU365     -0.1231
     82  CA       109.4810   36.0170  -56.6780 C.3   365  LEU365      0.1678
     83  C        110.4760   35.0270  -57.3320 C.2   365  LEU365      0.2434
     84  O        110.1810   34.4900  -58.4080 O.2   365  LEU365     -0.2733
     85  CB       108.6230   35.2730  -55.6330 C.3   365  LEU365      0.0284
     86  CG       108.2630   36.0750  -54.3800 C.3   365  LEU365      0.0019
     87  CD1      107.3370   37.2250  -54.7340 C.3   365  LEU365      0.0001
     88  CD2      107.6360   35.1780  -53.3210 C.3   365  LEU365      0.0001
     89  N        111.6350   34.7700  -56.6750 N.am  366  PRO366     -0.2729
     90  CA       112.6630   33.9000  -57.2640 C.3   366  PRO366      0.1401
     91  C        112.3110   32.4120  -57.1740 C.2   366  PRO366      0.2269
     92  O        111.8590   31.9420  -56.1280 O.2   366  PRO366     -0.2865
     93  CB       113.9030   34.2210  -56.4270 C.3   366  PRO366      0.0296
     94  CG       113.3590   34.5590  -55.0860 C.3   366  PRO366      0.0237
     95  CD       112.0210   35.2060  -55.3160 C.3   366  PRO366      0.0939
@<TRIPOS>BOND
     1    84    83    2
     2    59    58    1
     3    58    57    1
     4    81    82    1
     5    83    82    1
     6    83    89   am
     7    90    91    1
     8    90    89    1
     9    90    93    1
    10    91    92    2
    11    57    56    1
    12    82    85    1
    13    89    95    1
    14    93    94    1
    15    85    86    1
    16    56    53    1
    17    95    94    1
    18    53    52    1
    19    53    54    1
    20    87    86    1
    21    86    88    1
    22    55    54    2
    23    54    60   am
    24    79    78    2
    25    60    61    1
    26    51    50    1
    27    78    80   am
    28    78    77    1
    29    48    50   ar
    30    48    46   ar
    31    77    76    1
    32    50    49   ar
    33    40    41    1
    34    61    64    1
    35    61    62    1
    36    46    45   ar
    37    49    47   ar
    38    64    65    1
    39    62    72   am
    40    62    63    2
    41    72    73    1
    42    76    73    1
    43    41    44    1
    44    41    42    1
    45    45    47   ar
    46    45    44    1
    47    73    74    1
    48    66    65   ar
    49    66    68   ar
    50    42    43    2
    51    65    67   ar
    52    28    26   ar
    53    25    26    1
    54    25    22    1
    55    68    70   ar
    56    26    27   ar
    57    74    75    2
    58    17    16    1
    59    17    18    2
    60    67    69   ar
    61    20    18    1
    62    16    15    1
    63    18    19    1
    64    22    21    1
    65    22    23    1
    66    70    69   ar
    67    70    71    1
    68    24    23    2
    69    23    29   am
    70    15    14    1
    71    14    11    1
    72    29    30    1
    73     6     7    1
    74     6     5    1
    75    30    31    1
    76    30    33    1
    77     9     7   am
    78    11    10    1
    79    11    12    1
    80    31    32    2
    81     7     8    2
    82    34    33    1
    83    34    35    1
    84     5     2    1
    85    10     3   am
    86    12    13    2
    87     4     3    2
    88     3     2    1
    89    35    36    1
    90     2     1    1
    91    36    37    2
    92    37    39    1
    93    37    38    1
