@<TRIPOS>MOLECULE
tmp/5ix0B09.pdb
 87 83 0 0 0
SMALL
GASTEIGER

@<TRIPOS>ATOM
      1  N         96.3680   15.4660  -35.6270 N.3     1  LYS1       -0.1245
      2  CA        97.3350   16.6000  -35.4520 C.3     1  LYS1        0.1561
      3  C         96.9150   17.5440  -34.3170 C.2     1  LYS1        0.2260
      4  O         95.7300   17.8360  -34.1510 O.2     1  LYS1       -0.2867
      5  CB        97.5200   17.3630  -36.7660 C.3     1  LYS1        0.0271
      6  CG        98.2660   16.5480  -37.8120 C.3     1  LYS1        0.0035
      7  CD        98.5120   17.3400  -39.0810 C.3     1  LYS1        0.0206
      8  CE        99.4140   16.5870  -40.0510 C.3     1  LYS1        0.1093
      9  NZ        98.8120   15.3090  -40.5300 N.3     1  LYS1       -0.1314
     10  N        103.1260   21.5510  -30.6440 N.3   121  THR121     -0.1203
     11  CA       101.8180   21.5750  -31.2800 C.3   121  THR121      0.1994
     12  C        101.9410   21.8240  -32.7850 C.2   121  THR121      0.2618
     13  O        102.9700   22.3170  -33.2570 O.2   121  THR121     -0.2717
     14  CB       100.9280   22.6420  -30.6130 C.3   121  THR121      0.1784
     15  OG1       99.5560   22.3930  -30.9320 O.3   121  THR121     -0.2211
     16  CG2      101.3190   24.0820  -31.0070 C.3   121  THR121      0.0376
     17  N        100.8840   21.4740  -33.5120 N.am  122  ASP122     -0.1959
     18  CA       100.7480   21.7640  -34.9470 C.3   122  ASP122      0.1840
     19  C         99.9670   23.0520  -35.2130 C.2   122  ASP122      0.2621
     20  O        100.2700   23.7710  -36.1720 O.2   122  ASP122     -0.2715
     21  CB       100.0720   20.5910  -35.6550 C.3   122  ASP122      0.1450
     22  CG       100.8730   19.3140  -35.5590 C.2   122  ASP122      0.3671
     23  OD1      102.0290   19.2980  -36.0350 O.co2 122  ASP122     -0.2456
     24  OD2      100.3530   18.3210  -35.0070 O.co2 122  ASP122     -0.2456
     25  N         98.9420   23.3080  -34.3910 N.am  123  MET123     -0.1977
     26  CA        98.1700   24.5440  -34.4090 C.3   123  MET123      0.1605
     27  C         98.1110   25.1510  -33.0090 C.2   123  MET123      0.2287
     28  O         98.0150   24.4220  -32.0240 O.2   123  MET123     -0.2864
     29  CB        96.7580   24.2690  -34.9220 C.3   123  MET123      0.0413
     30  CG        96.6880   24.1180  -36.4310 C.3   123  MET123      0.0598
     31  SD        95.2120   23.2480  -36.9720 S.3   123  MET123     -0.1393
     32  CE        95.7200   21.5540  -36.6830 C.3   123  MET123      0.0692
     33  N         94.0010   26.9620  -45.5880 N.3   280  VAL280     -0.1231
     34  CA        95.3400   27.1530  -44.9900 C.3   280  VAL280      0.1692
     35  C         95.8390   25.8430  -44.3470 C.2   280  VAL280      0.2591
     36  O         97.0140   25.5020  -44.4910 O.2   280  VAL280     -0.2718
     37  CB        95.3780   28.3450  -43.9900 C.3   280  VAL280      0.0266
     38  CG1       96.7220   28.4440  -43.2700 C.3   280  VAL280      0.0020
     39  CG2       95.0870   29.6680  -44.7060 C.3   280  VAL280      0.0020
     40  N         94.9390   25.1220  -43.6750 N.am  281  LYS281     -0.1980
     41  CA        95.2360   23.7820  -43.1170 C.3   281  LYS281      0.1596
     42  C         95.7680   22.7330  -44.1000 C.2   281  LYS281      0.2287
     43  O         96.6090   21.9180  -43.7130 O.2   281  LYS281     -0.2864
     44  CB        94.0070   23.1940  -42.4140 C.3   281  LYS281      0.0298
     45  CG        93.7930   23.7060  -41.0040 C.3   281  LYS281      0.0038
     46  CD        92.6760   22.9360  -40.3140 C.3   281  LYS281      0.0206
     47  CE        93.1490   21.5630  -39.8430 C.3   281  LYS281      0.1093
     48  NZ        92.1040   20.7470  -39.1820 N.3   281  LYS281     -0.1314
     49  N         99.6450   21.9120  -44.3920 N.3   284  ASN284     -0.1225
     50  CA       100.3370   21.1300  -43.3450 C.3   284  ASN284      0.1785
     51  C        101.5740   21.8380  -42.7670 C.2   284  ASN284      0.2597
     52  O        102.6220   21.2190  -42.5650 O.2   284  ASN284     -0.2718
     53  CB       100.6940   19.7200  -43.8660 C.3   284  ASN284      0.1169
     54  CG        99.4820   18.9450  -44.3560 C.2   284  ASN284      0.2627
     55  OD1       98.4210   18.9710  -43.7370 O.2   284  ASN284     -0.2716
     56  ND2       99.6430   18.2340  -45.4650 N.am  284  ASN284     -0.0877
     57  N        101.4330   23.1450  -42.5310 N.am  285  LEU285     -0.1966
     58  CA       102.4800   23.9690  -41.9260 C.3   285  LEU285      0.1713
     59  C        102.0690   24.3260  -40.5030 C.2   285  LEU285      0.2458
     60  O        100.8690   24.4070  -40.2240 O.2   285  LEU285     -0.2730
     61  CB       102.6910   25.2500  -42.7360 C.3   285  LEU285      0.0310
     62  CG       103.2030   25.0560  -44.1690 C.3   285  LEU285      0.0022
     63  CD1      103.1430   26.3750  -44.9280 C.3   285  LEU285      0.0001
     64  CD2      104.6090   24.4770  -44.1970 C.3   285  LEU285      0.0001
     65  N        103.0540   24.5450  -39.5940 N.am  286  PRO286     -0.2716
     66  CA       102.7730   25.1530  -38.2820 C.3   286  PRO286      0.1536
     67  C        101.9410   26.4350  -38.4230 C.2   286  PRO286      0.2598
     68  O        102.3030   27.3100  -39.2130 O.2   286  PRO286     -0.2715
     69  CB       104.1660   25.4560  -37.7270 C.3   286  PRO286      0.0310
     70  CG       105.0540   24.4570  -38.3670 C.3   286  PRO286      0.0237
     71  CD       104.4660   24.1350  -39.7080 C.3   286  PRO286      0.0939
     72  N        100.8220   26.5010  -37.6970 N.am  287  LEU287     -0.1978
     73  CA        99.7810   27.5040  -37.9190 C.3   287  LEU287      0.1596
     74  C         99.3710   28.1590  -36.6030 C.2   287  LEU287      0.2287
     75  O         98.9570   27.4650  -35.6810 O.2   287  LEU287     -0.2864
     76  CB        98.5690   26.8500  -38.5950 C.3   287  LEU287      0.0297
     77  CG        97.2740   27.6550  -38.7890 C.3   287  LEU287      0.0022
     78  CD1       97.5310   29.0090  -39.4420 C.3   287  LEU287      0.0001
     79  CD2       96.2600   26.8560  -39.5970 C.3   287  LEU287      0.0001
     80  N         89.6220   19.3450  -36.9760 N.3   313  ASP313     -0.1239
     81  CA        89.2230   18.4070  -38.0350 C.3   313  ASP313      0.1674
     82  C         87.9630   17.6150  -37.6520 C.2   313  ASP313      0.2266
     83  O         87.8850   16.3990  -37.8340 O.2   313  ASP313     -0.2867
     84  CB        90.4130   17.4970  -38.4220 C.3   313  ASP313      0.1410
     85  CG        90.2580   16.8430  -39.8020 C.2   313  ASP313      0.3668
     86  OD1       89.6900   17.4560  -40.7330 O.co2 313  ASP313     -0.2456
     87  OD2       90.7300   15.6980  -39.9570 O.co2 313  ASP313     -0.2456
@<TRIPOS>BOND
     1    33    34    1
     2    56    54   am
     3    34    35    1
     4    34    37    1
     5    63    62    1
     6    39    37    1
     7    36    35    2
     8    49    50    1
     9    54    53    1
    10    54    55    2
    11    35    40   am
    12    64    62    1
    13    62    61    1
    14    42    43    2
    15    42    41    1
    16    37    38    1
    17    53    50    1
    18    40    41    1
    19    50    51    1
    20    41    44    1
    21    51    52    2
    22    51    57   am
    23    61    58    1
    24    57    58    1
    25    44    45    1
    26    58    59    1
    27    45    46    1
    28    86    85   ar
    29     9     8    1
    30    59    60    2
    31    59    65   am
    32    46    47    1
    33     8     7    1
    34    87    85   ar
    35    47    48    1
    36    85    84    1
    37    71    65    1
    38    71    70    1
    39    79    77    1
    40    65    66    1
    41    78    77    1
    42    68    67    2
    43     7     6    1
    44    77    76    1
    45    76    73    1
    46    67    66    1
    47    67    72   am
    48    84    81    1
    49    70    69    1
    50    66    69    1
    51    81    82    1
    52    81    80    1
    53    73    72    1
    54    73    74    1
    55    83    82    2
    56     6     5    1
    57    31    32    1
    58    31    30    1
    59     5     2    1
    60    74    75    2
    61    30    29    1
    62    20    19    2
    63    23    22   ar
    64    21    22    1
    65    21    18    1
    66     1     2    1
    67    22    24   ar
    68     2     3    1
    69    19    18    1
    70    19    25   am
    71    18    17    1
    72    29    26    1
    73    26    25    1
    74    26    27    1
    75     3     4    2
    76    17    12   am
    77    13    12    2
    78    27    28    2
    79    12    11    1
    80    11    10    1
    81    11    14    1
    82    16    14    1
    83    15    14    1
