@<TRIPOS>MOLECULE
tmp/5ix2B01.pdb
 217 208 0 0 0
SMALL
GASTEIGER

@<TRIPOS>ATOM
      1  N         84.4670   57.8210   56.3500 N.3    28  GLU28      -0.1231
      2  CA        85.0070   59.0270   55.7970 C.3    28  GLU28       0.1699
      3  C         85.2240   60.0560   56.8540 C.2    28  GLU28       0.2592
      4  O         86.2040   60.7440   56.8400 O.2    28  GLU28      -0.2718
      5  CB        84.0580   59.5740   54.7650 C.3    28  GLU28       0.0402
      6  CG        84.1580   58.8830   53.4340 C.3    28  GLU28       0.1161
      7  CD        85.3430   59.3250   52.6350 C.2    28  GLU28       0.3649
      8  OE1       86.2210   60.0150   53.1490 O.co2  28  GLU28      -0.2457
      9  OE2       85.3870   58.9710   51.4690 O.co2  28  GLU28      -0.2457
     10  N         84.2890   60.1790   57.7680 N.am   29  LEU29      -0.1980
     11  CA        84.4340   61.1210   58.8450 C.3    29  LEU29       0.1596
     12  C         85.5900   60.7780   59.7220 C.2    29  LEU29       0.2287
     13  O         86.3110   61.6370   60.1510 O.2    29  LEU29      -0.2864
     14  CB        83.1650   61.2030   59.6520 C.3    29  LEU29       0.0297
     15  CG        82.0530   61.8800   58.8820 C.3    29  LEU29       0.0022
     16  CD1       80.9370   62.2270   59.8150 C.3    29  LEU29       0.0001
     17  CD2       82.5290   63.1520   58.2380 C.3    29  LEU29       0.0001
     18  N         88.1330   59.2200   58.8390 N.3    31  ASP31      -0.1225
     19  CA        89.3360   59.3900   58.0820 C.3    31  ASP31       0.1805
     20  C         89.7670   60.8020   58.2200 C.2    31  ASP31       0.2598
     21  O         90.9300   61.0720   58.3090 O.2    31  ASP31      -0.2718
     22  CB        89.0740   59.0670   56.6290 C.3    31  ASP31       0.1424
     23  CG        88.7140   57.6470   56.4210 C.2    31  ASP31       0.3668
     24  OD1       89.0890   56.8320   57.2480 O.co2  31  ASP31      -0.2456
     25  OD2       88.0600   57.3150   55.4370 O.co2  31  ASP31      -0.2456
     26  N         88.8180   61.7140   58.2250 N.am   32  ASN32      -0.1960
     27  CA        89.1600   63.1110   58.2590 C.3    32  ASN32       0.1819
     28  C         89.9000   63.4290   59.5330 C.2    32  ASN32       0.2621
     29  O         90.8000   64.2300   59.5380 O.2    32  ASN32      -0.2715
     30  CB        87.9370   63.9900   58.1190 C.3    32  ASN32       0.1195
     31  CG        87.5770   64.3030   56.6860 C.2    32  ASN32       0.2630
     32  OD1       87.7040   65.4290   56.1740 O.2    32  ASN32      -0.2716
     33  ND2       87.0880   63.2840   56.0290 N.am   32  ASN32      -0.0877
     34  N         89.4800   62.8310   60.6310 N.am   33  ALA33      -0.1977
     35  CA        90.1410   62.9740   61.9250 C.3    33  ALA33       0.1597
     36  C         91.5160   62.3540   62.0500 C.2    33  ALA33       0.2287
     37  O         92.3950   62.8820   62.6750 O.2    33  ALA33      -0.2864
     38  CB        89.2480   62.4370   62.9960 C.3    33  ALA33       0.0319
     39  N         96.7330   66.3030   59.0940 N.3    37  ASP37      -0.1225
     40  CA        96.4680   67.7010   59.3400 C.3    37  ASP37       0.1805
     41  C         95.7130   67.8970   60.6270 C.2    37  ASP37       0.2597
     42  O         95.9790   68.8250   61.3440 O.2    37  ASP37      -0.2718
     43  CB        95.7350   68.3430   58.1770 C.3    37  ASP37       0.1424
     44  CG        94.4440   67.6910   57.8860 C.2    37  ASP37       0.3668
     45  OD1       94.4320   66.4750   57.7530 O.co2  37  ASP37      -0.2456
     46  OD2       93.4410   68.3920   57.7820 O.co2  37  ASP37      -0.2456
     47  N         94.6980   67.0850   60.8680 N.am   38  VAL38      -0.1980
     48  CA        93.9850   67.0860   62.1440 C.3    38  VAL38       0.1595
     49  C         94.7580   66.4990   63.3390 C.2    38  VAL38       0.2287
     50  O         94.7920   67.0530   64.4210 O.2    38  VAL38      -0.2864
     51  CB        92.5600   66.5080   61.9560 C.3    38  VAL38       0.0276
     52  CG1       92.2910   65.2260   62.7230 C.3    38  VAL38       0.0022
     53  CG2       91.5150   67.5470   62.2640 C.3    38  VAL38       0.0022
     54  N         86.4910   65.0920   68.0930 N.3    60  ASP60      -0.1239
     55  CA        87.8820   64.7090   68.0890 C.3    60  ASP60       0.1674
     56  C         88.7290   65.7490   68.7220 C.2    60  ASP60       0.2266
     57  O         88.3520   66.8890   68.7910 O.2    60  ASP60      -0.2867
     58  CB        88.3830   64.4380   66.6810 C.3    60  ASP60       0.1410
     59  CG        88.2070   65.6040   65.7580 C.2    60  ASP60       0.3668
     60  OD1       87.1720   65.6630   65.0970 O.co2  60  ASP60      -0.2456
     61  OD2       89.0980   66.4490   65.6670 O.co2  60  ASP60      -0.2456
     62  N         91.7330   71.1290   64.6980 N.3    64  GLY64      -0.1210
     63  CA        90.6710   72.0890   64.4690 C.3    64  GLY64       0.1956
     64  C         90.9300   72.9230   63.2460 C.2    64  GLY64       0.2611
     65  O         91.8580   72.6580   62.5250 O.2    64  GLY64      -0.2717
     66  N         90.1020   73.9210   62.9920 N.am   65  MET65      -0.1979
     67  CA        90.2260   74.6720   61.7620 C.3    65  MET65       0.1605
     68  C         90.0630   76.1480   61.9060 C.2    65  MET65       0.2287
     69  O         89.3370   76.6110   62.7460 O.2    65  MET65      -0.2864
     70  CB        89.1760   74.2050   60.7920 C.3    65  MET65       0.0413
     71  CG        89.2590   72.7510   60.4700 C.3    65  MET65       0.0598
     72  SD        87.7900   72.4110   59.5760 S.3    65  MET65      -0.1393
     73  CE        86.7410   71.7400   60.8220 C.3    65  MET65       0.0692
     74  N         89.4440   77.6470   56.8960 N.3    69  LYS69      -0.1245
     75  CA        89.6370   76.2590   56.5850 C.3    69  LYS69       0.1561
     76  C         88.3210   75.5560   56.6120 C.2    69  LYS69       0.2260
     77  O         88.1040   74.6110   55.8890 O.2    69  LYS69      -0.2867
     78  CB        90.6260   75.6130   57.5080 C.3    69  LYS69       0.0271
     79  CG        91.2640   74.3880   56.9100 C.3    69  LYS69       0.0035
     80  CD        92.3820   74.7380   55.9550 C.3    69  LYS69       0.0206
     81  CE        93.4630   73.6820   55.9940 C.3    69  LYS69       0.1093
     82  NZ        94.5000   73.8760   54.9550 N.3    69  LYS69      -0.1314
     83  N         86.4310   75.6910   53.2450 N.3    72  LYS72      -0.1231
     84  CA        86.8510   74.7140   52.2930 C.3    72  LYS72       0.1693
     85  C         86.2430   73.4020   52.6760 C.2    72  LYS72       0.2591
     86  O         85.8770   72.6220   51.8350 O.2    72  LYS72      -0.2718
     87  CB        88.3470   74.6350   52.2560 C.3    72  LYS72       0.0285
     88  CG        88.9910   75.9930   52.3480 C.3    72  LYS72       0.0035
     89  CD        89.4190   76.5000   50.9980 C.3    72  LYS72       0.0206
     90  CE        90.4940   77.5530   51.1310 C.3    72  LYS72       0.1093
     91  NZ        91.8430   76.9430   51.0830 N.3    72  LYS72      -0.1314
     92  N         86.1800   73.1350   53.9580 N.am   73  MET73      -0.1979
     93  CA        85.6840   71.8660   54.4110 C.3    73  MET73       0.1605
     94  C         84.2610   71.7460   53.9990 C.2    73  MET73       0.2287
     95  O         83.7670   70.6840   53.7650 O.2    73  MET73      -0.2864
     96  CB        85.8170   71.7320   55.9010 C.3    73  MET73       0.0413
     97  CG        85.6340   70.3170   56.3770 C.3    73  MET73       0.0598
     98  SD        85.0550   70.3490   58.0500 S.3    73  MET73      -0.1393
     99  CE        84.2180   68.8010   58.1980 C.3    73  MET73       0.0692
    100  N         88.2570   70.8880   47.7820 N.3    78  PHE78      -0.1227
    101  CA        89.4610   71.4180   48.3820 C.3    78  PHE78       0.1736
    102  C         90.1180   70.4520   49.3330 C.2    78  PHE78       0.2596
    103  O         89.5410   70.0790   50.3180 O.2    78  PHE78      -0.2718
    104  CB        89.1210   72.6820   49.1190 C.3    78  PHE78       0.0547
    105  CG        88.5400   73.7240   48.2500 C.ar   78  PHE78      -0.0202
    106  CD1       89.3310   74.6630   47.6700 C.ar   78  PHE78      -0.0042
    107  CD2       87.2080   73.7530   48.0070 C.ar   78  PHE78      -0.0042
    108  CE1       88.8010   75.6270   46.8710 C.ar   78  PHE78      -0.0003
    109  CE2       86.6690   74.7110   47.1990 C.ar   78  PHE78      -0.0003
    110  CZ        87.4670   75.6490   46.6300 C.ar   78  PHE78      -0.0000
    111  N         91.3180   70.0130   49.0040 N.am   79  SER79      -0.1938
    112  CA        92.0950   69.1860   49.8840 C.3    79  SER79       0.2055
    113  C         93.5380   69.5790   49.7700 C.2    79  SER79       0.2643
    114  O         94.0330   69.7030   48.6840 O.2    79  SER79      -0.2714
    115  CB        91.9410   67.7510   49.4680 C.3    79  SER79       0.2130
    116  OG        92.9150   66.9670   50.0960 O.3    79  SER79      -0.2179
    117  N         94.2240   69.7780   50.8820 N.am   80  ASP80      -0.1957
    118  CA        95.6330   70.1390   50.8350 C.3    80  ASP80       0.1840
    119  C         96.5410   69.3260   51.7340 C.2    80  ASP80       0.2621
    120  O         97.5640   69.8090   52.1480 O.2    80  ASP80      -0.2715
    121  CB        95.8160   71.6230   51.1220 C.3    80  ASP80       0.1450
    122  CG        97.0670   72.1890   50.4830 C.2    80  ASP80       0.3671
    123  OD1       97.9410   71.4000   50.0850 O.co2  80  ASP80      -0.2456
    124  OD2       97.1930   73.4230   50.3790 O.co2  80  ASP80      -0.2456
    125  N         96.1390   68.1200   52.0840 N.am   81  LYS81      -0.1977
    126  CA        96.8650   67.3140   53.0480 C.3    81  LYS81       0.1596
    127  C         98.1710   66.7280   52.5310 C.2    81  LYS81       0.2287
    128  O         98.2190   66.2570   51.4280 O.2    81  LYS81      -0.2864
    129  CB        95.9510   66.1940   53.5130 C.3    81  LYS81       0.0298
    130  CG        94.5700   66.6410   53.9550 C.3    81  LYS81       0.0038
    131  CD        93.6320   65.4620   54.0250 C.3    81  LYS81       0.0206
    132  CE        92.5750   65.6390   55.0870 C.3    81  LYS81       0.1093
    133  NZ        91.7070   64.4430   55.2140 N.3    81  LYS81      -0.1314
    134  N         93.0770   61.2600   52.7320 N.3    91  GLY91      -0.1210
    135  CA        92.1950   62.0450   51.9130 C.3    91  GLY91       0.1956
    136  C         92.8420   62.8790   50.8520 C.2    91  GLY91       0.2612
    137  O         93.7300   63.6460   51.1340 O.2    91  GLY91      -0.2717
    138  N         92.4150   62.7050   49.6110 N.am   92  LEU92      -0.1965
    139  CA        92.8520   63.5770   48.5540 C.3    92  LEU92       0.1728
    140  C         91.7490   64.1660   47.7180 C.2    92  LEU92       0.2616
    141  O         91.9150   65.2010   47.1510 O.2    92  LEU92      -0.2715
    142  CB        93.8670   62.8730   47.6920 C.3    92  LEU92       0.0311
    143  CG        93.3170   61.8230   46.7740 C.3    92  LEU92       0.0022
    144  CD1       94.4390   60.9750   46.2350 C.3    92  LEU92       0.0001
    145  CD2       92.3010   60.9840   47.4960 C.3    92  LEU92       0.0001
    146  N         90.6260   63.4880   47.6470 N.am   93  TYR93      -0.1960
    147  CA        89.5090   63.8920   46.8270 C.3    93  TYR93       0.1771
    148  C         88.8310   65.1880   47.1660 C.2    93  TYR93       0.2620
    149  O         88.2820   65.8240   46.3040 O.2    93  TYR93      -0.2715
    150  CB        88.4770   62.8070   46.7640 C.3    93  TYR93       0.0574
    151  CG        88.9080   61.6030   46.0310 C.ar   93  TYR93      -0.0198
    152  CD1       89.9330   61.6410   45.1300 C.ar   93  TYR93      -0.0009
    153  CD2       88.2800   60.4210   46.2280 C.ar   93  TYR93      -0.0009
    154  CE1       90.3200   60.5160   44.4480 C.ar   93  TYR93       0.0417
    155  CE2       88.6590   59.2990   45.5550 C.ar   93  TYR93       0.0417
    156  CZ        89.6760   59.3520   44.6690 C.ar   93  TYR93       0.1957
    157  OH        90.0210   58.2120   44.0270 O.3    93  TYR93      -0.2866
    158  N         88.7690   65.5310   48.4270 N.am   94  GLY94      -0.1940
    159  CA        88.1180   66.7490   48.8390 C.3    94  GLY94       0.2014
    160  C         86.6350   66.6380   49.0070 C.2    94  GLY94       0.2639
    161  O         85.9740   67.6210   49.1890 O.2    94  GLY94      -0.2714
    162  N         86.1000   65.4390   48.9280 N.am   95  ASN95      -0.1958
    163  CA        84.6650   65.2640   48.9960 C.3    95  ASN95       0.1819
    164  C         84.1020   64.5320   50.1990 C.2    95  ASN95       0.2622
    165  O         82.9180   64.5680   50.4350 O.2    95  ASN95      -0.2715
    166  CB        84.2140   64.5420   47.7490 C.3    95  ASN95       0.1195
    167  CG        82.7400   64.4830   47.6270 C.2    95  ASN95       0.2630
    168  OD1       82.2010   63.5040   47.1930 O.2    95  ASN95      -0.2716
    169  ND2       82.0820   65.5280   48.0170 N.am   95  ASN95      -0.0877
    170  N         84.9400   63.8950   50.9860 N.am   96  GLY96      -0.1940
    171  CA        84.4400   62.9580   51.9590 C.3    96  GLY96       0.2014
    172  C         83.4950   63.4250   53.0410 C.2    96  GLY96       0.2639
    173  O         82.5760   62.6980   53.3750 O.2    96  GLY96      -0.2714
    174  N         83.7220   64.5960   53.6150 N.am   97  PHE97      -0.1959
    175  CA        82.8220   65.0750   54.6240 C.3    97  PHE97       0.1771
    176  C         81.4980   65.2540   53.9830 C.2    97  PHE97       0.2619
    177  O         80.4980   64.8860   54.5380 O.2    97  PHE97      -0.2715
    178  CB        83.2550   66.4040   55.1700 C.3    97  PHE97       0.0574
    179  CG        82.2670   66.9930   56.1060 C.ar   97  PHE97      -0.0200
    180  CD1       82.0060   66.3900   57.2940 C.ar   97  PHE97      -0.0042
    181  CD2       81.5600   68.1020   55.7700 C.ar   97  PHE97      -0.0042
    182  CE1       81.0820   66.9030   58.1400 C.ar   97  PHE97      -0.0003
    183  CE2       80.6350   68.6230   56.6140 C.ar   97  PHE97      -0.0003
    184  CZ        80.3940   68.0220   57.8020 C.ar   97  PHE97      -0.0000
    185  N         81.4890   65.8530   52.8100 N.am   98  LYS98      -0.1977
    186  CA        80.2370   66.1790   52.1780 C.3    98  LYS98       0.1596
    187  C         79.4560   64.9680   51.7580 C.2    98  LYS98       0.2287
    188  O         78.2640   64.9060   51.9810 O.2    98  LYS98      -0.2864
    189  CB        80.4530   67.1290   51.0210 C.3    98  LYS98       0.0298
    190  CG        81.2880   68.3400   51.3610 C.3    98  LYS98       0.0038
    191  CD        82.6820   68.1750   50.8180 C.3    98  LYS98       0.0206
    192  CE        83.7360   68.6870   51.7580 C.3    98  LYS98       0.1093
    193  NZ        84.9190   69.1420   50.9960 N.3    98  LYS98      -0.1314
    194  N         87.2320   69.3100   67.2090 N.3   187  THR187     -0.1218
    195  CA        86.0460   69.5310   66.4110 C.3   187  THR187      0.1862
    196  C         84.9190   68.5980   66.7600 C.2   187  THR187      0.2287
    197  O         85.1420   67.4430   67.0030 O.2   187  THR187     -0.2866
    198  CB        86.3820   69.2950   64.9510 C.3   187  THR187      0.1770
    199  OG1       87.5030   70.1000   64.6090 O.3   187  THR187     -0.2211
    200  CG2       85.2400   69.6730   64.0920 C.3   187  THR187      0.0375
    201  N         81.2240   67.2550   65.2960 N.3   189  ILE189     -0.1245
    202  CA        80.3210   67.2970   64.1790 C.3   189  ILE189      0.1561
    203  C         79.0360   66.6660   64.5780 C.2   189  ILE189      0.2260
    204  O         79.0020   65.5270   64.9440 O.2   189  ILE189     -0.2867
    205  CB        80.8720   66.4760   63.0200 C.3   189  ILE189      0.0252
    206  CG1       82.1710   67.0610   62.5410 C.3   189  ILE189      0.0019
    207  CG2       79.9030   66.4300   61.8690 C.3   189  ILE189      0.0019
    208  CD1       82.9200   66.1080   61.6670 C.3   189  ILE189      0.0001
    209  N         85.2940   54.8930   48.4830 N.3   340  LYS340     -0.1245
    210  CA        86.4730   54.3660   49.0980 C.3   340  LYS340      0.1561
    211  C         86.2440   52.9790   49.5910 C.2   340  LYS340      0.2260
    212  O         86.9390   52.5250   50.4580 O.2   340  LYS340     -0.2867
    213  CB        86.9120   55.2440   50.2380 C.3   340  LYS340      0.0271
    214  CG        87.2480   56.6440   49.8140 C.3   340  LYS340      0.0035
    215  CD        88.6000   57.0990   50.3060 C.3   340  LYS340      0.0206
    216  CE        88.7340   58.5960   50.1540 C.3   340  LYS340      0.1093
    217  NZ        89.8520   59.1750   50.9260 N.3   340  LYS340     -0.1314
@<TRIPOS>BOND
     1   157   156    1
     2   154   156   ar
     3   154   152   ar
     4   156   155   ar
     5   152   151   ar
     6   155   153   ar
     7   151   153   ar
     8   151   150    1
     9   144   143    1
    10   149   148    2
    11   110   108   ar
    12   110   109   ar
    13   150   147    1
    14   143   145    1
    15   143   142    1
    16   147   148    1
    17   147   146    1
    18   108   106   ar
    19   141   140    2
    20   148   158   am
    21   168   167    2
    22   109   107   ar
    23   167   166    1
    24   167   169   am
    25   146   140   am
    26   106   105   ar
    27   142   139    1
    28   140   139    1
    29   166   163    1
    30   100   101    1
    31   107   105   ar
    32   105   104    1
    33   101   104    1
    34   101   102    1
    35   158   159    1
    36   209   210    1
    37   139   138    1
    38   114   113    2
    39   159   160    1
    40   162   163    1
    41   162   160   am
    42   163   164    1
    43   111   102   am
    44   111   112    1
    45   160   161    2
    46   210   211    1
    47   210   213    1
    48   102   103    2
    49   115   112    1
    50   115   116    1
    51   211   212    2
    52   138   136   am
    53   113   112    1
    54   113   117   am
    55   214   213    1
    56   214   215    1
    57   123   122   ar
    58   216   215    1
    59   216   217    1
    60   164   165    2
    61   164   170   am
    62   124   122   ar
    63   122   121    1
    64   191   190    1
    65   191   192    1
    66   118   117    1
    67   118   121    1
    68   118   119    1
    69   136   137    2
    70   136   135    1
    71   170   171    1
    72   193   192    1
    73    89    90    1
    74    89    88    1
    75   189   190    1
    76   189   186    1
    77    91    90    1
    78   128   127    2
    79     9     7   ar
    80   119   125   am
    81   119   120    2
    82   187   188    2
    83   187   186    1
    84    86    85    2
    85   135   134    1
    86   171   172    1
    87   125   126    1
    88   186   185    1
    89    87    84    1
    90    87    88    1
    91    84    85    1
    92    84    83    1
    93   127   126    1
    94     7     8   ar
    95     7     6    1
    96    85    92   am
    97   185   176   am
    98   172   173    2
    99   172   174   am
   100   126   129    1
   101     6     5    1
   102   129   130    1
   103   174   175    1
   104    95    94    2
   105   130   131    1
   106    92    93    1
   107   176   177    2
   108   176   175    1
   109    94    93    1
   110   131   132    1
   111    93    96    1
   112   175   178    1
   113     5     2    1
   114    82    81    1
   115   132   133    1
   116   178   179    1
   117    25    23   ar
   118   181   179   ar
   119   181   183   ar
   120     2     1    1
   121     2     3    1
   122    77    76    2
   123    96    97    1
   124    80    81    1
   125    80    79    1
   126    33    31   am
   127   179   180   ar
   128    32    31    2
   129    97    98    1
   130    23    22    1
   131    23    24   ar
   132    75    76    1
   133    75    74    1
   134    75    78    1
   135   183   184   ar
   136    22    19    1
   137    31    30    1
   138     4     3    2
   139     3    10   am
   140    79    78    1
   141   180   182   ar
   142    45    44   ar
   143    10    11    1
   144    46    44   ar
   145   184   182   ar
   146    44    43    1
   147    98    99    1
   148    19    20    1
   149    19    18    1
   150    30    27    1
   151    43    40    1
   152    20    26   am
   153    20    21    2
   154    26    27    1
   155    17    15    1
   156    27    28    1
   157    11    14    1
   158    11    12    1
   159    15    14    1
   160    15    16    1
   161    39    40    1
   162    40    41    1
   163    28    29    2
   164    28    34   am
   165    72    71    1
   166    72    73    1
   167    12    13    2
   168    71    70    1
   169    41    47   am
   170    41    42    2
   171    34    35    1
   172    70    67    1
   173    47    48    1
   174   208   206    1
   175    67    68    1
   176    67    66    1
   177   207   205    1
   178    68    69    2
   179    35    36    1
   180    35    38    1
   181    51    48    1
   182    51    53    1
   183    51    52    1
   184    36    37    2
   185    48    49    1
   186    65    64    2
   187   206   205    1
   188    66    64   am
   189   205   202    1
   190    64    63    1
   191    49    50    2
   192   200   198    1
   193   202   203    1
   194   202   201    1
   195    63    62    1
   196   203   204    2
   197   199   198    1
   198   198   195    1
   199    60    59   ar
   200    61    59   ar
   201    59    58    1
   202   195   196    1
   203   195   194    1
   204    58    55    1
   205   196   197    2
   206    55    54    1
   207    55    56    1
   208    56    57    2
