@<TRIPOS>MOLECULE
tmp/5ixbA00.pdb
 99 98 0 0 0
SMALL
GASTEIGER

@<TRIPOS>ATOM
      1  N         -7.2220  -19.3300   21.9030 N.3    34  ARG34      -0.1245
      2  CA        -8.1240  -18.2360   21.5580 C.3    34  ARG34       0.1563
      3  C         -7.5370  -16.8640   21.8880 C.2    34  ARG34       0.2260
      4  O         -8.0410  -15.8410   21.4040 O.2    34  ARG34      -0.2867
      5  CB        -9.4380  -18.3610   22.3160 C.3    34  ARG34       0.0307
      6  CG       -10.2470  -19.6200   21.9860 C.3    34  ARG34       0.0489
      7  CD       -11.4260  -19.7730   22.9540 C.3    34  ARG34       0.2205
      8  NE       -10.9910  -20.0800   24.3000 N.pl3  34  ARG34      -0.0865
      9  CZ       -11.7690  -20.0650   25.3710 C.cat  34  ARG34       0.5346
     10  NH1      -13.0570  -19.7430   25.2690 N.pl3  34  ARG34       0.1354
     11  NH2      -11.2600  -20.3580   26.5520 N.pl3  34  ARG34       0.1354
     12  N        -12.3110   -5.7580   17.7990 N.3    48  SER48      -0.1217
     13  CA       -13.6150   -6.0190   18.3620 C.3    48  SER48       0.1889
     14  C        -13.5470   -5.8710   19.8690 C.2    48  SER48       0.2288
     15  O        -12.4950   -6.0330   20.4780 O.2    48  SER48      -0.2866
     16  CB       -14.0970   -7.4320   18.0040 C.3    48  SER48       0.2089
     17  OG       -13.2280   -8.4300   18.5470 O.3    48  SER48      -0.2183
     18  N        -10.6920   -8.1480   21.0960 N.3    59  GLY59      -0.1225
     19  CA       -10.0380   -8.9460   20.0670 C.3    59  GLY59       0.1811
     20  C         -9.1800   -8.0630   19.1840 C.2    59  GLY59       0.2280
     21  O         -9.5630   -6.9340   18.8550 O.2    59  GLY59      -0.2866
     22  N         -5.7230  -12.9720   14.7350 N.3    74  LEU74      -0.1231
     23  CA        -6.5460  -12.2990   15.7200 C.3    74  LEU74       0.1693
     24  C         -6.6130  -13.1700   16.9570 C.2    74  LEU74       0.2593
     25  O         -6.6490  -14.3970   16.8580 O.2    74  LEU74      -0.2718
     26  CB        -7.9670  -12.1300   15.1870 C.3    74  LEU74       0.0284
     27  CG        -8.1590  -11.0870   14.0820 C.3    74  LEU74       0.0019
     28  CD1       -9.4670  -11.3640   13.3450 C.3    74  LEU74       0.0001
     29  CD2       -8.1300   -9.6550   14.6410 C.3    74  LEU74       0.0001
     30  N         -6.6670  -12.5290   18.1180 N.am   75  GLY75      -0.1942
     31  CA        -6.9150  -13.2330   19.3670 C.3    75  GLY75       0.2014
     32  C         -7.4780  -12.2910   20.4140 C.2    75  GLY75       0.2638
     33  O         -7.4880  -11.0720   20.2410 O.2    75  GLY75      -0.2714
     34  N         -7.9410  -12.8630   21.5160 N.am   76  TYR76      -0.1973
     35  CA        -8.5470  -12.0980   22.5910 C.3    76  TYR76       0.1639
     36  C         -7.5500  -11.8100   23.7070 C.2    76  TYR76       0.2290
     37  O         -6.6180  -12.5680   23.9520 O.2    76  TYR76      -0.2864
     38  CB        -9.7770  -12.8390   23.1340 C.3    76  TYR76       0.0560
     39  CG       -10.8480  -12.9520   22.0890 C.ar   76  TYR76      -0.0198
     40  CD1      -11.6140  -11.8460   21.7450 C.ar   76  TYR76      -0.0009
     41  CD2      -11.0580  -14.1360   21.3800 C.ar   76  TYR76      -0.0009
     42  CE1      -12.5480  -11.9080   20.7520 C.ar   76  TYR76       0.0417
     43  CE2      -12.0310  -14.2120   20.4120 C.ar   76  TYR76       0.0417
     44  CZ       -12.7660  -13.0930   20.1020 C.ar   76  TYR76       0.1957
     45  OH       -13.7100  -13.1760   19.1100 O.3    76  TYR76      -0.2866
     46  N        -16.6300  -18.5190   13.5070 N.3   100  TRP100     -0.1227
     47  CA       -15.2670  -18.1280   13.2060 C.3   100  TRP100      0.1737
     48  C        -14.6620  -17.3340   14.3800 C.2   100  TRP100      0.2595
     49  O        -13.4460  -17.3600   14.5560 O.2   100  TRP100     -0.2718
     50  CB       -15.2370  -17.3710   11.8680 C.3   100  TRP100      0.0564
     51  CG       -13.8590  -17.2210   11.2350 C.ar  100  TRP100      0.0003
     52  CD1      -13.0710  -16.0990   11.2300 C.ar  100  TRP100      0.0946
     53  CD2      -13.1200  -18.2300   10.5190 C.ar  100  TRP100      0.0152
     54  NE1      -11.8900  -16.3530   10.5630 N.ar  100  TRP100     -0.2442
     55  CE2      -11.8950  -17.6520   10.1230 C.ar  100  TRP100      0.0810
     56  CE3      -13.3720  -19.5700   10.1940 C.ar  100  TRP100      0.0012
     57  CZ2      -10.9290  -18.3620    9.4150 C.ar  100  TRP100      0.0191
     58  CZ3      -12.4150  -20.2720    9.4890 C.ar  100  TRP100      0.0001
     59  CH2      -11.2060  -19.6670    9.1070 C.ar  100  TRP100      0.0015
     60  N        -15.4970  -16.6500   15.1930 N.am  101  ASP101     -0.1960
     61  CA       -14.9940  -15.6700   16.1660 C.3   101  ASP101      0.1840
     62  C        -14.2570  -16.3110   17.3310 C.2   101  ASP101      0.2622
     63  O        -13.5130  -15.6160   18.0150 O.2   101  ASP101     -0.2715
     64  CB       -16.1210  -14.7690   16.7220 C.3   101  ASP101      0.1450
     65  CG       -16.5820  -13.7070   15.7270 C.2   101  ASP101      0.3671
     66  OD1      -15.8170  -13.3020   14.8320 O.co2 101  ASP101     -0.2456
     67  OD2      -17.7430  -13.2890   15.8580 O.co2 101  ASP101     -0.2456
     68  N        -14.4750  -17.5920   17.6210 N.am  102  PHE102     -0.1960
     69  CA       -13.7450  -18.2520   18.7000 C.3   102  PHE102      0.1771
     70  C        -12.9670  -19.4620   18.1970 C.2   102  PHE102      0.2619
     71  O        -12.5250  -20.2970   18.9890 O.2   102  PHE102     -0.2715
     72  CB       -14.6650  -18.5400   19.8970 C.3   102  PHE102      0.0574
     73  CG       -15.3830  -17.3250   20.3430 C.ar  102  PHE102     -0.0200
     74  CD1      -14.7130  -16.3600   21.0360 C.ar  102  PHE102     -0.0042
     75  CD2      -16.6980  -17.1030   20.0000 C.ar  102  PHE102     -0.0042
     76  CE1      -15.3410  -15.1940   21.4060 C.ar  102  PHE102     -0.0003
     77  CE2      -17.3540  -15.9210   20.3950 C.ar  102  PHE102     -0.0003
     78  CZ       -16.6520  -14.9660   21.0730 C.ar  102  PHE102     -0.0000
     79  N        -12.7780  -19.5540   16.8870 N.am  103  TYR103     -0.1974
     80  CA       -11.9590  -20.5950   16.3000 C.3   103  TYR103      0.1639
     81  C        -10.5290  -20.0740   16.2030 C.2   103  TYR103      0.2290
     82  O        -10.2930  -18.9690   15.7140 O.2   103  TYR103     -0.2864
     83  CB       -12.4940  -20.9450   14.9050 C.3   103  TYR103      0.0560
     84  CG       -11.9480  -22.2420   14.3110 C.ar  103  TYR103     -0.0198
     85  CD1      -12.3650  -23.4770   14.7990 C.ar  103  TYR103     -0.0009
     86  CD2      -11.0360  -22.2250   13.2630 C.ar  103  TYR103     -0.0009
     87  CE1      -11.8740  -24.6680   14.2580 C.ar  103  TYR103      0.0417
     88  CE2      -10.5450  -23.4040   12.7200 C.ar  103  TYR103      0.0417
     89  CZ       -10.9700  -24.6200   13.2200 C.ar  103  TYR103      0.1957
     90  OH       -10.4870  -25.7930   12.6860 O.3   103  TYR103     -0.2866
     91  N         -6.8100  -19.0190   15.3830 N.3   105  GLN105     -0.1245
     92  CA        -6.1080  -18.6580   14.1690 C.3   105  GLN105      0.1566
     93  C         -4.5960  -18.7360   14.3720 C.2   105  GLN105      0.2260
     94  O         -3.8270  -18.7390   13.4110 O.2   105  GLN105     -0.2867
     95  CB        -6.4850  -17.2440   13.7510 C.3   105  GLN105      0.0367
     96  CG        -7.9690  -16.9590   13.7220 C.3   105  GLN105      0.0905
     97  CD        -8.2460  -15.6300   13.0780 C.2   105  GLN105      0.2608
     98  OE1       -7.3540  -14.7890   12.9910 O.2   105  GLN105     -0.2717
     99  NE2       -9.4700  -15.4370   12.5920 N.am  105  GLN105     -0.0878
@<TRIPOS>BOND
     1    59    57   ar
     2    59    58   ar
     3    57    55   ar
     4    58    56   ar
     5    55    53   ar
     6    55    54   ar
     7    56    53   ar
     8    53    51   ar
     9    54    52   ar
    10    52    51   ar
    11    51    50    1
    12    50    47    1
    13    99    97   am
    14    90    89    1
    15    88    89   ar
    16    88    86   ar
    17    98    97    2
    18    97    96    1
    19    47    46    1
    20    47    48    1
    21    89    87   ar
    22    86    84   ar
    23    28    27    1
    24    94    93    2
    25    96    95    1
    26    95    92    1
    27    27    29    1
    28    27    26    1
    29    92    93    1
    30    92    91    1
    31    87    85   ar
    32    84    85   ar
    33    84    83    1
    34    48    49    2
    35    48    60   am
    36    22    23    1
    37    66    65   ar
    38    83    80    1
    39    26    23    1
    40    60    61    1
    41    82    81    2
    42    23    24    1
    43    65    67   ar
    44    65    64    1
    45    61    64    1
    46    61    62    1
    47    81    80    1
    48    80    79    1
    49    25    24    2
    50    79    70   am
    51    24    30   am
    52    62    68   am
    53    62    63    2
    54    68    69    1
    55    12    13    1
    56    16    13    1
    57    16    17    1
    58    30    31    1
    59    70    69    1
    60    70    71    2
    61    13    14    1
    62    69    72    1
    63    21    20    2
    64    45    44    1
    65    20    19    1
    66    31    32    1
    67    14    15    2
    68    72    73    1
    69    75    73   ar
    70    75    77   ar
    71    19    18    1
    72    44    43   ar
    73    44    42   ar
    74    33    32    2
    75    73    74   ar
    76    77    78   ar
    77    43    41   ar
    78    32    34   am
    79    42    40   ar
    80    74    76   ar
    81    78    76   ar
    82    41    39   ar
    83     4     3    2
    84    34    35    1
    85     2     3    1
    86     2     1    1
    87     2     5    1
    88    40    39   ar
    89     6     5    1
    90     6     7    1
    91    39    38    1
    92    35    38    1
    93    35    36    1
    94     7     8    1
    95    36    37    2
    96     8     9    2
    97    10     9    1
    98     9    11    1
