@<TRIPOS>MOLECULE
tmp/5ixcA00.pdb
 219 214 0 0 0
SMALL
GASTEIGER

@<TRIPOS>ATOM
      1  N         36.4920   28.9490  166.5630 N.3   283  GLY283     -0.1210
      2  CA        36.4760   30.3860  166.8020 C.3   283  GLY283      0.1956
      3  C         37.6050   31.0840  166.0760 C.2   283  GLY283      0.2612
      4  O         38.2440   30.5140  165.2050 O.2   283  GLY283     -0.2717
      5  N         37.8490   32.3280  166.4670 N.am  284  GLY284     -0.1942
      6  CA        38.8460   33.1950  165.8170 C.3   284  GLY284      0.2014
      7  C         38.3690   34.6030  165.4670 C.2   284  GLY284      0.2639
      8  O         38.8630   35.2180  164.5230 O.2   284  GLY284     -0.2714
      9  N         37.4050   35.1150  166.2170 N.am  285  GLY285     -0.1954
     10  CA        36.9030   36.4780  166.0240 C.3   285  GLY285      0.1869
     11  C         36.5050   36.8270  164.6010 C.2   285  GLY285      0.2309
     12  O         35.7930   36.0730  163.9450 O.2   285  GLY285     -0.2863
     13  N         32.2320   30.8260  168.9070 N.3   315  SER315     -0.1202
     14  CA        32.7430   32.2090  168.9770 C.3   315  SER315      0.2020
     15  C         32.5770   33.0420  167.6770 C.2   315  SER315      0.2619
     16  O         31.4520   33.2860  167.2510 O.2   315  SER315     -0.2717
     17  CB        34.1860   32.2250  169.5040 C.3   315  SER315      0.2103
     18  OG        34.4830   33.5340  169.9820 O.3   315  SER315     -0.2182
     19  N         33.6710   33.4800  167.0570 N.am  316  GLY316     -0.1956
     20  CA        33.5840   34.3050  165.8470 C.3   316  GLY316      0.1869
     21  C         32.7270   33.7140  164.7300 C.2   316  GLY316      0.2309
     22  O         32.0520   34.4470  164.0100 O.2   316  GLY316     -0.2863
     23  N         29.0570   34.6290  164.6530 N.3   319  TRP319     -0.1241
     24  CA        28.7280   35.9510  164.1260 C.3   319  TRP319      0.1605
     25  C         28.2310   35.8290  162.6880 C.2   319  TRP319      0.2264
     26  O         27.1920   36.3760  162.3310 O.2   319  TRP319     -0.2867
     27  CB        29.9270   36.8810  164.1740 C.3   319  TRP319      0.0550
     28  CG        30.5090   37.0500  165.5410 C.ar  319  TRP319      0.0003
     29  CD1       29.9800   36.6100  166.7290 C.ar  319  TRP319      0.0946
     30  CD2       31.7150   37.7430  165.8750 C.ar  319  TRP319      0.0152
     31  NE1       30.7930   36.9740  167.7650 N.ar  319  TRP319     -0.2442
     32  CE2       31.8630   37.6730  167.2670 C.ar  319  TRP319      0.0810
     33  CE3       32.6920   38.3950  165.1260 C.ar  319  TRP319      0.0012
     34  CZ2       32.9450   38.2460  167.9280 C.ar  319  TRP319      0.0191
     35  CZ3       33.7570   38.9610  165.7770 C.ar  319  TRP319      0.0001
     36  CH2       33.8800   38.8790  167.1710 C.ar  319  TRP319      0.0015
     37  N         32.7930   53.7360  170.9720 N.3   354  PHE354     -0.1241
     38  CA        33.1690   54.2350  172.3090 C.3   354  PHE354      0.1605
     39  C         32.9690   55.7420  172.5270 C.2   354  PHE354      0.2264
     40  O         33.5900   56.3360  173.4160 O.2   354  PHE354     -0.2867
     41  CB        34.6210   53.8690  172.6040 C.3   354  PHE354      0.0534
     42  CG        34.8560   52.3980  172.6490 C.ar  354  PHE354     -0.0203
     43  CD1       34.5840   51.6810  173.8020 C.ar  354  PHE354     -0.0042
     44  CD2       35.3210   51.7220  171.5340 C.ar  354  PHE354     -0.0042
     45  CE1       34.7850   50.3140  173.8460 C.ar  354  PHE354     -0.0003
     46  CE2       35.5230   50.3550  171.5720 C.ar  354  PHE354     -0.0003
     47  CZ        35.2550   49.6530  172.7290 C.ar  354  PHE354     -0.0000
     48  N         29.4460   42.3470  182.8080 N.3   378  PHE378     -0.1241
     49  CA        30.2430   42.8310  181.6820 C.3   378  PHE378      0.1605
     50  C         29.7630   42.2200  180.3540 C.2   378  PHE378      0.2264
     51  O         29.7350   42.8900  179.3260 O.2   378  PHE378     -0.2867
     52  CB        31.7130   42.4830  181.8780 C.3   378  PHE378      0.0534
     53  CG        32.6680   43.3750  181.1160 C.ar  378  PHE378     -0.0203
     54  CD1       33.9770   43.4730  181.5230 C.ar  378  PHE378     -0.0042
     55  CD2       32.2750   44.1260  180.0090 C.ar  378  PHE378     -0.0042
     56  CE1       34.8820   44.2860  180.8460 C.ar  378  PHE378     -0.0003
     57  CE2       33.1740   44.9400  179.3320 C.ar  378  PHE378     -0.0003
     58  CZ        34.4800   45.0200  179.7540 C.ar  378  PHE378     -0.0000
     59  N         29.3760   43.9190  176.7530 N.3   382  TRP382     -0.1241
     60  CA        30.0240   43.3100  175.5780 C.3   382  TRP382      0.1605
     61  C         29.0180   43.0370  174.4620 C.2   382  TRP382      0.2264
     62  O         29.3300   43.2030  173.2870 O.2   382  TRP382     -0.2867
     63  CB        30.7440   42.0210  175.9830 C.3   382  TRP382      0.0550
     64  CG        31.3100   41.1940  174.8630 C.ar  382  TRP382      0.0003
     65  CD1       31.1480   39.8620  174.6860 C.ar  382  TRP382      0.0946
     66  CD2       32.1380   41.6440  173.7840 C.ar  382  TRP382      0.0152
     67  NE1       31.8290   39.4430  173.5720 N.ar  382  TRP382     -0.2442
     68  CE2       32.4390   40.5220  172.9940 C.ar  382  TRP382      0.0810
     69  CE3       32.6450   42.8890  173.4040 C.ar  382  TRP382      0.0012
     70  CZ2       33.2270   40.6040  171.8460 C.ar  382  TRP382      0.0191
     71  CZ3       33.4300   42.9710  172.2580 C.ar  382  TRP382      0.0001
     72  CH2       33.7130   41.8350  171.4960 C.ar  382  TRP382      0.0015
     73  N         28.3190   46.5430  172.7670 N.3   385  VAL385     -0.1245
     74  CA        29.4330   47.0340  171.9390 C.3   385  VAL385      0.1561
     75  C         29.5700   46.1380  170.7040 C.2   385  VAL385      0.2260
     76  O         29.7480   46.6290  169.5920 O.2   385  VAL385     -0.2867
     77  CB        30.7970   47.1910  172.6610 C.3   385  VAL385      0.0252
     78  CG1       30.6240   47.6690  174.0950 C.3   385  VAL385      0.0019
     79  CG2       31.6180   45.9190  172.6090 C.3   385  VAL385      0.0019
     80  N         29.5910   47.1140  166.8820 N.3   389  MET389     -0.1245
     81  CA        30.7300   46.8330  165.9810 C.3   389  MET389      0.1570
     82  C         30.3180   46.0560  164.7320 C.2   389  MET389      0.2261
     83  O         30.9130   46.2010  163.6680 O.2   389  MET389     -0.2867
     84  CB        31.8270   46.0730  166.7230 C.3   389  MET389      0.0387
     85  CG        32.4660   46.8800  167.8310 C.3   389  MET389      0.0595
     86  SD        33.7720   45.9800  168.6680 S.3   389  MET389     -0.1393
     87  CE        35.1120   46.2600  167.5410 C.3   389  MET389      0.0692
     88  N         30.8100   34.5270  172.3430 N.3   472  SER472     -0.1202
     89  CA        32.1230   35.0850  172.0040 C.3   472  SER472      0.2020
     90  C         32.7520   35.8210  173.1600 C.2   472  SER472      0.2619
     91  O         33.6460   36.6440  172.9660 O.2   472  SER472     -0.2717
     92  CB        32.0340   36.0210  170.7980 C.3   472  SER472      0.2103
     93  OG        30.6990   36.2530  170.4570 O.3   472  SER472     -0.2182
     94  N         32.3050   35.5240  174.3670 N.am  473  ASN473     -0.1960
     95  CA        32.7980   36.2620  175.5080 C.3   473  ASN473      0.1819
     96  C         34.2920   36.1110  175.6320 C.2   473  ASN473      0.2621
     97  O         34.8390   35.0260  175.4870 O.2   473  ASN473     -0.2715
     98  CB        32.1290   35.8060  176.7910 C.3   473  ASN473      0.1195
     99  CG        32.7490   36.4430  178.0110 C.2   473  ASN473      0.2630
    100  OD1       33.0670   37.6360  178.0040 O.2   473  ASN473     -0.2716
    101  ND2       32.9340   35.6600  179.0590 N.am  473  ASN473     -0.0877
    102  N         34.9260   37.2260  175.9200 N.am  474  ILE474     -0.1963
    103  CA        36.3670   37.3250  175.9110 C.3   474  ILE474      0.1727
    104  C         36.8820   37.8110  177.2510 C.2   474  ILE474      0.2616
    105  O         38.0930   37.8520  177.4870 O.2   474  ILE474     -0.2715
    106  CB        36.7360   38.2700  174.7370 C.3   474  ILE474      0.0290
    107  CG1       36.9330   37.4450  173.4680 C.3   474  ILE474      0.0022
    108  CG2       37.9500   39.1550  174.9840 C.3   474  ILE474      0.0023
    109  CD1       37.7880   36.2230  173.6240 C.3   474  ILE474      0.0001
    110  N         35.9540   38.1010  178.1550 N.am  475  PHE475     -0.1974
    111  CA        36.2730   38.8990  179.3140 C.3   475  PHE475      0.1639
    112  C         36.2500   38.1530  180.6180 C.2   475  PHE475      0.2290
    113  O         35.4390   37.2470  180.8380 O.2   475  PHE475     -0.2864
    114  CB        35.3490   40.1000  179.3950 C.3   475  PHE475      0.0560
    115  CG        35.5670   41.0620  178.2920 C.ar  475  PHE475     -0.0200
    116  CD1       36.7500   41.7690  178.2170 C.ar  475  PHE475     -0.0042
    117  CD2       34.6240   41.2240  177.3100 C.ar  475  PHE475     -0.0042
    118  CE1       36.9780   42.6480  177.1890 C.ar  475  PHE475     -0.0003
    119  CE2       34.8440   42.0970  176.2770 C.ar  475  PHE475     -0.0003
    120  CZ        36.0230   42.8180  176.2170 C.ar  475  PHE475     -0.0000
    121  N         36.7730   41.9520  186.3600 N.3   479  LEU479     -0.1245
    122  CA        37.5510   43.0800  185.8310 C.3   479  LEU479      0.1561
    123  C         38.1220   43.9330  186.9670 C.2   479  LEU479      0.2260
    124  O         39.2820   44.3830  186.9050 O.2   479  LEU479     -0.2867
    125  CB        36.6770   43.9530  184.9510 C.3   479  LEU479      0.0270
    126  CG        36.3640   43.3560  183.5900 C.3   479  LEU479      0.0019
    127  CD1       37.4640   43.7020  182.5980 C.3   479  LEU479      0.0001
    128  CD2       36.1430   41.8460  183.6250 C.3   479  LEU479      0.0001
    129  N         43.6920   49.5870  172.3430 N.3   484  TRP484     -0.1241
    130  CA        42.5190   49.2700  173.1870 C.3   484  TRP484      0.1605
    131  C         42.8410   49.2720  174.6900 C.2   484  TRP484      0.2264
    132  O         42.2750   48.4970  175.4660 O.2   484  TRP484     -0.2867
    133  CB        41.7440   48.0080  172.7540 C.3   484  TRP484      0.0550
    134  CG        42.4910   46.7140  172.6620 C.ar  484  TRP484      0.0003
    135  CD1       43.4660   46.3920  171.7650 C.ar  484  TRP484      0.0946
    136  CD2       42.2610   45.5310  173.4450 C.ar  484  TRP484      0.0152
    137  NE1       43.8860   45.0960  171.9620 N.ar  484  TRP484     -0.2442
    138  CE2       43.1620   44.5450  172.9850 C.ar  484  TRP484      0.0810
    139  CE3       41.3960   45.2150  174.5020 C.ar  484  TRP484      0.0012
    140  CZ2       43.2200   43.2660  173.5430 C.ar  484  TRP484      0.0191
    141  CZ3       41.4550   43.9400  175.0550 C.ar  484  TRP484      0.0001
    142  CH2       42.3610   42.9840  174.5740 C.ar  484  TRP484      0.0015
    143  N         40.0960   52.9570  175.0830 N.3   487  PRO487     -0.2102
    144  CA        38.6550   52.7180  175.2170 C.3   487  PRO487      0.1504
    145  C         38.2720   52.1160  176.5690 C.2   487  PRO487      0.2576
    146  O         37.1120   52.1860  176.9640 O.2   487  PRO487     -0.2718
    147  CB        38.3540   51.7140  174.1000 C.3   487  PRO487      0.0282
    148  CG        39.4400   51.9050  173.1090 C.3   487  PRO487      0.0208
    149  CD        40.6510   52.2720  173.9050 C.3   487  PRO487      0.0893
    150  N         39.2420   51.5080  177.2460 N.am  488  GLY488     -0.1957
    151  CA        39.0550   51.0120  178.6040 C.3   488  GLY488      0.1869
    152  C         38.7630   52.1080  179.6160 C.2   488  GLY488      0.2309
    153  O         37.8940   51.9600  180.4780 O.2   488  GLY488     -0.2863
    154  N         35.3590   53.8190  178.7580 N.3   491  LEU491     -0.1231
    155  CA        34.2500   52.9800  179.2330 C.3   491  LEU491      0.1693
    156  C         34.1030   53.0430  180.7420 C.2   491  LEU491      0.2591
    157  O         33.0140   53.2870  181.2530 O.2   491  LEU491     -0.2718
    158  CB        34.4010   51.5110  178.8070 C.3   491  LEU491      0.0284
    159  CG        33.9320   51.0940  177.4040 C.3   491  LEU491      0.0019
    160  CD1       33.9270   49.5780  177.3060 C.3   491  LEU491      0.0001
    161  CD2       32.5440   51.6230  177.0660 C.3   491  LEU491      0.0001
    162  N         35.2060   52.7900  181.4390 N.am  492  ALA492     -0.1980
    163  CA        35.2490   52.8450  182.9030 C.3   492  ALA492      0.1597
    164  C         34.6720   54.1660  183.4160 C.2   492  ALA492      0.2287
    165  O         33.6920   54.1720  184.1600 O.2   492  ALA492     -0.2864
    166  CB        36.6730   52.6540  183.4110 C.3   492  ALA492      0.0319
    167  N         42.3080   40.7510  182.8520 N.3   519  LEU519     -0.1245
    168  CA        41.3150   41.4920  182.0650 C.3   519  LEU519      0.1561
    169  C         40.4870   40.5680  181.1470 C.2   519  LEU519      0.2260
    170  O         39.2670   40.7360  181.0100 O.2   519  LEU519     -0.2867
    171  CB        42.0280   42.5420  181.2240 C.3   519  LEU519      0.0270
    172  CG        41.2730   43.8340  180.9070 C.3   519  LEU519      0.0019
    173  CD1       42.2600   44.9790  180.7150 C.3   519  LEU519      0.0001
    174  CD2       40.3860   43.6710  179.6790 C.3   519  LEU519      0.0001
    175  N         38.9670   28.1040  175.9010 N.3   526  TYR526     -0.1227
    176  CA        38.1550   29.1810  175.3020 C.3   526  TYR526      0.1736
    177  C         38.5560   29.5670  173.8870 C.2   526  TYR526      0.2595
    178  O         37.7240   30.0910  173.1510 O.2   526  TYR526     -0.2718
    179  CB        38.1730   30.4390  176.1650 C.3   526  TYR526      0.0548
    180  CG        37.4660   30.2730  177.4790 C.ar  526  TYR526     -0.0200
    181  CD1       38.1540   30.4270  178.6780 C.ar  526  TYR526     -0.0009
    182  CD2       36.1160   29.9370  177.5300 C.ar  526  TYR526     -0.0009
    183  CE1       37.5130   30.2610  179.9020 C.ar  526  TYR526      0.0417
    184  CE2       35.4690   29.7600  178.7400 C.ar  526  TYR526      0.0417
    185  CZ        36.1730   29.9220  179.9290 C.ar  526  TYR526      0.1957
    186  OH        35.5510   29.7450  181.1540 O.3   526  TYR526     -0.2866
    187  N         39.8050   29.3130  173.4980 N.am  527  PHE527     -0.1976
    188  CA        40.2790   29.7170  172.1710 C.3   527  PHE527      0.1639
    189  C         40.7120   28.6210  171.2140 C.2   527  PHE527      0.2290
    190  O         41.0430   28.9150  170.0700 O.2   527  PHE527     -0.2864
    191  CB        41.4790   30.6370  172.3020 C.3   527  PHE527      0.0560
    192  CG        41.3740   31.6000  173.4180 C.ar  527  PHE527     -0.0200
    193  CD1       41.9670   31.3120  174.6290 C.ar  527  PHE527     -0.0042
    194  CD2       40.7030   32.7980  173.2680 C.ar  527  PHE527     -0.0042
    195  CE1       41.8890   32.1960  175.6840 C.ar  527  PHE527     -0.0003
    196  CE2       40.6240   33.6940  174.3220 C.ar  527  PHE527     -0.0003
    197  CZ        41.2170   33.3940  175.5310 C.ar  527  PHE527     -0.0000
    198  N         43.5860   38.0620  166.3760 N.3   644  LEU644     -0.1231
    199  CA        42.3310   37.8420  167.1160 C.3   644  LEU644      0.1693
    200  C         41.7290   39.1470  167.6800 C.2   644  LEU644      0.2592
    201  O         40.5040   39.2930  167.7560 O.2   644  LEU644     -0.2718
    202  CB        42.5540   36.7980  168.2180 C.3   644  LEU644      0.0284
    203  CG        41.3760   36.3740  169.0780 C.3   644  LEU644      0.0019
    204  CD1       40.2250   35.7860  168.2640 C.3   644  LEU644      0.0001
    205  CD2       41.8480   35.3880  170.1320 C.3   644  LEU644      0.0001
    206  N         42.6010   40.0770  168.0830 N.am  645  SER645     -0.1952
    207  CA        42.2000   41.3980  168.6250 C.3   645  SER645      0.1924
    208  C         41.5050   42.2860  167.6100 C.2   645  SER645      0.2314
    209  O         40.6510   43.0990  167.9720 O.2   645  SER645     -0.2863
    210  CB        43.4230   42.1890  169.1040 C.3   645  SER645      0.2116
    211  OG        43.9340   41.6770  170.3070 O.3   645  SER645     -0.2180
    212  N         39.3940   44.1850  165.0300 N.3   647  MET647     -0.1245
    213  CA        37.9930   44.2490  164.6280 C.3   647  MET647      0.1570
    214  C         37.7310   45.2920  163.5490 C.2   647  MET647      0.2261
    215  O         36.5810   45.6120  163.2740 O.2   647  MET647     -0.2867
    216  CB        37.1130   44.5090  165.8400 C.3   647  MET647      0.0387
    217  CG        37.0050   43.3170  166.7760 C.3   647  MET647      0.0595
    218  SD        35.5600   42.2530  166.5910 S.3   647  MET647     -0.1393
    219  CE        35.0270   42.5060  164.8880 C.3   647  MET647      0.0692
@<TRIPOS>BOND
     1    26    25    2
     2    25    24    1
     3   215   214    2
     4   214   213    1
     5    83    82    2
     6    12    11    2
     7    22    21    2
     8    24    27    1
     9    24    23    1
    10    27    28    1
    11     8     7    2
    12    11    10    1
    13   213   212    1
    14   213   216    1
    15    21    20    1
    16    82    81    1
    17   219   218    1
    18    33    35   ar
    19    33    30   ar
    20     4     3    2
    21     7     6    1
    22     7     9   am
    23    28    30   ar
    24    28    29   ar
    25    35    36   ar
    26     6     5    1
    27   216   217    1
    28    20    19    1
    29    30    32   ar
    30    81    84    1
    31    81    80    1
    32    10     9    1
    33     3     5   am
    34     3     2    1
    35   198   199    1
    36     1     2    1
    37   218   217    1
    38    84    85    1
    39    29    31   ar
    40    19    15   am
    41   199   200    1
    42   199   202    1
    43    36    34   ar
    44    16    15    2
    45    32    31   ar
    46    32    34   ar
    47    87    86    1
    48   208   209    2
    49   208   207    1
    50    15    14    1
    51   200   201    2
    52   200   206   am
    53    85    86    1
    54   206   207    1
    55   202   203    1
    56   204   203    1
    57   207   210    1
    58    13    14    1
    59    14    17    1
    60   203   205    1
    61   210   211    1
    62    17    18    1
    63    76    75    2
    64   190   189    2
    65    93    92    1
    66    75    74    1
    67    92    89    1
    68    37    38    1
    69   189   188    1
    70    72    70   ar
    71    72    71   ar
    72    44    46   ar
    73    44    42   ar
    74    46    47   ar
    75   135   137   ar
    76   135   134   ar
    77    70    68   ar
    78    74    77    1
    79    74    73    1
    80   137   138   ar
    81    89    88    1
    82    89    90    1
    83   188   191    1
    84   188   187    1
    85    71    69   ar
    86   191   192    1
    87    38    39    1
    88    38    41    1
    89   129   130    1
    90    39    40    2
    91    41    42    1
    92    79    77    1
    93    42    43   ar
    94    77    78    1
    95   134   133    1
    96   134   136   ar
    97    47    45   ar
    98   133   130    1
    99    91    90    2
   100   138   136   ar
   101   138   140   ar
   102    68    67   ar
   103    68    66   ar
   104   148   149    1
   105   148   147    1
   106   178   177    2
   107    90    94   am
   108   130   131    1
   109   194   192   ar
   110   194   196   ar
   111    62    61    2
   112    69    66   ar
   113   192   193   ar
   114   136   139   ar
   115   107   109    1
   116   107   106    1
   117   187   177   am
   118   140   142   ar
   119    67    65   ar
   120    66    64   ar
   121    43    45   ar
   122   177   176    1
   123   149   143    1
   124   147   144    1
   125   196   197   ar
   126    94    95    1
   127    61    60    1
   128   139   141   ar
   129   142   141   ar
   130   193   195   ar
   131    65    64   ar
   132   131   132    2
   133   106   108    1
   134   106   103    1
   135    64    63    1
   136   143   144    1
   137   144   145    1
   138   176   175    1
   139   176   179    1
   140    97    96    2
   141    95    96    1
   142    95    98    1
   143   197   195   ar
   144    60    63    1
   145    60    59    1
   146    96   102   am
   147   103   102    1
   148   103   104    1
   149   179   180    1
   150   120   119   ar
   151   120   118   ar
   152   119   117   ar
   153   145   146    2
   154   145   150   am
   155    98    99    1
   156   161   159    1
   157   118   116   ar
   158   150   151    1
   159   104   105    2
   160   104   110   am
   161   160   159    1
   162   117   115   ar
   163   159   158    1
   164   180   182   ar
   165   180   181   ar
   166   182   184   ar
   167   100    99    2
   168    99   101   am
   169   110   111    1
   170   116   115   ar
   171   115   114    1
   172   151   152    1
   173   181   183   ar
   174   184   185   ar
   175   154   155    1
   176   158   155    1
   177   155   156    1
   178   111   114    1
   179   111   112    1
   180    51    50    2
   181    57    58   ar
   182    57    55   ar
   183   152   153    2
   184   174   172    1
   185    58    56   ar
   186   183   185   ar
   187   185   186    1
   188    55    53   ar
   189    50    49    1
   190   112   113    2
   191   173   172    1
   192   156   157    2
   193   156   162   am
   194    56    54   ar
   195   172   171    1
   196   170   169    2
   197    53    54   ar
   198    53    52    1
   199   169   168    1
   200   171   168    1
   201   162   163    1
   202    49    52    1
   203    49    48    1
   204   168   167    1
   205   127   126    1
   206   163   166    1
   207   163   164    1
   208   164   165    2
   209   126   128    1
   210   126   125    1
   211   125   122    1
   212   122   121    1
   213   122   123    1
   214   124   123    2
