@<TRIPOS>MOLECULE
tmp/5ixeA00.pdb
 113 116 0 0 0
SMALL
GASTEIGER

@<TRIPOS>ATOM
      1  N        -81.1800   86.2290   24.9590 N.3    17  PHE17      -0.1241
      2  CA       -80.5650   85.2760   25.8700 C.3    17  PHE17       0.1605
      3  C        -79.0900   85.5780   26.0620 C.2    17  PHE17       0.2264
      4  O        -78.5460   85.3720   27.1480 O.2    17  PHE17      -0.2867
      5  CB       -80.7500   83.8730   25.3100 C.3    17  PHE17       0.0534
      6  CG       -80.2270   82.7610   26.1790 C.ar   17  PHE17      -0.0203
      7  CD1      -80.9410   82.3130   27.2870 C.ar   17  PHE17      -0.0042
      8  CD2      -79.0490   82.0910   25.8400 C.ar   17  PHE17      -0.0042
      9  CE1      -80.4710   81.2560   28.0530 C.ar   17  PHE17      -0.0003
     10  CE2      -78.5850   81.0260   26.6010 C.ar   17  PHE17      -0.0003
     11  CZ       -79.2970   80.6110   27.7180 C.ar   17  PHE17      -0.0000
     12  N        -85.7290   76.5630   27.8340 N.3    32  ASP32      -0.1225
     13  CA       -84.9540   75.3530   27.6040 C.3    32  ASP32       0.1805
     14  C        -83.4550   75.6660   27.6740 C.2    32  ASP32       0.2598
     15  O        -82.6770   74.8920   28.2370 O.2    32  ASP32      -0.2718
     16  CB       -85.3220   74.6790   26.2790 C.3    32  ASP32       0.1424
     17  CG       -85.2610   75.5870   25.0430 C.2    32  ASP32       0.3668
     18  OD1      -84.9240   76.7930   25.1100 O.co2  32  ASP32      -0.2456
     19  OD2      -85.5490   75.0370   23.9510 O.co2  32  ASP32      -0.2456
     20  N        -83.0590   76.8250   27.1730 N.am   33  GLY33      -0.1957
     21  CA       -81.6340   77.1640   27.1540 C.3    33  GLY33       0.1869
     22  C        -81.0560   77.3440   28.5440 C.2    33  GLY33       0.2309
     23  O        -79.9350   76.9160   28.8340 O.2    33  GLY33      -0.2863
     24  N        -80.6340   73.9230   30.0080 N.3    36  TRP36      -0.1227
     25  CA       -79.5860   73.2190   29.2730 C.3    36  TRP36       0.1737
     26  C        -78.1860   73.6290   29.7410 C.2    36  TRP36       0.2595
     27  O        -77.3260   72.7720   29.9720 O.2    36  TRP36      -0.2718
     28  CB       -79.7760   73.5130   27.7830 C.3    36  TRP36       0.0564
     29  CG       -78.8170   72.8510   26.8900 C.ar   36  TRP36       0.0003
     30  CD1      -77.6900   73.4140   26.3220 C.ar   36  TRP36       0.0946
     31  CD2      -78.8730   71.5140   26.4280 C.ar   36  TRP36       0.0152
     32  NE1      -77.0510   72.4870   25.5420 N.ar   36  TRP36      -0.2442
     33  CE2      -77.7510   71.3100   25.5930 C.ar   36  TRP36       0.0810
     34  CE3      -79.7640   70.4440   26.6410 C.ar   36  TRP36       0.0012
     35  CZ2      -77.5060   70.0930   24.9660 C.ar   36  TRP36       0.0191
     36  CZ3      -79.5130   69.2530   26.0310 C.ar   36  TRP36       0.0001
     37  CH2      -78.3820   69.0720   25.2060 C.ar   36  TRP36       0.0015
     38  N        -77.9340   74.9290   29.8820 N.am   37  VAL37      -0.1980
     39  CA       -76.5690   75.3700   30.2160 C.3    37  VAL37       0.1595
     40  C        -76.2680   75.2500   31.7040 C.2    37  VAL37       0.2287
     41  O        -75.0990   75.3350   32.0960 O.2    37  VAL37      -0.2864
     42  CB       -76.2930   76.8100   29.7250 C.3    37  VAL37       0.0276
     43  CG1      -76.4680   76.9010   28.2010 C.3    37  VAL37       0.0022
     44  CG2      -77.1400   77.8700   30.4670 C.3    37  VAL37       0.0022
     45  N        -71.4700   72.0590   27.4020 N.3    48  VAL48      -0.1245
     46  CA       -71.5460   73.4910   27.6470 C.3    48  VAL48       0.1561
     47  C        -70.3440   73.8900   28.4910 C.2    48  VAL48       0.2260
     48  O        -69.7320   73.0630   29.1660 O.2    48  VAL48      -0.2867
     49  CB       -72.8660   73.8970   28.3360 C.3    48  VAL48       0.0252
     50  CG1      -74.0430   73.4790   27.4590 C.3    48  VAL48       0.0019
     51  CG2      -72.9780   73.2400   29.7120 C.3    48  VAL48       0.0019
     52  N        -83.7480   81.2920   19.4130 N.3   151  TRP151     -0.1228
     53  CA       -83.4230   79.9100   19.7980 C.3   151  TRP151      0.1722
     54  C        -84.0500   79.4190   21.1060 C.2   151  TRP151      0.2437
     55  O        -84.6590   78.3380   21.0910 O.2   151  TRP151     -0.2733
     56  CB       -81.9120   79.6730   19.8460 C.3   151  TRP151      0.0563
     57  CG       -81.2660   79.8140   18.5200 C.ar  151  TRP151      0.0003
     58  CD1      -81.8670   79.8680   17.3030 C.ar  151  TRP151      0.0946
     59  CD2      -79.8640   79.9370   18.2830 C.ar  151  TRP151      0.0152
     60  NE1      -80.9180   80.0080   16.3050 N.ar  151  TRP151     -0.2442
     61  CE2      -79.6810   80.0540   16.8910 C.ar  151  TRP151      0.0810
     62  CE3      -78.7480   79.9300   19.1130 C.ar  151  TRP151      0.0012
     63  CZ2      -78.4210   80.1860   16.3110 C.ar  151  TRP151      0.0191
     64  CZ3      -77.4940   80.0560   18.5380 C.ar  151  TRP151      0.0001
     65  CH2      -77.3450   80.1760   17.1480 C.ar  151  TRP151      0.0015
     66  N        -83.9190   80.1080   22.2420 N.am  152  PRO152     -0.2729
     67  CA       -84.5350   79.5880   23.4720 C.3   152  PRO152      0.1401
     68  C        -86.0540   79.5670   23.3610 C.2   152  PRO152      0.2269
     69  O        -86.6650   80.5060   22.8560 O.2   152  PRO152     -0.2865
     70  CB       -84.0900   80.5680   24.5560 C.3   152  PRO152      0.0296
     71  CG       -82.8200   81.1870   23.9830 C.3   152  PRO152      0.0237
     72  CD       -83.1290   81.3160   22.5220 C.3   152  PRO152      0.0939
     73  N        -73.2760   71.1890   21.4790 N.3   221  GLY221     -0.1210
     74  CA       -73.9260   71.6490   22.6900 C.3   221  GLY221      0.1956
     75  C        -75.1990   72.4390   22.4690 C.2   221  GLY221      0.2612
     76  O        -75.5770   73.2530   23.3320 O.2   221  GLY221     -0.2717
     77  N        -75.8400   72.2800   21.3070 N.am  222  PHE222     -0.1962
     78  CA       -77.1180   72.9380   21.0140 C.3   222  PHE222      0.1756
     79  C        -78.2670   72.0360   21.4800 C.2   222  PHE222      0.2461
     80  O        -78.2930   70.8520   21.1330 O.2   222  PHE222     -0.2730
     81  CB       -77.2440   73.2240   19.5150 C.3   222  PHE222      0.0574
     82  CG       -78.2790   74.2780   19.1660 C.ar  222  PHE222     -0.0200
     83  CD1      -79.6330   74.0000   19.2400 C.ar  222  PHE222     -0.0042
     84  CD2      -77.8910   75.5220   18.7320 C.ar  222  PHE222     -0.0042
     85  CE1      -80.5860   74.9670   18.9420 C.ar  222  PHE222     -0.0003
     86  CE2      -78.8370   76.5050   18.4270 C.ar  222  PHE222     -0.0003
     87  CZ       -80.1980   76.2080   18.5210 C.ar  222  PHE222     -0.0000
     88  N        -79.2060   72.5220   22.2930 N.am  223  PRO223     -0.2727
     89  CA       -80.2710   71.6240   22.7780 C.3   223  PRO223      0.1402
     90  C        -81.1700   71.1260   21.6370 C.2   223  PRO223      0.2269
     91  O        -81.3890   71.8710   20.6710 O.2   223  PRO223     -0.2865
     92  CB       -81.0880   72.5140   23.7400 C.3   223  PRO223      0.0296
     93  CG       -80.8790   73.8530   23.2280 C.3   223  PRO223      0.0237
     94  CD       -79.4240   73.8940   22.7590 C.3   223  PRO223      0.0939
     95  N        -73.4390   81.0280   23.7220 N.3   429  TRP429     -0.1227
     96  CA       -74.0720   79.6900   23.7810 C.3   429  TRP429      0.1737
     97  C        -73.1450   78.7030   24.4890 C.2   429  TRP429      0.2595
     98  O        -72.7110   78.9930   25.6160 O.2   429  TRP429     -0.2718
     99  CB       -74.4780   79.3000   22.3580 C.3   429  TRP429      0.0564
    100  CG       -75.2680   80.3550   21.6690 C.ar  429  TRP429      0.0003
    101  CD1      -74.8540   81.1840   20.6590 C.ar  429  TRP429      0.0946
    102  CD2      -76.6120   80.7280   21.9710 C.ar  429  TRP429      0.0152
    103  NE1      -75.8800   82.0360   20.3030 N.ar  429  TRP429     -0.2442
    104  CE2      -76.9670   81.7720   21.0970 C.ar  429  TRP429      0.0810
    105  CE3      -77.5600   80.2470   22.8680 C.ar  429  TRP429      0.0012
    106  CZ2      -78.2200   82.3560   21.1130 C.ar  429  TRP429      0.0191
    107  CZ3      -78.7870   80.8130   22.8860 C.ar  429  TRP429      0.0001
    108  CH2      -79.1190   81.8730   22.0210 C.ar  429  TRP429      0.0015
    109  N        -72.8320   77.5480   23.8880 N.am  430  ALA430     -0.1980
    110  CA       -72.0340   76.5080   24.5460 C.3   430  ALA430      0.1597
    111  C        -70.5890   76.9410   24.8000 C.2   430  ALA430      0.2287
    112  O        -69.9280   76.3700   25.6690 O.2   430  ALA430     -0.2864
    113  CB       -72.0740   75.2310   23.7060 C.3   430  ALA430      0.0319
@<TRIPOS>BOND
     1    60    61   ar
     2    60    58   ar
     3    63    61   ar
     4    63    65   ar
     5    61    59   ar
     6    65    64   ar
     7    58    57   ar
     8    59    57   ar
     9    59    62   ar
    10    86    87   ar
    11    86    84   ar
    12    57    56    1
    13    87    85   ar
    14    64    62   ar
    15    84    82   ar
    16    85    83   ar
    17    82    83   ar
    18    82    81    1
    19    52    53    1
    20    81    78    1
    21    53    56    1
    22    53    54    1
    23   103   101   ar
    24   103   104   ar
    25   101   100   ar
    26    91    90    2
    27    78    77    1
    28    78    79    1
    29    55    54    2
    30   104   106   ar
    31   104   102   ar
    32    54    66   am
    33   106   108   ar
    34    80    79    2
    35    77    75   am
    36    73    74    1
    37    79    88   am
    38    90    89    1
    39   100   102   ar
    40   100    99    1
    41   102   105   ar
    42   108   107   ar
    43    66    72    1
    44    66    67    1
    45    88    94    1
    46    88    89    1
    47    99    96    1
    48    75    74    1
    49    75    76    2
    50    72    71    1
    51    94    93    1
    52    89    92    1
    53    69    68    2
    54   105   107   ar
    55    93    92    1
    56    68    67    1
    57    67    70    1
    58   113   110    1
    59    95    96    1
    60    96    97    1
    61   109    97   am
    62   109   110    1
    63    19    17   ar
    64    71    70    1
    65    97    98    2
    66   110   111    1
    67   111   112    2
    68     1     2    1
    69    35    37   ar
    70    35    33   ar
    71    17    18   ar
    72    17    16    1
    73    37    36   ar
    74     5     2    1
    75     5     6    1
    76    32    33   ar
    77    32    30   ar
    78    33    31   ar
    79     8     6   ar
    80     8    10   ar
    81     2     3    1
    82    36    34   ar
    83     3     4    2
    84     6     7   ar
    85    16    13    1
    86    30    29   ar
    87    31    34   ar
    88    31    29   ar
    89    10    11   ar
    90    29    28    1
    91    21    20    1
    92    21    22    1
    93    20    14   am
    94     7     9   ar
    95    45    46    1
    96    50    49    1
    97    13    14    1
    98    13    12    1
    99    46    49    1
   100    46    47    1
   101    14    15    2
   102    11     9   ar
   103    28    25    1
   104    43    42    1
   105    49    51    1
   106    47    48    2
   107    22    23    2
   108    25    26    1
   109    25    24    1
   110    42    39    1
   111    42    44    1
   112    26    38   am
   113    26    27    2
   114    38    39    1
   115    39    40    1
   116    40    41    2
