@<TRIPOS>MOLECULE
tmp/5ixgA01.pdb
 95 94 0 0 0
SMALL
GASTEIGER

@<TRIPOS>ATOM
      1  N         46.8720    7.1200    0.8940 N.3    71  ALA71      -0.1231
      2  CA        45.9130    7.0060    1.9760 C.3    71  ALA71       0.1694
      3  C         46.5350    6.9520    3.3350 C.2    71  ALA71       0.2595
      4  O         45.8010    7.1760    4.2860 O.2    71  ALA71      -0.2718
      5  CB        45.0290    5.7860    1.7630 C.3    71  ALA71       0.0304
      6  N         47.8320    6.7110    3.4730 N.am   72  GLU72      -0.1920
      7  CA        48.5020    6.7980    4.7380 C.3    72  GLU72       0.1949
      8  C         48.5550    8.2290    5.2590 C.2    72  GLU72       0.2658
      9  O         48.8210    8.4330    6.4430 O.2    72  GLU72      -0.2711
     10  CB        49.8930    6.2460    4.6980 C.2    72  GLU72       0.0111
     11  CG        49.9950    4.7830    4.4610 C.2    72  GLU72       0.0838
     12  CD        51.3850    4.1990    4.6390 C.2    72  GLU72       0.3877
     13  OE1       52.0460    4.3770    5.7190 O.co2  72  GLU72      -0.2406
     14  OE2       51.7920    3.5180    3.6750 O.co2  72  GLU72      -0.2406
     15  N         48.3920    9.1900    4.3640 N.am   73  PHE73      -0.1971
     16  CA        48.4680   10.5820    4.8230 C.3    73  PHE73       0.1640
     17  C         47.2860   11.3940    4.1440 C.2    73  PHE73       0.2290
     18  O         46.1500   11.2550    4.5770 O.2    73  PHE73      -0.2864
     19  CB        49.8560   11.1460    4.6230 C.3    73  PHE73       0.0560
     20  CG        50.2020   12.2850    5.5760 C.ar   73  PHE73      -0.0200
     21  CD1       50.7050   12.0610    6.7980 C.ar   73  PHE73      -0.0042
     22  CD2       50.0530   13.5890    5.1800 C.ar   73  PHE73      -0.0042
     23  CE1       50.9140   13.1640    7.6660 C.ar   73  PHE73      -0.0003
     24  CE2       50.2680   14.6720    6.0540 C.ar   73  PHE73      -0.0003
     25  CZ        50.7340   14.4110    7.2650 C.ar   73  PHE73      -0.0000
     26  N         45.5820   11.2200    1.3650 N.3    75  ASP75      -0.1239
     27  CA        44.5480   10.5640    0.4970 C.3    75  ASP75       0.1674
     28  C         44.0200   11.5060   -0.5350 C.2    75  ASP75       0.2266
     29  O         42.8660   11.7930   -0.7040 O.2    75  ASP75      -0.2867
     30  CB        43.4500    9.9840    1.3710 C.3    75  ASP75       0.1410
     31  CG        42.7560    8.7940    0.7260 C.2    75  ASP75       0.3668
     32  OD1       43.0890    8.4870   -0.4310 O.co2  75  ASP75      -0.2456
     33  OD2       41.8530    8.2630    1.4140 O.co2  75  ASP75      -0.2456
     34  N         40.9590   10.9090   -2.8930 N.3    78  LYS78      -0.1231
     35  CA        39.6530   11.2390   -2.3400 C.3    78  LYS78       0.1693
     36  C         39.4920   12.7300   -2.0760 C.2    78  LYS78       0.2592
     37  O         38.5080   13.3200   -2.3470 O.2    78  LYS78      -0.2718
     38  CB        39.3110   10.5320   -1.0120 C.3    78  LYS78       0.0285
     39  CG        39.1980    9.0190   -1.0420 C.3    78  LYS78       0.0035
     40  CD        38.6480    8.6520    0.3090 C.3    78  LYS78       0.0206
     41  CE        38.5170    7.1680    0.4510 C.3    78  LYS78       0.1093
     42  NZ        37.9160    6.8420    1.7570 N.3    78  LYS78      -0.1314
     43  N         40.6030   13.3390   -1.5990 N.am   79  PHE79      -0.1976
     44  CA        40.5750   14.7400   -1.1690 C.3    79  PHE79       0.1639
     45  C         41.7040   15.5510   -1.8800 C.2    79  PHE79       0.2290
     46  O         42.7650   15.7760   -1.2270 O.2    79  PHE79      -0.2864
     47  CB        40.7070   14.7990    0.3370 C.3    79  PHE79       0.0560
     48  CG        39.7810   13.9220    1.1040 C.ar   79  PHE79      -0.0200
     49  CD1       38.4410   14.1290    1.0340 C.ar   79  PHE79      -0.0042
     50  CD2       40.2970   12.9090    1.8990 C.ar   79  PHE79      -0.0042
     51  CE1       37.6020   13.2340    1.7700 C.ar   79  PHE79      -0.0003
     52  CE2       39.4460   12.0710    2.6240 C.ar   79  PHE79      -0.0003
     53  CZ        38.1250   12.2490    2.4750 C.ar   79  PHE79      -0.0000
     54  N         41.8990   17.0040    4.1950 N.3   105  HIS105     -0.1241
     55  CA        41.7010   15.5830    4.3590 C.3   105  HIS105      0.1621
     56  C         40.2200   15.2850    4.6100 C.2   105  HIS105      0.2264
     57  O         39.8790   14.3530    5.3150 O.2   105  HIS105     -0.2867
     58  CB        42.6180   15.0550    5.4540 C.3   105  HIS105      0.0745
     59  CG        42.6800   13.5570    5.5760 C.ar  105  HIS105      0.0817
     60  ND1       42.3930   12.9220    6.7600 N.ar  105  HIS105     -0.2268
     61  CD2       42.9100   12.5920    4.6730 C.ar  105  HIS105      0.1154
     62  CE1       42.4870   11.5930    6.5990 C.ar  105  HIS105      0.1986
     63  NE2       42.8470   11.3710    5.3540 N.ar  105  HIS105     -0.2212
     64  N         42.5880   14.1940   11.0280 N.3   145  GLY145     -0.1210
     65  CA        42.7250   12.7390   10.6700 C.3   145  GLY145      0.1956
     66  C         44.1180   12.3840   10.1460 C.2   145  GLY145      0.2612
     67  O         44.3100   11.2810    9.5920 O.2   145  GLY145     -0.2717
     68  N         45.0900   13.2910   10.2050 N.am  146  LEU146     -0.1965
     69  CA        46.4210   13.1470    9.7140 C.3   146  LEU146      0.1728
     70  C         47.3890   12.8610   10.9290 C.2   146  LEU146      0.2616
     71  O         48.1840   13.7000   11.2860 O.2   146  LEU146     -0.2715
     72  CB        46.8740   14.3930    8.9380 C.3   146  LEU146      0.0311
     73  CG        46.0340   14.7560    7.7000 C.3   146  LEU146      0.0022
     74  CD1       46.5040   16.0740    7.2490 C.3   146  LEU146      0.0001
     75  CD2       46.2010   13.6940    6.6250 C.3   146  LEU146      0.0001
     76  N         47.3350   11.6500   11.4100 N.am  147  ASP147     -0.1957
     77  CA        48.1310   11.3480   12.6090 C.3   147  ASP147      0.1840
     78  C         49.3650   10.4740   12.3900 C.2   147  ASP147      0.2622
     79  O         50.0570    9.9930   13.3810 O.2   147  ASP147     -0.2715
     80  CB        47.1650   10.7740   13.6200 C.3   147  ASP147      0.1450
     81  CG        46.6000    9.4270   13.1960 C.2   147  ASP147      0.3671
     82  OD1       46.9100    8.9230   12.0710 O.co2 147  ASP147     -0.2456
     83  OD2       45.8790    8.8270   13.9990 O.co2 147  ASP147     -0.2456
     84  N         49.7390   10.3120   11.1380 N.am  148  TYR148     -0.1974
     85  CA        50.9380    9.4840   10.8850 C.3   148  TYR148      0.1639
     86  C         52.1620    9.9480   11.7610 C.2   148  TYR148      0.2290
     87  O         52.5250   11.1280   11.8030 O.2   148  TYR148     -0.2864
     88  CB        51.3020    9.6230    9.4380 C.3   148  TYR148      0.0560
     89  CG        52.4760    8.7810    8.9560 C.ar  148  TYR148     -0.0198
     90  CD1       53.8020    9.0210    9.3800 C.ar  148  TYR148     -0.0009
     91  CD2       52.2650    7.7700    8.0240 C.ar  148  TYR148     -0.0009
     92  CE1       54.8560    8.2390    8.8920 C.ar  148  TYR148      0.0417
     93  CE2       53.3050    7.0130    7.5310 C.ar  148  TYR148      0.0417
     94  CZ        54.5800    7.2390    7.9560 C.ar  148  TYR148      0.1957
     95  OH        55.5450    6.4250    7.4090 O.3   148  TYR148     -0.2866
@<TRIPOS>BOND
     1    34    35    1
     2    37    36    2
     3    35    36    1
     4    35    38    1
     5    36    43   am
     6    45    46    2
     7    45    44    1
     8    43    44    1
     9    44    47    1
    10    39    38    1
    11    39    40    1
    12    29    28    2
    13    28    27    1
    14    32    31   ar
    15    40    41    1
    16    47    48    1
    17    41    42    1
    18    27    26    1
    19    27    30    1
    20    31    30    1
    21    31    33   ar
    22     1     2    1
    23    49    48   ar
    24    49    51   ar
    25    48    50   ar
    26     5     2    1
    27    51    53   ar
    28    50    52   ar
    29     2     3    1
    30    53    52   ar
    31     3     6   am
    32     3     4    2
    33     6     7    1
    34    14    12   ar
    35    17    18    2
    36    17    16    1
    37    54    55    1
    38    55    56    1
    39    55    58    1
    40    15    16    1
    41    15     8   am
    42    11    12    1
    43    11    10    2
    44    56    57    2
    45    19    16    1
    46    19    20    1
    47    12    13   ar
    48    61    63   ar
    49    61    59   ar
    50    10     7    1
    51     7     8    1
    52    22    20   ar
    53    22    24   ar
    54     8     9    2
    55    63    62   ar
    56    58    59    1
    57    59    60   ar
    58    20    21   ar
    59    24    25   ar
    60    62    60   ar
    61    75    73    1
    62    21    23   ar
    63    74    73    1
    64    25    23   ar
    65    95    94    1
    66    93    94   ar
    67    93    91   ar
    68    73    72    1
    69    94    92   ar
    70    91    89   ar
    71    92    90   ar
    72    72    69    1
    73    89    90   ar
    74    89    88    1
    75    88    85    1
    76    67    66    2
    77    69    68    1
    78    69    70    1
    79    66    68   am
    80    66    65    1
    81    65    64    1
    82    85    84    1
    83    85    86    1
    84    70    71    2
    85    70    76   am
    86    84    78   am
    87    76    77    1
    88    86    87    2
    89    82    81   ar
    90    78    77    1
    91    78    79    2
    92    77    80    1
    93    81    80    1
    94    81    83   ar
