@<TRIPOS>MOLECULE
tmp/5ixjD00.pdb
 80 78 0 0 0
SMALL
GASTEIGER

@<TRIPOS>ATOM
      1  N        -12.3860  -22.8750   67.2330 N.3   103  GLU103     -0.1231
      2  CA       -13.1840  -21.6630   67.2270 C.3   103  GLU103      0.1699
      3  C        -12.4930  -20.6320   66.3540 C.2   103  GLU103      0.2593
      4  O        -11.2730  -20.6930   66.1410 O.2   103  GLU103     -0.2718
      5  CB       -13.3980  -21.1200   68.6600 C.3   103  GLU103      0.0402
      6  CG       -12.2010  -20.3800   69.2770 C.3   103  GLU103      0.1161
      7  CD       -11.3580  -21.2470   70.1900 C.2   103  GLU103      0.3649
      8  OE1      -11.8950  -22.2230   70.7380 O.co2 103  GLU103     -0.2457
      9  OE2      -10.1600  -20.9230   70.4180 O.co2 103  GLU103     -0.2457
     10  N        -13.2570  -19.6690   65.8760 N.am  104  THR104     -0.1939
     11  CA       -12.6750  -18.5760   65.1060 C.3   104  THR104      0.2028
     12  C        -13.4910  -17.3020   65.3030 C.2   104  THR104      0.2643
     13  O        -14.7020  -17.3600   65.4310 O.2   104  THR104     -0.2714
     14  CB       -12.5340  -18.9710   63.5900 C.3   104  THR104      0.1808
     15  OG1      -11.6350  -18.0780   62.9170 O.3   104  THR104     -0.2208
     16  CG2      -13.8710  -19.0030   62.8630 C.3   104  THR104      0.0379
     17  N        -12.7930  -16.1630   65.3610 N.am  105  GLY105     -0.1939
     18  CA       -13.4200  -14.8250   65.3280 C.3   105  GLY105      0.2014
     19  C        -13.3680  -14.1900   63.9410 C.2   105  GLY105      0.2639
     20  O        -14.3960  -14.0420   63.2750 O.2   105  GLY105     -0.2714
     21  N        -12.1670  -13.8380   63.4980 N.am  106  ALA106     -0.1963
     22  CA       -11.9830  -13.2420   62.1740 C.3   106  ALA106      0.1728
     23  C        -12.2870  -14.2430   61.0730 C.2   106  ALA106      0.2617
     24  O        -12.6040  -13.8560   59.9380 O.2   106  ALA106     -0.2715
     25  CB       -10.5630  -12.7190   62.0230 C.3   106  ALA106      0.0334
     26  N        -12.1620  -15.5320   61.3890 N.am  107  GLY107     -0.1940
     27  CA       -12.3370  -16.5720   60.3900 C.3   107  GLY107      0.2014
     28  C        -11.0290  -17.1180   59.8760 C.2   107  GLY107      0.2639
     29  O        -11.0240  -18.1130   59.1440 O.2   107  GLY107     -0.2714
     30  N         -9.9120  -16.5010   60.2650 N.am  108  GLN108     -0.1963
     31  CA        -8.6120  -16.8440   59.7080 C.3   108  GLN108      0.1733
     32  C         -8.1110  -18.1840   60.2380 C.2   108  GLN108      0.2616
     33  O         -7.6010  -19.0070   59.4840 O.2   108  GLN108     -0.2715
     34  CB        -7.5970  -15.6960   59.9200 C.3   108  GLN108      0.0408
     35  CG        -8.0260  -14.4710   59.0940 C.3   108  GLN108      0.0908
     36  CD        -7.3600  -13.1200   59.4190 C.2   108  GLN108      0.2608
     37  OE1       -7.7430  -12.0920   58.8200 O.2   108  GLN108     -0.2717
     38  NE2       -6.3620  -13.1080   60.2960 N.am  108  GLN108     -0.0878
     39  N         -8.2700  -18.4080   61.5400 N.am  109  HIS109     -0.1973
     40  CA        -7.9150  -19.6840   62.0930 C.3   109  HIS109      0.1656
     41  C         -8.8870  -20.7820   61.6440 C.2   109  HIS109      0.2291
     42  O         -8.4790  -21.9220   61.4420 O.2   109  HIS109     -0.2864
     43  CB        -7.8620  -19.6440   63.6270 C.3   109  HIS109      0.0771
     44  CG        -7.4750  -20.9590   64.2230 C.ar  109  HIS109      0.0820
     45  ND1       -6.3310  -21.6170   63.8430 N.ar  109  HIS109     -0.2267
     46  CD2       -8.1360  -21.7960   65.0560 C.ar  109  HIS109      0.1154
     47  CE1       -6.2840  -22.7910   64.4450 C.ar  109  HIS109      0.1986
     48  NE2       -7.3630  -22.9180   65.1940 N.ar  109  HIS109     -0.2212
     49  N        -16.6520  -14.4390   69.8950 N.3   160  LEU160     -0.1245
     50  CA       -15.5360  -15.3720   70.1340 C.3   160  LEU160      0.1561
     51  C        -15.5770  -16.0660   71.5180 C.2   160  LEU160      0.2260
     52  O        -15.4370  -17.2940   71.6030 O.2   160  LEU160     -0.2867
     53  CB       -14.1990  -14.6330   69.9340 C.3   160  LEU160      0.0270
     54  CG       -12.8900  -15.4270   69.9680 C.3   160  LEU160      0.0019
     55  CD1      -12.8940  -16.5620   68.9590 C.3   160  LEU160      0.0001
     56  CD2      -11.7200  -14.4830   69.7050 C.3   160  LEU160      0.0001
     57  N         -7.4070   -9.9700   62.5870 N.3   295  GLY295     -0.1225
     58  CA        -6.7790  -11.0360   63.3390 C.3   295  GLY295      0.1811
     59  C         -6.0620  -10.5810   64.5970 C.2   295  GLY295      0.2280
     60  O         -5.5800  -11.3970   65.3580 O.2   295  GLY295     -0.2866
     61  N         -7.7160   -9.3480   67.1110 N.3   297  ASP297     -0.1225
     62  CA        -8.9290   -9.1630   67.9500 C.3   297  ASP297      0.1805
     63  C         -8.9870  -10.0030   69.2390 C.2   297  ASP297      0.2597
     64  O         -9.9260   -9.8450   70.0140 O.2   297  ASP297     -0.2718
     65  CB       -10.2100   -9.4540   67.1280 C.3   297  ASP297      0.1424
     66  CG       -10.3000  -10.9190   66.6500 C.2   297  ASP297      0.3668
     67  OD1       -9.2430  -11.5360   66.3450 O.co2 297  ASP297     -0.2456
     68  OD2      -11.4380  -11.4460   66.5290 O.co2 297  ASP297     -0.2456
     69  N         -8.0510  -10.9330   69.4490 N.am  298  TYR298     -0.1976
     70  CA        -8.0890  -11.7670   70.6600 C.3   298  TYR298      0.1639
     71  C         -7.9150  -10.8540   71.8820 C.2   298  TYR298      0.2290
     72  O         -6.9990  -10.0370   71.9190 O.2   298  TYR298     -0.2864
     73  CB        -6.9810  -12.8390   70.6150 C.3   298  TYR298      0.0560
     74  CG        -7.0520  -13.8600   71.7280 C.ar  298  TYR298     -0.0198
     75  CD1       -8.0090  -14.8780   71.7160 C.ar  298  TYR298     -0.0009
     76  CD2       -6.1310  -13.8400   72.7720 C.ar  298  TYR298     -0.0009
     77  CE1       -8.0650  -15.8200   72.7290 C.ar  298  TYR298      0.0417
     78  CE2       -6.1940  -14.7590   73.7940 C.ar  298  TYR298      0.0417
     79  CZ        -7.1480  -15.7560   73.7670 C.ar  298  TYR298      0.1957
     80  OH        -7.2020  -16.6760   74.7820 O.3   298  TYR298     -0.2866
@<TRIPOS>BOND
     1    37    36    2
     2    35    36    1
     3    35    34    1
     4    29    28    2
     5    36    38   am
     6    33    32    2
     7    31    34    1
     8    31    32    1
     9    31    30    1
    10    28    30   am
    11    28    27    1
    12    24    23    2
    13    32    39   am
    14    27    26    1
    15    23    26   am
    16    23    22    1
    17    42    41    2
    18    39    40    1
    19    41    40    1
    20    25    22    1
    21    40    43    1
    22    22    21    1
    23    57    58    1
    24    16    14    1
    25    15    14    1
    26    20    19    2
    27    58    59    1
    28    21    19   am
    29    14    11    1
    30    43    44    1
    31    45    44   ar
    32    45    47   ar
    33    19    18    1
    34    44    46   ar
    35    47    48   ar
    36    59    60    2
    37    46    48   ar
    38    11    12    1
    39    11    10    1
    40    12    17   am
    41    12    13    2
    42    18    17    1
    43    10     3   am
    44     4     3    2
    45    67    66   ar
    46     3     2    1
    47    68    66   ar
    48    66    65    1
    49    61    62    1
    50    65    62    1
    51     2     1    1
    52     2     5    1
    53    62    63    1
    54     5     6    1
    55    55    54    1
    56    63    69   am
    57    63    64    2
    58     6     7    1
    59    69    70    1
    60    56    54    1
    61    49    50    1
    62    53    54    1
    63    53    50    1
    64    50    51    1
    65     7     9   ar
    66     7     8   ar
    67    73    70    1
    68    73    74    1
    69    70    71    1
    70    51    52    2
    71    75    74   ar
    72    75    77   ar
    73    74    76   ar
    74    71    72    2
    75    77    79   ar
    76    76    78   ar
    77    79    78   ar
    78    79    80    1
