@<TRIPOS>MOLECULE
tmp/5ixkB00.pdb
 202 195 0 0 0
SMALL
GASTEIGER

@<TRIPOS>ATOM
      1  N         13.2480   14.7260  -27.3040 N.3    19  GLN19      -0.1245
      2  CA        14.3260   13.7960  -27.5000 C.3    19  GLN19       0.1566
      3  C         14.1740   12.3070  -27.3340 C.2    19  GLN19       0.2260
      4  O         15.1280   11.5740  -27.4510 O.2    19  GLN19      -0.2867
      5  CB        15.2650   13.9580  -26.3230 C.3    19  GLN19       0.0367
      6  CG        16.5270   13.1400  -26.3840 C.3    19  GLN19       0.0905
      7  CD        17.4680   13.3870  -25.2320 C.2    19  GLN19       0.2608
      8  OE1       18.4860   12.7400  -25.1080 O.2    19  GLN19      -0.2717
      9  NE2       17.1420   14.3350  -24.4070 N.am   19  GLN19      -0.0878
     10  N         32.3130    8.0390  -17.0900 N.3    50  TRP50      -0.1241
     11  CA        31.8280    9.4320  -16.9430 C.3    50  TRP50       0.1605
     12  C         31.8480   10.0580  -18.3270 C.2    50  TRP50       0.2264
     13  O         30.8770   10.6710  -18.7820 O.2    50  TRP50      -0.2867
     14  CB        32.6870   10.2450  -15.9560 C.3    50  TRP50       0.0550
     15  CG        32.3280   10.0490  -14.5780 C.ar   50  TRP50       0.0003
     16  CD1       32.9130    9.1730  -13.6810 C.ar   50  TRP50       0.0946
     17  CD2       31.2800   10.6960  -13.8640 C.ar   50  TRP50       0.0152
     18  NE1       32.2830    9.2280  -12.4540 N.ar   50  TRP50      -0.2442
     19  CE2       31.2760   10.1500  -12.5250 C.ar   50  TRP50       0.0810
     20  CE3       30.3370   11.6650  -14.2060 C.ar   50  TRP50       0.0012
     21  CZ2       30.3610   10.5460  -11.5440 C.ar   50  TRP50       0.0191
     22  CZ3       29.4090   12.0650  -13.2210 C.ar   50  TRP50       0.0001
     23  CH2       29.4320   11.4950  -11.8960 C.ar   50  TRP50       0.0015
     24  N         28.5330    9.0140  -19.8700 N.3    53  CYS53      -0.1221
     25  CA        27.4790    9.7460  -19.2170 C.3    53  CYS53       0.1808
     26  C         27.5250   11.2470  -19.3950 C.2    53  CYS53       0.2601
     27  O         26.5120   11.8900  -19.6860 O.2    53  CYS53      -0.2717
     28  CB        27.4600    9.4020  -17.7290 C.3    53  CYS53       0.0970
     29  SG        27.0930    7.6480  -17.5540 S.3    53  CYS53      -0.0800
     30  N         28.7040   11.8020  -19.2840 N.am   54  ALA54      -0.1979
     31  CA        28.8470   13.1990  -19.5950 C.3    54  ALA54       0.1597
     32  C         28.4370   13.4880  -21.0480 C.2    54  ALA54       0.2287
     33  O         27.7620   14.4940  -21.2720 O.2    54  ALA54      -0.2864
     34  CB        30.2520   13.6640  -19.2900 C.3    54  ALA54       0.0319
     35  N         26.1710   11.9570  -22.6790 N.3    56  HIS56      -0.1226
     36  CA        24.7290   11.7950  -22.8050 C.3    56  HIS56       0.1752
     37  C         24.0570   13.0020  -22.2190 C.2    56  HIS56       0.2595
     38  O         23.0770   13.5110  -22.8300 O.2    56  HIS56      -0.2718
     39  CB        24.2480   10.5590  -22.0720 C.3    56  HIS56       0.0759
     40  CG        24.7190    9.2970  -22.6800 C.ar   56  HIS56       0.0818
     41  ND1       24.5600    9.0280  -24.0280 N.ar   56  HIS56      -0.2268
     42  CD2       25.3330    8.2180  -22.1500 C.ar   56  HIS56       0.1154
     43  CE1       25.0770    7.8390  -24.3050 C.ar   56  HIS56       0.1986
     44  NE2       25.5480    7.3230  -23.1790 N.ar   56  HIS56      -0.2212
     45  N         24.5660   13.4250  -21.0300 N.am   57  LEU57      -0.1980
     46  CA        24.0900   14.6220  -20.3640 C.3    57  LEU57       0.1596
     47  C         24.1700   15.8920  -21.2130 C.2    57  LEU57       0.2287
     48  O         23.2070   16.6120  -21.2880 O.2    57  LEU57      -0.2864
     49  CB        24.8300   14.8640  -19.0690 C.3    57  LEU57       0.0297
     50  CG        24.4660   16.1340  -18.2460 C.3    57  LEU57       0.0022
     51  CD1       24.9470   15.9520  -16.8630 C.3    57  LEU57       0.0001
     52  CD2       25.2110   17.3530  -18.7590 C.3    57  LEU57       0.0001
     53  N         21.3890   15.6000  -23.8690 N.3    60  ALA60      -0.1245
     54  CA        20.0750   15.8370  -23.3010 C.3    60  ALA60       0.1562
     55  C         19.8850   17.2990  -23.0060 C.2    60  ALA60       0.2260
     56  O         18.7670   17.8120  -23.0710 O.2    60  ALA60      -0.2867
     57  CB        19.8210   14.9560  -21.9690 C.3    60  ALA60       0.0290
     58  N         19.9410   21.1970  -16.5550 N.3    91  MET91      -0.1245
     59  CA        20.2580   19.9050  -15.9480 C.3    91  MET91       0.1570
     60  C         19.1010   19.4070  -15.0270 C.2    91  MET91       0.2261
     61  O         18.7530   18.2580  -15.0290 O.2    91  MET91      -0.2867
     62  CB        21.5210   20.0690  -15.2120 C.3    91  MET91       0.0387
     63  CG        22.4670   18.8990  -15.3060 C.3    91  MET91       0.0595
     64  SD        24.0500   19.5190  -14.7120 S.3    91  MET91      -0.1393
     65  CE        24.6110   20.1230  -16.2250 C.3    91  MET91       0.0692
     66  N         16.4270   18.1260  -17.2700 N.3    94  VAL94      -0.1231
     67  CA        16.8450   16.8070  -17.7260 C.3    94  VAL94       0.1692
     68  C         16.5090   15.7630  -16.6900 C.2    94  VAL94       0.2591
     69  O         16.0840   14.6640  -17.0260 O.2    94  VAL94      -0.2718
     70  CB        18.3350   16.7530  -18.1830 C.3    94  VAL94       0.0266
     71  CG1       18.8150   15.3160  -18.3310 C.3    94  VAL94       0.0020
     72  CG2       18.4520   17.4700  -19.5030 C.3    94  VAL94       0.0020
     73  N         16.7290   16.1090  -15.4390 N.am   95  LEU95      -0.1980
     74  CA        16.3840   15.1690  -14.3840 C.3    95  LEU95       0.1596
     75  C         14.9240   14.8010  -14.4140 C.2    95  LEU95       0.2287
     76  O         14.5870   13.6600  -14.3230 O.2    95  LEU95      -0.2864
     77  CB        16.7560   15.7330  -13.0450 C.3    95  LEU95       0.0297
     78  CG        16.7950   14.7210  -11.9410 C.3    95  LEU95       0.0022
     79  CD1       17.5240   13.4630  -12.3480 C.3    95  LEU95       0.0001
     80  CD2       17.4190   15.3550  -10.6890 C.3    95  LEU95       0.0001
     81  N         13.9250   12.5860  -17.2500 N.3    98  MET98      -0.1245
     82  CA        14.3040   11.1350  -16.9940 C.3    98  MET98       0.1570
     83  C         13.1390   10.2080  -16.4790 C.2    98  MET98       0.2261
     84  O         13.0440    9.0110  -16.8360 O.2    98  MET98      -0.2867
     85  CB        15.4570   10.9970  -16.0130 C.3    98  MET98       0.0387
     86  CG        16.6600   11.8400  -16.3390 C.3    98  MET98       0.0595
     87  SD        18.1800   11.5700  -15.3440 S.3    98  MET98      -0.1393
     88  CE        19.1090   12.1310  -16.6840 C.3    98  MET98       0.0692
     89  N         16.0080    1.8180  -15.8970 N.3   109  VAL109     -0.1231
     90  CA        16.0180    3.0250  -16.6800 C.3   109  VAL109      0.1692
     91  C         16.5540    2.7030  -18.0680 C.2   109  VAL109      0.2592
     92  O         17.2600    1.6830  -18.2670 O.2   109  VAL109     -0.2718
     93  CB        16.8970    4.0520  -15.9670 C.3   109  VAL109      0.0266
     94  CG1       18.3850    3.6280  -15.9990 C.3   109  VAL109      0.0020
     95  CG2       16.7060    5.4390  -16.5590 C.3   109  VAL109      0.0020
     96  N         16.2360    3.5560  -19.0300 N.am  110  PHE110     -0.1962
     97  CA        16.6750    3.3850  -20.4140 C.3   110  PHE110      0.1771
     98  C         18.0060    4.0450  -20.6220 C.2   110  PHE110      0.2619
     99  O         18.1390    5.2500  -20.5170 O.2   110  PHE110     -0.2715
    100  CB        15.6870    4.0240  -21.3590 C.3   110  PHE110      0.0574
    101  CG        15.9310    3.7170  -22.8110 C.ar  110  PHE110     -0.0200
    102  CD1       15.6120    2.4670  -23.3320 C.ar  110  PHE110     -0.0042
    103  CD2       16.4860    4.6700  -23.6500 C.ar  110  PHE110     -0.0042
    104  CE1       15.8540    2.1770  -24.6380 C.ar  110  PHE110     -0.0003
    105  CE2       16.7140    4.3710  -24.9930 C.ar  110  PHE110     -0.0003
    106  CZ        16.3830    3.1420  -25.4840 C.ar  110  PHE110     -0.0000
    107  N         18.9940    3.2640  -21.0040 N.am  111  PHE111     -0.1974
    108  CA        20.3250    3.8000  -21.1600 C.3   111  PHE111      0.1639
    109  C         21.0320    3.0960  -22.3140 C.2   111  PHE111      0.2290
    110  O         21.2030    1.8890  -22.2590 O.2   111  PHE111     -0.2864
    111  CB        21.0620    3.6180  -19.8540 C.3   111  PHE111      0.0560
    112  CG        22.5340    3.6490  -19.9860 C.ar  111  PHE111     -0.0200
    113  CD1       23.1400    4.6830  -20.6860 C.ar  111  PHE111     -0.0042
    114  CD2       23.3240    2.6480  -19.4290 C.ar  111  PHE111     -0.0042
    115  CE1       24.5060    4.7180  -20.8350 C.ar  111  PHE111     -0.0003
    116  CE2       24.6930    2.6730  -19.5960 C.ar  111  PHE111     -0.0003
    117  CZ        25.2870    3.7090  -20.3020 C.ar  111  PHE111     -0.0000
    118  N         25.5100    1.2330  -12.9200 N.3   121  PHE121     -0.1241
    119  CA        26.3050    2.4650  -12.8570 C.3   121  PHE121      0.1605
    120  C         27.4470    2.4430  -11.8250 C.2   121  PHE121      0.2264
    121  O         28.0490    3.4700  -11.5010 O.2   121  PHE121     -0.2867
    122  CB        25.3630    3.6620  -12.7230 C.3   121  PHE121      0.0534
    123  CG        24.4450    3.8400  -13.9060 C.ar  121  PHE121     -0.0203
    124  CD1       24.9170    4.3210  -15.1140 C.ar  121  PHE121     -0.0042
    125  CD2       23.1110    3.5210  -13.8190 C.ar  121  PHE121     -0.0042
    126  CE1       24.0830    4.4950  -16.2260 C.ar  121  PHE121     -0.0003
    127  CE2       22.2660    3.7030  -14.9260 C.ar  121  PHE121     -0.0003
    128  CZ        22.7600    4.1650  -16.1430 C.ar  121  PHE121     -0.0000
    129  N         30.9290    4.4620  -12.1040 N.3   124  LEU124     -0.1245
    130  CA        30.9070    5.8960  -11.7840 C.3   124  LEU124      0.1561
    131  C         31.3320    6.1540  -10.3820 C.2   124  LEU124      0.2260
    132  O         31.7020    7.2910  -10.0270 O.2   124  LEU124     -0.2867
    133  CB        29.5260    6.4940  -11.9880 C.3   124  LEU124      0.0270
    134  CG        28.9800    6.4010  -13.4050 C.3   124  LEU124      0.0019
    135  CD1       27.5510    6.9240  -13.4360 C.3   124  LEU124      0.0001
    136  CD2       29.8670    7.1410  -14.3960 C.3   124  LEU124      0.0001
    137  N         24.6390    8.7430   -4.5880 N.3   129  LEU129     -0.1231
    138  CA        24.0640    9.6070   -5.6380 C.3   129  LEU129      0.1693
    139  C         23.1810    8.8770   -6.6870 C.2   129  LEU129      0.2591
    140  O         22.0590    9.3010   -6.9560 O.2   129  LEU129     -0.2718
    141  CB        25.1910   10.3100   -6.3790 C.3   129  LEU129      0.0284
    142  CG        24.8410   11.1160   -7.6190 C.3   129  LEU129      0.0019
    143  CD1       24.0140   12.3220   -7.1820 C.3   129  LEU129      0.0001
    144  CD2       26.0700   11.5780   -8.3790 C.3   129  LEU129      0.0001
    145  N         23.6780    7.7890   -7.2480 N.am  130  ILE130     -0.1980
    146  CA        22.8950    7.0030   -8.1600 C.3   130  ILE130      0.1595
    147  C         21.5950    6.5650   -7.5180 C.2   130  ILE130      0.2287
    148  O         20.5170    6.8980   -7.9950 O.2   130  ILE130     -0.2864
    149  CB        23.6850    5.8000   -8.6930 C.3   130  ILE130      0.0276
    150  CG1       24.9400    6.2820   -9.4370 C.3   130  ILE130      0.0022
    151  CG2       22.8580    5.0010   -9.6940 C.3   130  ILE130      0.0022
    152  CD1       24.7020    7.2760  -10.5340 C.3   130  ILE130      0.0001
    153  N         19.1020    9.3120   -7.4460 N.3   133  ILE133     -0.1231
    154  CA        18.5300    9.6070   -8.7960 C.3   133  ILE133      0.1692
    155  C         17.4210    8.5840   -8.9830 C.2   133  ILE133      0.2592
    156  O         16.3260    8.9420   -9.3650 O.2   133  ILE133     -0.2718
    157  CB        19.5690    9.5430   -9.9440 C.3   133  ILE133      0.0266
    158  CG1       20.5210   10.7440   -9.8900 C.3   133  ILE133      0.0019
    159  CG2       18.8780    9.5000  -11.3000 C.3   133  ILE133      0.0020
    160  CD1       21.8870   10.5280  -10.5570 C.3   133  ILE133      0.0001
    161  N         17.6970    7.3190   -8.6580 N.am  134  PHE134     -0.1976
    162  CA        16.6550    6.2550   -8.7350 C.3   134  PHE134      0.1639
    163  C         15.4260    6.5300   -7.8650 C.2   134  PHE134      0.2290
    164  O         14.3070    6.4810   -8.3910 O.2   134  PHE134     -0.2864
    165  CB        17.2410    4.8330   -8.5420 C.3   134  PHE134      0.0560
    166  CG        17.7680    4.2090   -9.8540 C.ar  134  PHE134     -0.0200
    167  CD1       18.9550    4.6530  -10.4360 C.ar  134  PHE134     -0.0042
    168  CD2       17.0520    3.2430  -10.5270 C.ar  134  PHE134     -0.0042
    169  CE1       19.4510    4.1020  -11.6160 C.ar  134  PHE134     -0.0003
    170  CE2       17.5450    2.6700  -11.6770 C.ar  134  PHE134     -0.0003
    171  CZ        18.7340    3.1220  -12.2530 C.ar  134  PHE134     -0.0000
    172  N         20.3270   17.4390   -6.0130 N.3   208  LEU208     -0.1231
    173  CA        20.6240   16.3440   -6.8960 C.3   208  LEU208      0.1693
    174  C         21.5190   16.7610   -8.1210 C.2   208  LEU208      0.2592
    175  O         22.3930   15.9990   -8.5740 O.2   208  LEU208     -0.2718
    176  CB        19.3000   15.7670   -7.3880 C.3   208  LEU208      0.0284
    177  CG        18.6160   14.6560   -6.6120 C.3   208  LEU208      0.0019
    178  CD1       17.1480   14.5820   -6.9420 C.3   208  LEU208      0.0001
    179  CD2       19.2760   13.3180   -6.8810 C.3   208  LEU208      0.0001
    180  N         21.2650   17.9580   -8.6590 N.am  209  CYS209     -0.1970
    181  CA        22.0600   18.5070   -9.7470 C.3   209  CYS209      0.1712
    182  C         23.1170   19.4220   -9.1330 C.2   209  CYS209      0.2296
    183  O         22.9890   20.6390   -9.1590 O.2   209  CYS209     -0.2864
    184  CB        21.1590   19.2830  -10.7210 C.3   209  CYS209      0.0983
    185  SG        19.7330   18.3540  -11.3390 S.3   209  CYS209     -0.0798
    186  N         28.7990   17.0050   -8.4550 N.3   212  HIS212     -0.1226
    187  CA        29.1880   15.8530   -9.2680 C.3   212  HIS212      0.1752
    188  C         28.9740   16.0630  -10.8300 C.2   212  HIS212      0.2595
    189  O         29.6610   15.4070  -11.6310 O.2   212  HIS212     -0.2718
    190  CB        28.6230   14.5300   -8.7140 C.3   212  HIS212      0.0759
    191  CG        29.5250   13.8530   -7.7230 C.ar  212  HIS212      0.0818
    192  ND1       30.8640   13.6120   -7.9630 N.ar  212  HIS212     -0.2268
    193  CD2       29.2760   13.3740   -6.4820 C.ar  212  HIS212      0.1154
    194  CE1       31.4000   13.0160   -6.9160 C.ar  212  HIS212      0.1986
    195  NE2       30.4560   12.8540   -6.0040 N.ar  212  HIS212     -0.2212
    196  N         28.1070   16.9940  -11.2380 N.am  213  VAL213     -0.1980
    197  CA        27.9080   17.3260  -12.7000 C.3   213  VAL213      0.1595
    198  C         28.3210   18.7460  -13.1510 C.2   213  VAL213      0.2287
    199  O         27.9250   19.1970  -14.2450 O.2   213  VAL213     -0.2864
    200  CB        26.4890   16.9730  -13.2380 C.3   213  VAL213      0.0276
    201  CG1       26.3620   15.4820  -13.3770 C.3   213  VAL213      0.0022
    202  CG2       25.3940   17.4660  -12.3080 C.3   213  VAL213      0.0022
@<TRIPOS>BOND
     1     2     3    1
     2     2     1    1
     3     2     5    1
     4     4     3    2
     5     6     5    1
     6     6     7    1
     7   106   105   ar
     8   106   104   ar
     9     7     8    2
    10     7     9   am
    11   105   103   ar
    12   104   102   ar
    13    43    41   ar
    14    43    44   ar
    15    41    40   ar
    16    53    54    1
    17   103   101   ar
    18   102   101   ar
    19    54    55    1
    20    54    57    1
    21    44    42   ar
    22    56    55    2
    23    38    37    2
    24   101   100    1
    25    36    35    1
    26    36    37    1
    27    36    39    1
    28    40    42   ar
    29    40    39    1
    30   109   110    2
    31   109   108    1
    32    37    45   am
    33   100    97    1
    34    48    47    2
    35    33    32    2
    36    47    46    1
    37   108   107    1
    38   108   111    1
    39    32    31    1
    40    45    46    1
    41   107    98   am
    42   115   113   ar
    43   115   117   ar
    44   113   112   ar
    45    98    99    2
    46    98    97    1
    47    97    96    1
    48    46    49    1
    49   117   116   ar
    50   112   111    1
    51   112   114   ar
    52    24    25    1
    53    27    26    2
    54   116   114   ar
    55    31    34    1
    56    31    30    1
    57    72    70    1
    58    26    30   am
    59    26    25    1
    60    25    28    1
    61    49    50    1
    62    96    91   am
    63    13    12    2
    64    52    50    1
    65    71    70    1
    66    12    11    1
    67    92    91    2
    68    50    51    1
    69    70    67    1
    70    91    90    1
    71    28    29    1
    72    67    66    1
    73    67    68    1
    74    81    82    1
    75    10    11    1
    76    69    68    2
    77    82    83    1
    78    82    85    1
    79    11    14    1
    80    84    83    2
    81    68    73   am
    82    88    87    1
    83    90    93    1
    84    90    89    1
    85    95    93    1
    86    58    59    1
    87    86    85    1
    88    86    87    1
    89   126   128   ar
    90   126   124   ar
    91    65    64    1
    92   128   127   ar
    93    94    93    1
    94    14    15    1
    95    59    62    1
    96    59    60    1
    97    73    74    1
    98    63    62    1
    99    63    64    1
   100   124   123   ar
   101    61    60    2
   102   127   125   ar
   103    15    17   ar
   104    15    16   ar
   105    75    74    1
   106    75    76    2
   107   136   134    1
   108    74    77    1
   109   199   198    2
   110    20    17   ar
   111    20    22   ar
   112   123   125   ar
   113   123   122    1
   114    17    19   ar
   115    16    18   ar
   116   135   134    1
   117   134   133    1
   118   201   200    1
   119   200   197    1
   120   200   202    1
   121    22    23   ar
   122   198   197    1
   123    77    78    1
   124   118   119    1
   125   119   122    1
   126   119   120    1
   127   197   196    1
   128    19    18   ar
   129    19    21   ar
   130    79    78    1
   131   171   170   ar
   132   171   169   ar
   133   129   130    1
   134   133   130    1
   135    78    80    1
   136    23    21   ar
   137   120   121    2
   138   130   131    1
   139   170   168   ar
   140   189   188    2
   141   169   167   ar
   142   185   184    1
   143   159   157    1
   144   196   188   am
   145   188   187    1
   146   184   181    1
   147   160   158    1
   148   152   150    1
   149   168   166   ar
   150   167   166   ar
   151   131   132    2
   152   157   158    1
   153   157   154    1
   154   166   165    1
   155   181   182    1
   156   181   180    1
   157   151   149    1
   158   150   149    1
   159   156   155    2
   160   187   190    1
   161   187   186    1
   162   183   182    2
   163   155   154    1
   164   155   161   am
   165   154   153    1
   166   162   161    1
   167   162   165    1
   168   162   163    1
   169   190   191    1
   170   149   146    1
   171   180   174   am
   172   175   174    2
   173   164   163    2
   174   144   142    1
   175   146   147    1
   176   146   145    1
   177   174   173    1
   178   148   147    2
   179   192   191   ar
   180   192   194   ar
   181   191   193   ar
   182   142   143    1
   183   142   141    1
   184   176   173    1
   185   176   177    1
   186   145   139   am
   187   140   139    2
   188   178   177    1
   189   194   195   ar
   190   173   172    1
   191   179   177    1
   192   139   138    1
   193   193   195   ar
   194   141   138    1
   195   138   137    1
