@<TRIPOS>MOLECULE
tmp/5ixmA04.pdb
 97 93 0 0 0
SMALL
GASTEIGER

@<TRIPOS>ATOM
      1  N         87.5190   99.1360   81.3800 N.3   263  PHE263     -0.1241
      2  CA        87.3880   99.8370   80.1140 C.3   263  PHE263      0.1605
      3  C         88.7640  100.0700   79.5100 C.2   263  PHE263      0.2264
      4  O         89.6690  100.5610   80.1850 O.2   263  PHE263     -0.2867
      5  CB        86.6560  101.1650   80.3010 C.3   263  PHE263      0.0534
      6  CG        86.7190  102.0600   79.1010 C.ar  263  PHE263     -0.0203
      7  CD1       86.0320  101.7350   77.9440 C.ar  263  PHE263     -0.0042
      8  CD2       87.4670  103.2230   79.1270 C.ar  263  PHE263     -0.0042
      9  CE1       86.0860  102.5530   76.8370 C.ar  263  PHE263     -0.0003
     10  CE2       87.5250  104.0460   78.0220 C.ar  263  PHE263     -0.0003
     11  CZ        86.8340  103.7090   76.8740 C.ar  263  PHE263     -0.0000
     12  N         90.7490  101.4540   75.7850 N.3   265  VAL265     -0.1245
     13  CA        90.7190  101.8930   74.3920 C.3   265  VAL265      0.1561
     14  C         92.1440  101.9840   73.8540 C.2   265  VAL265      0.2260
     15  O         92.9980  102.6460   74.4340 O.2   265  VAL265     -0.2867
     16  CB        89.9810  103.2450   74.2250 C.3   265  VAL265      0.0252
     17  CG1       90.5030  104.2890   75.2070 C.3   265  VAL265      0.0019
     18  CG2       90.0760  103.7300   72.7820 C.3   265  VAL265      0.0019
     19  N         94.3230  103.9160   76.6500 N.3   291  TYR291     -0.1241
     20  CA        93.8030  104.3170   77.9460 C.3   291  TYR291      0.1605
     21  C         93.1710  103.1180   78.6360 C.2   291  TYR291      0.2264
     22  O         92.4610  102.3230   78.0100 O.2   291  TYR291     -0.2867
     23  CB        92.7820  105.4500   77.8320 C.3   291  TYR291      0.0534
     24  CG        92.1820  105.7870   79.1770 C.ar  291  TYR291     -0.0201
     25  CD1       92.9220  106.4690   80.1320 C.ar  291  TYR291     -0.0009
     26  CD2       90.8940  105.3880   79.5080 C.ar  291  TYR291     -0.0009
     27  CE1       92.3930  106.7630   81.3710 C.ar  291  TYR291      0.0417
     28  CE2       90.3550  105.6780   80.7480 C.ar  291  TYR291      0.0417
     29  CZ        91.1080  106.3670   81.6750 C.ar  291  TYR291      0.1957
     30  OH        90.5800  106.6600   82.9110 O.3   291  TYR291     -0.2866
     31  N         91.1080  101.9130   82.3170 N.3   293  TYR293     -0.1241
     32  CA        90.4550  102.2390   83.5790 C.3   293  TYR293      0.1605
     33  C         89.8000  101.0230   84.2280 C.2   293  TYR293      0.2264
     34  O         88.9820  100.3300   83.6160 O.2   293  TYR293     -0.2867
     35  CB        89.4090  103.3410   83.4030 C.3   293  TYR293      0.0534
     36  CG        88.7530  103.7050   84.7180 C.ar  293  TYR293     -0.0201
     37  CD1       89.3940  104.5480   85.6200 C.ar  293  TYR293     -0.0009
     38  CD2       87.5080  103.1950   85.0720 C.ar  293  TYR293     -0.0009
     39  CE1       88.8150  104.8790   86.8310 C.ar  293  TYR293      0.0417
     40  CE2       86.9190  103.5220   86.2840 C.ar  293  TYR293      0.0417
     41  CZ        87.5780  104.3650   87.1580 C.ar  293  TYR293      0.1957
     42  OH        87.0040  104.6980   88.3620 O.3   293  TYR293     -0.2866
     43  N         88.8560  100.7870   91.8260 N.3   296  TYR296     -0.1241
     44  CA        89.5470  100.1690   92.9500 C.3   296  TYR296      0.1605
     45  C         88.6260   99.3030   93.7960 C.2   296  TYR296      0.2264
     46  O         87.4610   99.6350   94.0120 O.2   296  TYR296     -0.2867
     47  CB        90.1970  101.2460   93.8200 C.3   296  TYR296      0.0534
     48  CG        90.5960  100.7780   95.2020 C.ar  296  TYR296     -0.0201
     49  CD1       91.6310   99.8690   95.3810 C.ar  296  TYR296     -0.0009
     50  CD2       89.9500  101.2630   96.3310 C.ar  296  TYR296     -0.0009
     51  CE1       92.0000   99.4440   96.6440 C.ar  296  TYR296      0.0417
     52  CE2       90.3140  100.8470   97.5960 C.ar  296  TYR296      0.0417
     53  CZ        91.3390   99.9380   97.7470 C.ar  296  TYR296      0.1957
     54  OH        91.7020   99.5220   99.0060 O.3   296  TYR296     -0.2866
     55  N         94.1070  103.5220   85.9400 N.3   333  ASN333     -0.1240
     56  CA        93.6260  104.8080   85.4650 C.3   333  ASN333      0.1653
     57  C         94.7990  105.4760   84.7860 C.2   333  ASN333      0.2266
     58  O         95.3810  106.4200   85.3180 O.2   333  ASN333     -0.2867
     59  CB        93.0750  105.6620   86.6090 C.3   333  ASN333      0.1155
     60  CG        92.3160  106.8830   86.1150 C.2   333  ASN333      0.2627
     61  OD1       92.0810  107.0450   84.9160 O.2   333  ASN333     -0.2716
     62  ND2       91.9070  107.7370   87.0450 N.am  333  ASN333     -0.0877
     63  N         97.4400  106.0390   80.9530 N.3   335  VAL335     -0.1245
     64  CA        97.6700  106.0520   79.5180 C.3   335  VAL335      0.1561
     65  C         99.0490  105.5020   79.1990 C.2   335  VAL335      0.2260
     66  O        100.0550  106.0250   79.6710 O.2   335  VAL335     -0.2867
     67  CB        97.5490  107.4640   78.9320 C.3   335  VAL335      0.0252
     68  CG1       97.9300  107.4570   77.4650 C.3   335  VAL335      0.0019
     69  CG2       96.1430  107.9810   79.1130 C.3   335  VAL335      0.0019
     70  N         97.3520  108.5020   86.1600 N.3   362  PHE362     -0.1227
     71  CA        96.5470  109.6270   86.6210 C.3   362  PHE362      0.1736
     72  C         96.2400  109.4880   88.1040 C.2   362  PHE362      0.2596
     73  O         95.9740  110.4710   88.7960 O.2   362  PHE362     -0.2718
     74  CB        95.2480  109.7200   85.8300 C.3   362  PHE362      0.0547
     75  CG        95.4470  110.0510   84.3860 C.ar  362  PHE362     -0.0202
     76  CD1       95.9160  111.2940   84.0060 C.ar  362  PHE362     -0.0042
     77  CD2       95.1640  109.1170   83.4080 C.ar  362  PHE362     -0.0042
     78  CE1       96.1020  111.5990   82.6770 C.ar  362  PHE362     -0.0003
     79  CE2       95.3480  109.4160   82.0790 C.ar  362  PHE362     -0.0003
     80  CZ        95.8160  110.6590   81.7100 C.ar  362  PHE362     -0.0000
     81  N         96.2830  108.2520   88.5840 N.am  363  SER363     -0.1952
     82  CA        96.1070  107.9720   89.9990 C.3   363  SER363      0.1924
     83  C         96.9090  106.7340   90.3810 C.2   363  SER363      0.2314
     84  O         97.2800  105.9370   89.5180 O.2   363  SER363     -0.2863
     85  CB        94.6290  107.7820   90.3330 C.3   363  SER363      0.2116
     86  OG        94.0650  106.7400   89.5570 O.3   363  SER363     -0.2180
     87  N         96.2410  100.5190   93.0800 N.3   366  ARG366     -0.1245
     88  CA        96.0230   99.9130   94.3900 C.3   366  ARG366      0.1563
     89  C         95.3370   98.5580   94.2900 C.2   366  ARG366      0.2260
     90  O         94.6550   98.2600   93.3080 O.2   366  ARG366     -0.2867
     91  CB        95.1960  100.8270   95.3000 C.3   366  ARG366      0.0307
     92  CG        95.8900  102.1020   95.7390 C.3   366  ARG366      0.0489
     93  CD        95.1010  102.7710   96.8570 C.3   366  ARG366      0.2205
     94  NE        93.8860  103.4230   96.3800 N.pl3 366  ARG366     -0.0865
     95  CZ        92.9530  103.9310   97.1780 C.cat 366  ARG366      0.5346
     96  NH1       93.0910  103.8540   98.4950 N.pl3 366  ARG366      0.1354
     97  NH2       91.8760  104.5080   96.6610 N.pl3 366  ARG366      0.1354
@<TRIPOS>BOND
     1    18    16    1
     2    14    13    1
     3    14    15    2
     4    16    13    1
     5    16    17    1
     6    13    12    1
     7    19    20    1
     8     9    11   ar
     9     9     7   ar
    10    11    10   ar
    11    68    67    1
    12    23    20    1
    13    23    24    1
    14     7     6   ar
    15    20    21    1
    16    22    21    2
    17    10     8   ar
    18    67    69    1
    19    67    64    1
    20     6     8   ar
    21     6     5    1
    22    24    26   ar
    23    24    25   ar
    24    65    64    1
    25    65    66    2
    26    26    28   ar
    27     3     2    1
    28     3     4    2
    29    64    63    1
    30     2     5    1
    31     2     1    1
    32    25    27   ar
    33    28    29   ar
    34    27    29   ar
    35    29    30    1
    36    80    79   ar
    37    80    78   ar
    38    79    77   ar
    39    31    32    1
    40    78    76   ar
    41    35    32    1
    42    35    36    1
    43    77    75   ar
    44    32    33    1
    45    34    33    2
    46    76    75   ar
    47    75    74    1
    48    36    38   ar
    49    36    37   ar
    50    57    58    2
    51    57    56    1
    52    61    60    2
    53    38    40   ar
    54    56    55    1
    55    56    59    1
    56    37    39   ar
    57    74    71    1
    58    60    59    1
    59    60    62   am
    60    70    71    1
    61    40    41   ar
    62    71    72    1
    63    39    41   ar
    64    41    42    1
    65    72    81   am
    66    72    73    2
    67    81    82    1
    68    84    83    2
    69    86    85    1
    70    82    85    1
    71    82    83    1
    72    43    44    1
    73    44    45    1
    74    44    47    1
    75    87    88    1
    76    90    89    2
    77    45    46    2
    78    47    48    1
    79    89    88    1
    80    88    91    1
    81    48    49   ar
    82    48    50   ar
    83    91    92    1
    84    49    51   ar
    85    92    93    1
    86    50    52   ar
    87    94    93    1
    88    94    95    2
    89    51    53   ar
    90    97    95    1
    91    95    96    1
    92    52    53   ar
    93    53    54    1
