@<TRIPOS>MOLECULE
tmp/5ixmA06.pdb
 104 102 0 0 0
SMALL
GASTEIGER

@<TRIPOS>ATOM
      1  N         88.1420   98.3260   64.8570 N.3   217  LEU217     -0.1231
      2  CA        88.1150   99.0770   63.6100 C.3   217  LEU217      0.1693
      3  C         89.4920   99.0340   62.9550 C.2   217  LEU217      0.2593
      4  O         90.4500   99.6210   63.4620 O.2   217  LEU217     -0.2718
      5  CB        87.6850  100.5220   63.8580 C.3   217  LEU217      0.0284
      6  CG        86.2670  100.7190   64.3970 C.3   217  LEU217      0.0019
      7  CD1       85.9570  102.1970   64.5700 C.3   217  LEU217      0.0001
      8  CD2       85.2420  100.0530   63.4900 C.3   217  LEU217      0.0001
      9  N         89.5820   98.3370   61.8290 N.am  218  SER218     -0.1938
     10  CA        90.8630   98.0930   61.1790 C.3   218  SER218      0.2055
     11  C         90.9760   98.7750   59.8180 C.2   218  SER218      0.2643
     12  O         89.9750   99.0730   59.1710 O.2   218  SER218     -0.2714
     13  CB        91.0950   96.5920   61.0220 C.3   218  SER218      0.2130
     14  OG        92.3150   96.3370   60.3510 O.3   218  SER218     -0.2179
     15  N         92.2120   99.0120   59.3940 N.am  219  ASN219     -0.1971
     16  CA        92.4880   99.7280   58.1570 C.3   219  ASN219      0.1688
     17  C         93.8120   99.2680   57.5520 C.2   219  ASN219      0.2292
     18  O         94.5010   98.4350   58.1380 O.2   219  ASN219     -0.2864
     19  CB        92.5090  101.2300   58.4280 C.3   219  ASN219      0.1181
     20  CG        92.1130  102.0460   57.2270 C.2   219  ASN219      0.2629
     21  OD1       91.9560  101.5180   56.1260 O.2   219  ASN219     -0.2716
     22  ND2       91.9380  103.3470   57.4310 N.am  219  ASN219     -0.0877
     23  N         96.1560  101.5410   56.9970 N.3   221  TRP221     -0.1227
     24  CA        96.9730  102.3490   57.8890 C.3   221  TRP221      0.1737
     25  C         96.2540  102.3950   59.2260 C.2   221  TRP221      0.2596
     26  O         95.0560  102.6540   59.2730 O.2   221  TRP221     -0.2718
     27  CB        97.1740  103.7690   57.3490 C.3   221  TRP221      0.0564
     28  CG        95.8790  104.5010   57.1300 C.ar  221  TRP221      0.0003
     29  CD1       95.1490  104.5530   55.9800 C.ar  221  TRP221      0.0946
     30  CD2       95.1520  105.2680   58.1020 C.ar  221  TRP221      0.0152
     31  NE1       94.0180  105.3100   56.1730 N.ar  221  TRP221     -0.2442
     32  CE2       93.9950  105.7560   57.4690 C.ar  221  TRP221      0.0810
     33  CE3       95.3690  105.5850   59.4490 C.ar  221  TRP221      0.0012
     34  CZ2       93.0580  106.5460   58.1320 C.ar  221  TRP221      0.0191
     35  CZ3       94.4370  106.3650   60.1070 C.ar  221  TRP221      0.0001
     36  CH2       93.2970  106.8390   59.4480 C.ar  221  TRP221      0.0015
     37  N         96.9670  102.1220   60.3090 N.am  222  GLY222     -0.1942
     38  CA        96.3800  102.1870   61.6350 C.3   222  GLY222      0.2014
     39  C         95.1320  101.3650   61.9360 C.2   222  GLY222      0.2640
     40  O         94.4980  100.7900   61.0510 O.2   222  GLY222     -0.2714
     41  N         94.7930  101.3090   63.2200 N.am  223  SER223     -0.1935
     42  CA        93.6120  100.6060   63.6990 C.3   223  SER223      0.2055
     43  C         93.2970  101.0370   65.1270 C.2   223  SER223      0.2642
     44  O         94.1970  101.4200   65.8790 O.2   223  SER223     -0.2714
     45  CB        93.8150   99.0930   63.6310 C.3   223  SER223      0.2130
     46  OG        94.8210   98.6830   64.5370 O.3   223  SER223     -0.2179
     47  N         92.0210  100.9880   65.4990 N.am  224  ILE224     -0.1977
     48  CA        91.6240  101.3240   66.8620 C.3   224  ILE224      0.1596
     49  C         90.7050  100.2280   67.4030 C.2   224  ILE224      0.2287
     50  O         90.0000   99.5680   66.6470 O.2   224  ILE224     -0.2864
     51  CB        90.9220  102.7050   66.9380 C.3   224  ILE224      0.0276
     52  CG1       90.7610  103.1550   68.3940 C.3   224  ILE224      0.0022
     53  CG2       89.5830  102.6740   66.2200 C.3   224  ILE224      0.0022
     54  CD1       90.2450  104.5670   68.5510 C.3   224  ILE224      0.0001
     55  N         94.6810  102.4720   70.3950 N.3   267  GLY267     -0.1210
     56  CA        94.8180  102.8870   69.0120 C.3   267  GLY267      0.1956
     57  C         96.2560  102.9200   68.5290 C.2   267  GLY267      0.2612
     58  O         97.1800  103.1590   69.3040 O.2   267  GLY267     -0.2717
     59  N         96.4380  102.6730   67.2360 N.am  268  LYS268     -0.1965
     60  CA        97.7610  102.6070   66.6260 C.3   268  LYS268      0.1728
     61  C         97.7050  103.1790   65.2110 C.2   268  LYS268      0.2616
     62  O         96.7050  103.0110   64.5270 O.2   268  LYS268     -0.2715
     63  CB        98.2610  101.1580   66.6110 C.3   268  LYS268      0.0311
     64  CG        99.5850  100.9370   65.9010 C.3   268  LYS268      0.0038
     65  CD        99.9140   99.4560   65.8300 C.3   268  LYS268      0.0206
     66  CE       101.1830   99.2050   65.0380 C.3   268  LYS268      0.1093
     67  NZ       101.4800   97.7490   64.9280 N.3   268  LYS268     -0.1314
     68  N         98.7520  103.8790   64.7830 N.am  269  VAL269     -0.1977
     69  CA        98.7850  104.4290   63.4220 C.3   269  VAL269      0.1596
     70  C        100.1540  104.1890   62.7730 C.2   269  VAL269      0.2287
     71  O        101.1720  104.2240   63.4530 O.2   269  VAL269     -0.2864
     72  CB        98.4430  105.9420   63.4210 C.3   269  VAL269      0.0276
     73  CG1       98.7980  106.5970   62.0920 C.3   269  VAL269      0.0022
     74  CG2       96.9670  106.1510   63.7280 C.3   269  VAL269      0.0022
     75  N        103.0960  105.3220   65.9900 N.3   287  PRO287     -0.2102
     76  CA       102.6110  105.7240   67.3130 C.3   287  PRO287      0.1504
     77  C        101.4510  104.8590   67.8040 C.2   287  PRO287      0.2576
     78  O        100.6360  104.3700   67.0090 O.2   287  PRO287     -0.2718
     79  CB       102.1600  107.1680   67.0950 C.3   287  PRO287      0.0282
     80  CG       101.7760  107.2160   65.6610 C.3   287  PRO287      0.0208
     81  CD       102.7390  106.3060   64.9530 C.3   287  PRO287      0.0893
     82  N        101.3910  104.6880   69.1210 N.am  288  ARG288     -0.1966
     83  CA       100.4090  103.8270   69.7610 C.3   288  ARG288      0.1729
     84  C        100.0110  104.4010   71.1160 C.2   288  ARG288      0.2616
     85  O        100.8700  104.7990   71.8980 O.2   288  ARG288     -0.2715
     86  CB       100.9690  102.4160   69.9310 C.3   288  ARG288      0.0348
     87  CG       100.0260  101.4630   70.6290 C.3   288  ARG288      0.0492
     88  CD       100.6490  100.0890   70.7960 C.3   288  ARG288      0.2205
     89  NE        99.7180   99.1610   71.4270 N.pl3 288  ARG288     -0.0865
     90  CZ       100.0040   97.8990   71.7180 C.cat 288  ARG288      0.5346
     91  NH1      101.2080   97.4110   71.4460 N.pl3 288  ARG288      0.1354
     92  NH2       99.0890   97.1280   72.2880 N.pl3 288  ARG288      0.1354
     93  N         98.7110  104.4500   71.3900 N.am  289  ALA289     -0.1977
     94  CA        98.2170  105.0010   72.6490 C.3   289  ALA289      0.1597
     95  C         97.1100  104.1240   73.2150 C.2   289  ALA289      0.2287
     96  O         96.2920  103.5970   72.4720 O.2   289  ALA289     -0.2864
     97  CB        97.7190  106.4270   72.4540 C.3   289  ALA289      0.0319
     98  N        101.6840  105.0140   76.2380 N.3   337  THR337     -0.1218
     99  CA       102.0110  105.4630   74.8920 C.3   337  THR337      0.1862
    100  C        103.3360  104.8710   74.4370 C.2   337  THR337      0.2287
    101  O        104.2130  104.5850   75.2510 O.2   337  THR337     -0.2866
    102  CB       102.0690  106.9980   74.8040 C.3   337  THR337      0.1770
    103  OG1      103.0320  107.4950   75.7420 O.3   337  THR337     -0.2211
    104  CG2      100.7170  107.5970   75.1340 C.3   337  THR337      0.0375
@<TRIPOS>BOND
     1    29    31   ar
     2    29    28   ar
     3    21    20    2
     4    31    32   ar
     5    23    24    1
     6    28    27    1
     7    28    30   ar
     8    20    22   am
     9    20    19    1
    10    27    24    1
    11    32    30   ar
    12    32    34   ar
    13    17    18    2
    14    17    16    1
    15    24    25    1
    16    30    33   ar
    17    34    36   ar
    18    16    19    1
    19    16    15    1
    20    12    11    2
    21    25    26    2
    22    25    37   am
    23    15    11   am
    24    36    35   ar
    25    33    35   ar
    26    11    10    1
    27    37    38    1
    28    14    13    1
    29    13    10    1
    30    40    39    2
    31    10     9    1
    32    38    39    1
    33     9     3   am
    34    39    41   am
    35    73    72    1
    36    70    69    1
    37    70    71    2
    38     3     4    2
    39     3     2    1
    40    41    42    1
    41    72    69    1
    42    72    74    1
    43    69    68    1
    44     8     6    1
    45     2     5    1
    46     2     1    1
    47    45    42    1
    48    45    46    1
    49    42    43    1
    50     5     6    1
    51     6     7    1
    52    62    61    2
    53    68    61   am
    54    67    66    1
    55    81    80    1
    56    81    75    1
    57    66    65    1
    58    43    47   am
    59    43    44    2
    60    61    60    1
    61    47    48    1
    62    80    79    1
    63    65    64    1
    64    64    63    1
    65    75    76    1
    66    53    51    1
    67    63    60    1
    68    60    59    1
    69    50    49    2
    70    48    51    1
    71    48    49    1
    72    51    52    1
    73    78    77    2
    74    79    76    1
    75    59    57   am
    76    76    77    1
    77    77    82   am
    78    52    54    1
    79    57    56    1
    80    57    58    2
    81    56    55    1
    82    82    83    1
    83    83    86    1
    84    83    84    1
    85    86    87    1
    86    87    88    1
    87    88    89    1
    88    84    93   am
    89    84    85    2
    90    93    94    1
    91    89    90    2
    92    91    90    1
    93    90    92    1
    94    97    94    1
    95    96    95    2
    96    94    95    1
    97   100    99    1
    98   100   101    2
    99   102    99    1
   100   102   104    1
   101   102   103    1
   102    99    98    1
