@<TRIPOS>MOLECULE
tmp/5ixmA01.pdb
 96 94 0 0 0
SMALL
GASTEIGER

@<TRIPOS>ATOM
      1  N        113.3030  107.0590   52.4850 N.3   275  MET275     -0.1245
      2  CA       114.4180  107.8330   53.0160 C.3   275  MET275      0.1570
      3  C        115.0590  108.6290   51.8820 C.2   275  MET275      0.2261
      4  O        114.9670  108.2460   50.7160 O.2   275  MET275     -0.2867
      5  CB       115.4250  106.9180   53.7110 C.3   275  MET275      0.0387
      6  CG       114.7850  106.0600   54.7980 C.3   275  MET275      0.0595
      7  SD       115.9470  105.2300   55.8990 S.3   275  MET275     -0.1393
      8  CE       116.7760  106.6340   56.6420 C.3   275  MET275      0.0692
      9  N        115.1740  102.3690   50.5610 N.3   281  PHE281     -0.1241
     10  CA       114.8660  102.0400   51.9450 C.3   281  PHE281      0.1605
     11  C        113.5950  102.7510   52.3830 C.2   281  PHE281      0.2264
     12  O        113.2600  103.8150   51.8610 O.2   281  PHE281     -0.2867
     13  CB       116.0320  102.4170   52.8670 C.3   281  PHE281      0.0534
     14  CG       117.2420  101.5380   52.7120 C.ar  281  PHE281     -0.0203
     15  CD1      118.0870  101.6770   51.6250 C.ar  281  PHE281     -0.0042
     16  CD2      117.5390  100.5790   53.6640 C.ar  281  PHE281     -0.0042
     17  CE1      119.1970  100.8660   51.4850 C.ar  281  PHE281     -0.0003
     18  CE2      118.6470   99.7670   53.5290 C.ar  281  PHE281     -0.0003
     19  CZ       119.4770   99.9110   52.4400 C.ar  281  PHE281     -0.0000
     20  N        112.8640  100.1080   59.7490 N.3   343  ILE343     -0.1245
     21  CA       113.5570  100.3890   58.4950 C.3   343  ILE343      0.1561
     22  C        113.6210   99.1410   57.6230 C.2   343  ILE343      0.2260
     23  O        114.1810   98.1220   58.0170 O.2   343  ILE343     -0.2867
     24  CB       114.9850  100.9270   58.7220 C.3   343  ILE343      0.0252
     25  CG1      114.9350  102.3580   59.2580 C.3   343  ILE343      0.0019
     26  CG2      115.7760  100.9120   57.4200 C.3   343  ILE343      0.0019
     27  CD1      116.2980  102.9750   59.4740 C.3   343  ILE343      0.0001
     28  N        115.3700   95.5720   58.6160 N.3   351  ARG351     -0.1231
     29  CA       116.7870   95.5380   58.9520 C.3   351  ARG351      0.1694
     30  C        117.1080   96.2700   60.2510 C.2   351  ARG351      0.2592
     31  O        118.0760   95.9380   60.9350 O.2   351  ARG351     -0.2718
     32  CB       117.6040   96.1250   57.8050 C.3   351  ARG351      0.0321
     33  CG       117.3890   95.4020   56.4880 C.3   351  ARG351      0.0489
     34  CD       118.6100   95.5220   55.6170 C.3   351  ARG351      0.2205
     35  NE       119.7720   95.0330   56.3460 N.pl3 351  ARG351     -0.0865
     36  CZ       120.9880   94.9220   55.8330 C.cat 351  ARG351      0.5346
     37  NH1      121.2150   95.2630   54.5710 N.pl3 351  ARG351      0.1354
     38  NH2      121.9760   94.4660   56.5880 N.pl3 351  ARG351      0.1354
     39  N        116.2940   97.2620   60.5930 N.am  352  PHE352     -0.1976
     40  CA       116.4570   97.9690   61.8560 C.3   352  PHE352      0.1639
     41  C        115.0920   98.2180   62.4780 C.2   352  PHE352      0.2290
     42  O        114.0860   98.3100   61.7760 O.2   352  PHE352     -0.2864
     43  CB       117.2060   99.2930   61.6650 C.3   352  PHE352      0.0560
     44  CG       117.3790  100.0770   62.9370 C.ar  352  PHE352     -0.0200
     45  CD1      118.3730   99.7430   63.8420 C.ar  352  PHE352     -0.0042
     46  CD2      116.5360  101.1370   63.2360 C.ar  352  PHE352     -0.0042
     47  CE1      118.5300  100.4540   65.0200 C.ar  352  PHE352     -0.0003
     48  CE2      116.6880  101.8520   64.4120 C.ar  352  PHE352     -0.0003
     49  CZ       117.6870  101.5100   65.3050 C.ar  352  PHE352     -0.0000
     50  N        118.6480   95.1830   65.2560 N.3   385  TRP385     -0.1241
     51  CA       119.4340   95.6480   64.1250 C.3   385  TRP385      0.1605
     52  C        120.0630   94.4680   63.3980 C.2   385  TRP385      0.2264
     53  O        120.8500   93.7100   63.9750 O.2   385  TRP385     -0.2867
     54  CB       120.5170   96.6260   64.5880 C.3   385  TRP385      0.0550
     55  CG       121.3410   97.2090   63.4690 C.ar  385  TRP385      0.0003
     56  CD1      121.0640   97.1610   62.1320 C.ar  385  TRP385      0.0946
     57  CD2      122.5770   97.9240   63.5960 C.ar  385  TRP385      0.0152
     58  NE1      122.0480   97.8030   61.4210 N.ar  385  TRP385     -0.2442
     59  CE2      122.9880   98.2810   62.2960 C.ar  385  TRP385      0.0810
     60  CE3      123.3750   98.2970   64.6820 C.ar  385  TRP385      0.0012
     61  CZ2      124.1620   98.9900   62.0530 C.ar  385  TRP385      0.0191
     62  CZ3      124.5420   99.0030   64.4370 C.ar  385  TRP385      0.0001
     63  CH2      124.9230   99.3410   63.1330 C.ar  385  TRP385      0.0015
     64  N        122.6520   93.8760   61.0870 N.3   387  ILE387     -0.1231
     65  CA       123.8400   94.5460   60.5750 C.3   387  ILE387      0.1692
     66  C        124.2660   93.9840   59.2190 C.2   387  ILE387      0.2592
     67  O        124.6230   94.7370   58.3120 O.2   387  ILE387     -0.2718
     68  CB       124.9880   94.4310   61.5900 C.3   387  ILE387      0.0266
     69  CG1      124.5200   94.9590   62.9500 C.3   387  ILE387      0.0019
     70  CG2      126.2150   95.1750   61.1010 C.3   387  ILE387      0.0020
     71  CD1      125.4720   94.6920   64.0870 C.3   387  ILE387      0.0001
     72  N        124.2220   92.6610   59.0900 N.am  388  ASN388     -0.1960
     73  CA       124.3400   91.9990   57.7930 C.3   388  ASN388      0.1819
     74  C        123.6720   90.6240   57.8320 C.2   388  ASN388      0.2621
     75  O        122.9780   90.2970   58.7940 O.2   388  ASN388     -0.2715
     76  CB       125.8040   91.8750   57.3600 C.3   388  ASN388      0.1195
     77  CG       126.6620   91.1660   58.3850 C.2   388  ASN388      0.2630
     78  OD1      126.4900   89.9730   58.6420 O.2   388  ASN388     -0.2716
     79  ND2      127.6090   91.8930   58.9630 N.am  388  ASN388     -0.0877
     80  N        123.8730   89.8250   56.7860 N.am  389  ASP389     -0.1957
     81  CA       123.1960   88.5320   56.6720 C.3   389  ASP389      0.1840
     82  C        123.5920   87.5370   57.7590 C.2   389  ASP389      0.2621
     83  O        122.8970   86.5460   57.9760 O.2   389  ASP389     -0.2715
     84  CB       123.4640   87.9080   55.3010 C.3   389  ASP389      0.1450
     85  CG       122.6780   88.5760   54.1920 C.2   389  ASP389      0.3671
     86  OD1      121.5680   89.0790   54.4690 O.co2 389  ASP389     -0.2456
     87  OD2      123.1660   88.5910   53.0410 O.co2 389  ASP389     -0.2456
     88  N        124.7020   87.7990   58.4420 N.am  390  GLN390     -0.1977
     89  CA       125.1980   86.8730   59.4520 C.3   390  GLN390      0.1601
     90  C        125.3390   87.5170   60.8260 C.2   390  GLN390      0.2287
     91  O        125.5560   86.8250   61.8190 O.2   390  GLN390     -0.2864
     92  CB       126.5420   86.2840   59.0170 C.3   390  GLN390      0.0394
     93  CG       126.4560   85.3240   57.8400 C.3   390  GLN390      0.0908
     94  CD       126.3990   86.0360   56.5060 C.2   390  GLN390      0.2608
     95  OE1      126.8960   87.1520   56.3650 O.2   390  GLN390     -0.2717
     96  NE2      125.7820   85.3960   55.5190 N.am  390  GLN390     -0.0878
@<TRIPOS>BOND
     1     9    10    1
     2     4     3    2
     3    17    15   ar
     4    17    19   ar
     5    15    14   ar
     6    12    11    2
     7     3     2    1
     8    10    11    1
     9    10    13    1
    10    19    18   ar
    11     1     2    1
    12    14    13    1
    13    14    16   ar
    14     2     5    1
    15    87    85   ar
    16    18    16   ar
    17     5     6    1
    18    85    86   ar
    19    85    84    1
    20    37    36    1
    21     6     7    1
    22    84    81    1
    23    96    94   am
    24    34    35    1
    25    34    33    1
    26    36    35    2
    27    36    38    1
    28     7     8    1
    29    95    94    2
    30    33    32    1
    31    94    93    1
    32    81    80    1
    33    81    82    1
    34    80    74   am
    35    76    73    1
    36    76    77    1
    37    26    24    1
    38    22    23    2
    39    22    21    1
    40    82    83    2
    41    82    88   am
    42    73    74    1
    43    73    72    1
    44    32    29    1
    45    74    75    2
    46    93    92    1
    47    67    66    2
    48    77    78    2
    49    77    79   am
    50    88    89    1
    51    21    24    1
    52    21    20    1
    53    28    29    1
    54    24    25    1
    55    29    30    1
    56    92    89    1
    57    72    66   am
    58    66    65    1
    59    25    27    1
    60    89    90    1
    61    30    39   am
    62    30    31    2
    63    65    64    1
    64    65    68    1
    65    39    40    1
    66    90    91    2
    67    70    68    1
    68    58    56   ar
    69    58    59   ar
    70    68    69    1
    71    43    40    1
    72    43    44    1
    73    42    41    2
    74    40    41    1
    75    61    59   ar
    76    61    63   ar
    77    56    55   ar
    78    59    57   ar
    79    44    46   ar
    80    44    45   ar
    81    69    71    1
    82    63    62   ar
    83    46    48   ar
    84    52    53    2
    85    52    51    1
    86    55    57   ar
    87    55    54    1
    88    57    60   ar
    89    45    47   ar
    90    51    54    1
    91    51    50    1
    92    48    49   ar
    93    62    60   ar
    94    47    49   ar
