@<TRIPOS>MOLECULE
tmp/5ixmC06.pdb
 100 98 0 0 0
SMALL
GASTEIGER

@<TRIPOS>ATOM
      1  N         66.6030  146.6540   73.8560 N.3    32  PHE32      -0.1241
      2  CA        67.0590  146.7500   72.4740 C.3    32  PHE32       0.1605
      3  C         68.5720  146.9620   72.3880 C.2    32  PHE32       0.2264
      4  O         69.1320  147.7960   73.0990 O.2    32  PHE32      -0.2867
      5  CB        66.3380  147.8910   71.7490 C.3    32  PHE32       0.0534
      6  CG        64.8550  147.6870   71.6080 C.ar   32  PHE32      -0.0203
      7  CD1       64.3350  146.9650   70.5450 C.ar   32  PHE32      -0.0042
      8  CD2       63.9790  148.2310   72.5350 C.ar   32  PHE32      -0.0042
      9  CE1       62.9680  146.7830   70.4150 C.ar   32  PHE32      -0.0003
     10  CE2       62.6120  148.0530   72.4110 C.ar   32  PHE32      -0.0003
     11  CZ        62.1060  147.3280   71.3500 C.ar   32  PHE32      -0.0000
     12  N         70.9840  143.2430   65.4420 N.3    52  PHE52      -0.1241
     13  CA        69.9880  143.9230   66.2520 C.3    52  PHE52       0.1605
     14  C         69.2260  142.9170   67.1040 C.2    52  PHE52       0.2264
     15  O         68.4680  142.0990   66.5930 O.2    52  PHE52      -0.2867
     16  CB        69.0380  144.7140   65.3420 C.3    52  PHE52       0.0534
     17  CG        67.8250  145.2610   66.0410 C.ar   52  PHE52      -0.0203
     18  CD1       67.9530  146.1500   67.0940 C.ar   52  PHE52      -0.0042
     19  CD2       66.5510  144.9030   65.6250 C.ar   52  PHE52      -0.0042
     20  CE1       66.8340  146.6600   67.7340 C.ar   52  PHE52      -0.0003
     21  CE2       65.4270  145.4110   66.2580 C.ar   52  PHE52      -0.0003
     22  CZ        65.5700  146.2920   67.3150 C.ar   52  PHE52      -0.0000
     23  N         66.5570  142.0230   70.2370 N.3    54  TYR54      -0.1241
     24  CA        65.4190  142.5800   70.9540 C.3    54  TYR54       0.1605
     25  C         64.7520  141.5700   71.8800 C.2    54  TYR54       0.2264
     26  O         64.8640  140.3540   71.6860 O.2    54  TYR54      -0.2867
     27  CB        64.3860  143.1250   69.9650 C.3    54  TYR54       0.0534
     28  CG        63.7740  142.0770   69.0620 C.ar   54  TYR54      -0.0201
     29  CD1       62.6700  141.3390   69.4700 C.ar   54  TYR54      -0.0009
     30  CD2       64.2920  141.8330   67.7960 C.ar   54  TYR54      -0.0009
     31  CE1       62.1050  140.3840   68.6500 C.ar   54  TYR54       0.0417
     32  CE2       63.7310  140.8810   66.9670 C.ar   54  TYR54       0.0417
     33  CZ        62.6370  140.1600   67.3990 C.ar   54  TYR54       0.1957
     34  OH        62.0760  139.2090   66.5790 O.3    54  TYR54      -0.2866
     35  N         60.8360  141.3240   73.4820 N.3    56  LEU56      -0.1245
     36  CA        59.4880  141.8640   73.6050 C.3    56  LEU56       0.1561
     37  C         58.5160  140.7940   74.0880 C.2    56  LEU56       0.2260
     38  O         58.8920  139.6330   74.2540 O.2    56  LEU56      -0.2867
     39  CB        59.0270  142.4530   72.2710 C.3    56  LEU56       0.0270
     40  CG        59.9200  143.5730   71.7300 C.3    56  LEU56       0.0019
     41  CD1       59.5010  143.9830   70.3310 C.3    56  LEU56       0.0001
     42  CD2       59.8880  144.7690   72.6710 C.3    56  LEU56       0.0001
     43  N         55.9270  139.3810   72.4780 N.3    58  PRO58      -0.2116
     44  CA        55.8010  138.2270   71.5770 C.3    58  PRO58       0.1372
     45  C         57.0500  137.3440   71.5210 C.2    58  PRO58       0.2244
     46  O         57.0170  136.2960   70.8760 O.2    58  PRO58      -0.2868
     47  CB        55.5310  138.8740   70.2100 C.3    58  PRO58       0.0268
     48  CG        56.0390  140.2670   70.3360 C.3    58  PRO58       0.0207
     49  CD        55.7590  140.6520   71.7490 C.3    58  PRO58       0.0892
     50  N         67.8890  140.2350   64.4910 N.3    63  MET63      -0.1245
     51  CA        67.9780  140.5210   63.0660 C.3    63  MET63       0.1570
     52  C         69.4230  140.8350   62.6940 C.2    63  MET63       0.2261
     53  O         70.2240  141.1990   63.5520 O.2    63  MET63      -0.2867
     54  CB        67.0570  141.6810   62.6860 C.3    63  MET63       0.0387
     55  CG        65.5920  141.4080   62.9560 C.3    63  MET63       0.0595
     56  SD        64.5520  142.8410   62.6530 S.3    63  MET63      -0.1393
     57  CE        64.9800  143.1980   60.9550 C.3    63  MET63       0.0692
     58  N         66.7430  136.7630   60.3170 N.3    91  TRP91      -0.1241
     59  CA        65.8000  137.0650   61.3810 C.3    91  TRP91       0.1605
     60  C         65.4730  135.7790   62.1270 C.2    91  TRP91       0.2264
     61  O         64.9690  134.8230   61.5430 O.2    91  TRP91      -0.2867
     62  CB        64.5240  137.7070   60.8310 C.3    91  TRP91       0.0550
     63  CG        63.6130  138.2460   61.8950 C.ar   91  TRP91       0.0003
     64  CD1       63.8580  138.3020   63.2380 C.ar   91  TRP91       0.0946
     65  CD2       62.3080  138.7990   61.7030 C.ar   91  TRP91       0.0152
     66  NE1       62.7860  138.8610   63.8920 N.ar   91  TRP91      -0.2442
     67  CE2       61.8210  139.1740   62.9720 C.ar   91  TRP91       0.0810
     68  CE3       61.5030  139.0170   60.5810 C.ar   91  TRP91       0.0012
     69  CZ2       60.5670  139.7520   63.1490 C.ar   91  TRP91       0.0191
     70  CZ3       60.2610  139.5940   60.7580 C.ar   91  TRP91       0.0001
     71  CH2       59.8040  139.9540   62.0320 C.ar   91  TRP91       0.0015
     72  N         63.4150  134.4660   65.6520 N.3    93  HIS93      -0.1241
     73  CA        62.5160  134.8850   66.7160 C.3    93  HIS93       0.1621
     74  C         61.9410  133.6820   67.4360 C.2    93  HIS93       0.2264
     75  O         61.6780  132.6450   66.8260 O.2    93  HIS93      -0.2867
     76  CB        61.3790  135.7550   66.1690 C.3    93  HIS93       0.0745
     77  CG        60.4620  136.2810   67.2310 C.ar   93  HIS93       0.0817
     78  ND1       60.6610  137.4970   67.8500 N.ar   93  HIS93      -0.2268
     79  CD2       59.3550  135.7480   67.8000 C.ar   93  HIS93       0.1154
     80  CE1       59.7100  137.6940   68.7440 C.ar   93  HIS93       0.1986
     81  NE2       58.9040  136.6480   68.7340 N.ar   93  HIS93      -0.2212
     82  N         55.0910  132.2010   68.7330 N.3   103  PHE103     -0.1241
     83  CA        55.7190  132.7900   67.5550 C.3   103  PHE103      0.1605
     84  C         57.1480  132.2950   67.3670 C.2   103  PHE103      0.2264
     85  O         57.9500  132.2840   68.3100 O.2   103  PHE103     -0.2867
     86  CB        55.7010  134.3180   67.6410 C.3   103  PHE103      0.0534
     87  CG        54.3250  134.8980   67.7800 C.ar  103  PHE103     -0.0203
     88  CD1       53.4540  134.9030   66.7040 C.ar  103  PHE103     -0.0042
     89  CD2       53.8990  135.4360   68.9830 C.ar  103  PHE103     -0.0042
     90  CE1       52.1840  135.4310   66.8240 C.ar  103  PHE103     -0.0003
     91  CE2       52.6280  135.9690   69.1100 C.ar  103  PHE103     -0.0003
     92  CZ        51.7700  135.9660   68.0280 C.ar  103  PHE103     -0.0000
     93  N         60.3620  132.4060   64.2660 N.3   105  ILE105     -0.1245
     94  CA        60.8820  132.8110   62.9660 C.3   105  ILE105      0.1561
     95  C         62.2960  132.2770   62.7710 C.2   105  ILE105      0.2260
     96  O         63.1450  132.4040   63.6500 O.2   105  ILE105     -0.2867
     97  CB        60.8840  134.3460   62.8000 C.3   105  ILE105      0.0252
     98  CG1       59.4560  134.8920   62.8490 C.3   105  ILE105      0.0019
     99  CG2       61.5390  134.7440   61.4860 C.3   105  ILE105      0.0019
    100  CD1       59.3640  136.3770   62.5700 C.3   105  ILE105      0.0001
@<TRIPOS>BOND
     1    58    59    1
     2    68    70   ar
     3    68    65   ar
     4    70    71   ar
     5    62    59    1
     6    62    63    1
     7    57    56    1
     8    59    60    1
     9    99    97    1
    10    61    60    2
    11    65    63   ar
    12    65    67   ar
    13    63    64   ar
    14    71    69   ar
    15   100    98    1
    16    56    55    1
    17    54    55    1
    18    54    51    1
    19    52    51    1
    20    52    53    2
    21    95    94    1
    22    95    96    2
    23    97    98    1
    24    97    94    1
    25    94    93    1
    26    67    69   ar
    27    67    66   ar
    28    51    50    1
    29    64    66   ar
    30    16    17    1
    31    16    13    1
    32    12    13    1
    33    19    17   ar
    34    19    21   ar
    35    72    73    1
    36    17    18   ar
    37    76    73    1
    38    76    77    1
    39    13    14    1
    40    21    22   ar
    41    34    33    1
    42    15    14    2
    43    88    90   ar
    44    88    87   ar
    45    73    74    1
    46    90    92   ar
    47    75    74    2
    48    32    33   ar
    49    32    30   ar
    50    18    20   ar
    51    77    79   ar
    52    77    78   ar
    53    22    20   ar
    54    84    83    1
    55    84    85    2
    56    33    31   ar
    57    83    86    1
    58    83    82    1
    59    86    87    1
    60    87    89   ar
    61    30    28   ar
    62    79    81   ar
    63    78    80   ar
    64    92    91   ar
    65    31    29   ar
    66    81    80   ar
    67    89    91   ar
    68    28    29   ar
    69    28    27    1
    70    27    24    1
    71    47    48    1
    72    47    44    1
    73    23    24    1
    74    41    40    1
    75    48    49    1
    76     9     7   ar
    77     9    11   ar
    78     7     6   ar
    79    46    45    2
    80    24    25    1
    81    11    10   ar
    82    45    44    1
    83    44    43    1
    84     6     5    1
    85     6     8   ar
    86    26    25    2
    87    40    39    1
    88    40    42    1
    89    49    43    1
    90     5     2    1
    91    39    36    1
    92     3     2    1
    93     3     4    2
    94    10     8   ar
    95     2     1    1
    96    35    36    1
    97    36    37    1
    98    37    38    2
