@<TRIPOS>MOLECULE
tmp/5ixmA03.pdb
 132 128 0 0 0
SMALL
GASTEIGER

@<TRIPOS>ATOM
      1  N        116.2940   97.2620   60.5930 N.3   352  PHE352     -0.1241
      2  CA       116.4570   97.9690   61.8560 C.3   352  PHE352      0.1605
      3  C        115.0920   98.2180   62.4780 C.2   352  PHE352      0.2264
      4  O        114.0860   98.3100   61.7760 O.2   352  PHE352     -0.2867
      5  CB       117.2060   99.2930   61.6650 C.3   352  PHE352      0.0534
      6  CG       117.3790  100.0770   62.9370 C.ar  352  PHE352     -0.0203
      7  CD1      118.3730   99.7430   63.8420 C.ar  352  PHE352     -0.0042
      8  CD2      116.5360  101.1370   63.2360 C.ar  352  PHE352     -0.0042
      9  CE1      118.5300  100.4540   65.0200 C.ar  352  PHE352     -0.0003
     10  CE2      116.6880  101.8520   64.4120 C.ar  352  PHE352     -0.0003
     11  CZ       117.6870  101.5100   65.3050 C.ar  352  PHE352     -0.0000
     12  N        115.2590   97.2980   71.0000 N.3   383  THR383     -0.1218
     13  CA       115.8530   97.6110   69.7130 C.3   383  THR383      0.1862
     14  C        116.4200   96.3640   69.0530 C.2   383  THR383      0.2287
     15  O        116.8840   95.4380   69.7280 O.2   383  THR383     -0.2866
     16  CB       116.9690   98.6750   69.8560 C.3   383  THR383      0.1770
     17  OG1      117.6130   98.8760   68.5920 O.3   383  THR383     -0.2211
     18  CG2      118.0040   98.2360   70.8800 C.3   383  THR383      0.0375
     19  N        118.6480   95.1830   65.2560 N.3   385  TRP385     -0.1241
     20  CA       119.4340   95.6480   64.1250 C.3   385  TRP385      0.1605
     21  C        120.0630   94.4680   63.3980 C.2   385  TRP385      0.2264
     22  O        120.8500   93.7100   63.9750 O.2   385  TRP385     -0.2867
     23  CB       120.5170   96.6260   64.5880 C.3   385  TRP385      0.0550
     24  CG       121.3410   97.2090   63.4690 C.ar  385  TRP385      0.0003
     25  CD1      121.0640   97.1610   62.1320 C.ar  385  TRP385      0.0946
     26  CD2      122.5770   97.9240   63.5960 C.ar  385  TRP385      0.0152
     27  NE1      122.0480   97.8030   61.4210 N.ar  385  TRP385     -0.2442
     28  CE2      122.9880   98.2810   62.2960 C.ar  385  TRP385      0.0810
     29  CE3      123.3750   98.2970   64.6820 C.ar  385  TRP385      0.0012
     30  CZ2      124.1620   98.9900   62.0530 C.ar  385  TRP385      0.0191
     31  CZ3      124.5420   99.0030   64.4370 C.ar  385  TRP385      0.0001
     32  CH2      124.9230   99.3410   63.1330 C.ar  385  TRP385      0.0015
     33  N        122.0740   92.1600   66.1400 N.3   393  LEU393     -0.1231
     34  CA       122.1900   92.8520   67.4180 C.3   393  LEU393      0.1693
     35  C        120.8070   93.1650   67.9650 C.2   393  LEU393      0.2592
     36  O        119.9110   93.5100   67.2020 O.2   393  LEU393     -0.2718
     37  CB       122.9910   94.1440   67.2490 C.3   393  LEU393      0.0284
     38  CG       123.0810   95.0900   68.4470 C.3   393  LEU393      0.0019
     39  CD1      123.9400   94.4880   69.5450 C.3   393  LEU393      0.0001
     40  CD2      123.5990   96.4560   68.0210 C.3   393  LEU393      0.0001
     41  N        120.6150   93.0350   69.2720 N.am  394  LYS394     -0.1966
     42  CA       119.3530   93.4580   69.8710 C.3   394  LYS394      0.1728
     43  C        119.4900   93.6760   71.3690 C.2   394  LYS394      0.2617
     44  O        120.4000   93.1440   72.0010 O.2   394  LYS394     -0.2715
     45  CB       118.2460   92.4420   69.6070 C.3   394  LYS394      0.0311
     46  CG       118.2900   91.2330   70.5110 C.3   394  LYS394      0.0038
     47  CD       117.0690   90.3500   70.2980 C.3   394  LYS394      0.0206
     48  CE       116.9380   89.3110   71.3990 C.3   394  LYS394      0.1093
     49  NZ       115.7070   88.4910   71.2270 N.3   394  LYS394     -0.1314
     50  N        118.5840   94.4620   71.9370 N.am  395  GLY395     -0.1940
     51  CA       118.6340   94.7260   73.3640 C.3   395  GLY395      0.2014
     52  C        117.4090   95.4470   73.8850 C.2   395  GLY395      0.2639
     53  O        116.5510   95.8510   73.1120 O.2   395  GLY395     -0.2714
     54  N        117.3280   95.6100   75.2010 N.am  396  GLY396     -0.1939
     55  CA       116.1970   96.2820   75.8130 C.3   396  GLY396      0.2014
     56  C        116.5160   96.8440   77.1860 C.2   396  GLY396      0.2638
     57  O        117.4760   96.4250   77.8350 O.2   396  GLY396     -0.2714
     58  N        115.7060   97.7980   77.6350 N.am  397  ALA397     -0.1977
     59  CA       115.8990   98.3930   78.9520 C.3   397  ALA397      0.1597
     60  C        114.5680   98.8370   79.5450 C.2   397  ALA397      0.2287
     61  O        113.6170   99.1290   78.8170 O.2   397  ALA397     -0.2864
     62  CB       116.8640   99.5660   78.8740 C.3   397  ALA397      0.0319
     63  N        112.6710  101.1430   82.9280 N.3   399  TYR399     -0.1241
     64  CA       112.7950  102.1180   84.0010 C.3   399  TYR399      0.1605
     65  C        111.5160  102.2170   84.8240 C.2   399  TYR399      0.2264
     66  O        110.4070  102.1510   84.2870 O.2   399  TYR399     -0.2867
     67  CB       113.1490  103.4910   83.4290 C.3   399  TYR399      0.0534
     68  CG       114.4890  103.5360   82.7380 C.ar  399  TYR399     -0.0201
     69  CD1      114.6330  103.0940   81.4270 C.ar  399  TYR399     -0.0009
     70  CD2      115.6100  104.0280   83.3890 C.ar  399  TYR399     -0.0009
     71  CE1      115.8590  103.1320   80.7880 C.ar  399  TYR399      0.0417
     72  CE2      116.8400  104.0720   82.7590 C.ar  399  TYR399      0.0417
     73  CZ       116.9580  103.6250   81.4590 C.ar  399  TYR399      0.1957
     74  OH       118.1820  103.6670   80.8310 O.3   399  TYR399     -0.2866
     75  N        116.6950  102.9220   86.4190 N.3   406  LEU406     -0.1245
     76  CA       116.8990  101.6820   85.6700 C.3   406  LEU406      0.1561
     77  C        116.6870  100.4370   86.5240 C.2   406  LEU406      0.2260
     78  O        117.2450  100.3150   87.6140 O.2   406  LEU406     -0.2867
     79  CB       118.3030  101.6530   85.0670 C.3   406  LEU406      0.0270
     80  CG       118.6160  100.4540   84.1710 C.3   406  LEU406      0.0019
     81  CD1      117.8530  100.5470   82.8620 C.3   406  LEU406      0.0001
     82  CD2      120.1030  100.3450   83.9130 C.3   406  LEU406      0.0001
     83  N        117.9170   95.6210   82.1670 N.3   409  GLY409     -0.1210
     84  CA       118.5230   95.9590   80.8970 C.3   409  GLY409      0.1956
     85  C        119.2730   94.7530   80.3890 C.2   409  GLY409      0.2612
     86  O        119.7430   93.9480   81.1770 O.2   409  GLY409     -0.2717
     87  N        119.3690   94.6080   79.0770 N.am  410  ASN410     -0.1960
     88  CA       120.1590   93.5290   78.5060 C.3   410  ASN410      0.1819
     89  C        120.3940   93.7520   77.0310 C.2   410  ASN410      0.2621
     90  O        119.5870   94.3850   76.3490 O.2   410  ASN410     -0.2715
     91  CB       119.4870   92.1720   78.7320 C.3   410  ASN410      0.1195
     92  CG       118.1610   92.0540   78.0220 C.2   410  ASN410      0.2630
     93  OD1      117.1220   92.4210   78.5690 O.2   410  ASN410     -0.2716
     94  ND2      118.1850   91.5350   76.7990 N.am  410  ASN410     -0.0877
     95  N        121.5060   93.2260   76.5400 N.am  411  ALA411     -0.1977
     96  CA       121.8270   93.3430   75.1300 C.3   411  ALA411      0.1597
     97  C        122.5230   92.0780   74.6780 C.2   411  ALA411      0.2287
     98  O        123.2170   91.4350   75.4600 O.2   411  ALA411     -0.2864
     99  CB       122.7020   94.5640   74.8770 C.3   411  ALA411      0.0319
    100  N        125.0850   90.8920   77.5910 N.3   427  TYR427     -0.1241
    101  CA       125.1560   91.4550   78.9260 C.3   427  TYR427      0.1605
    102  C        123.7580   91.5230   79.5120 C.2   427  TYR427      0.2264
    103  O        122.8010   91.8910   78.8230 O.2   427  TYR427     -0.2867
    104  CB       125.7930   92.8460   78.9130 C.3   427  TYR427      0.0534
    105  CG       125.7520   93.5400   80.2580 C.ar  427  TYR427     -0.0201
    106  CD1      126.5850   93.1410   81.2940 C.ar  427  TYR427     -0.0009
    107  CD2      124.8670   94.5840   80.4960 C.ar  427  TYR427     -0.0009
    108  CE1      126.5480   93.7720   82.5260 C.ar  427  TYR427      0.0417
    109  CE2      124.8210   95.2210   81.7230 C.ar  427  TYR427      0.0417
    110  CZ       125.6620   94.8080   82.7360 C.ar  427  TYR427      0.1957
    111  OH       125.6230   95.4360   83.9620 O.3   427  TYR427     -0.2866
    112  N        121.5740   92.8760   83.0200 N.3   429  TYR429     -0.1241
    113  CA       121.5260   93.6530   84.2440 C.3   429  TYR429      0.1605
    114  C        120.1190   93.6720   84.8280 C.2   429  TYR429      0.2264
    115  O        119.1240   93.7810   84.1060 O.2   429  TYR429     -0.2867
    116  CB       122.0060   95.0900   84.0180 C.3   429  TYR429      0.0534
    117  CG       121.7870   95.9790   85.2260 C.ar  429  TYR429     -0.0201
    118  CD1      122.6800   95.9700   86.2910 C.ar  429  TYR429     -0.0009
    119  CD2      120.6780   96.8150   85.3090 C.ar  429  TYR429     -0.0009
    120  CE1      122.4790   96.7740   87.4010 C.ar  429  TYR429      0.0417
    121  CE2      120.4690   97.6210   86.4130 C.ar  429  TYR429      0.0417
    122  CZ       121.3730   97.5970   87.4560 C.ar  429  TYR429      0.1957
    123  OH       121.1670   98.3970   88.5570 O.3   429  TYR429     -0.2866
    124  N        129.9490   92.0740   89.4890 N.3   477  LYS477     -0.1245
    125  CA       129.8700   92.6810   90.8150 C.3   477  LYS477      0.1561
    126  C        130.6390   91.8400   91.8250 C.2   477  LYS477      0.2260
    127  O        131.3720   92.3680   92.6620 O.2   477  LYS477     -0.2867
    128  CB       128.4120   92.8190   91.2730 C.3   477  LYS477      0.0271
    129  CG       127.5180   93.6950   90.3970 C.3   477  LYS477      0.0035
    130  CD       127.9440   95.1560   90.3570 C.3   477  LYS477      0.0206
    131  CE       127.0070   95.9540   89.4500 C.3   477  LYS477      0.1093
    132  NZ       127.3880   97.3900   89.3400 N.3   477  LYS477     -0.1314
@<TRIPOS>BOND
     1     1     2    1
     2    27    25   ar
     3    27    28   ar
     4     5     2    1
     5     5     6    1
     6     4     3    2
     7     2     3    1
     8    30    28   ar
     9    30    32   ar
    10    25    24   ar
    11    28    26   ar
    12     6     8   ar
    13     6     7   ar
    14    32    31   ar
    15     8    10   ar
    16    21    22    2
    17    21    20    1
    18    24    26   ar
    19    24    23    1
    20    26    29   ar
    21     7     9   ar
    22    20    23    1
    23    20    19    1
    24    10    11   ar
    25    31    29   ar
    26     9    11   ar
    27    33    34    1
    28    36    35    2
    29    37    34    1
    30    37    38    1
    31    34    35    1
    32    35    41   am
    33    40    38    1
    34    38    39    1
    35    17    16    1
    36    14    13    1
    37    14    15    2
    38    41    42    1
    39    45    42    1
    40    45    46    1
    41    13    16    1
    42    13    12    1
    43    16    18    1
    44    42    43    1
    45    47    46    1
    46    47    48    1
    47    49    48    1
    48    43    50   am
    49    43    44    2
    50    50    51    1
    51    53    52    2
    52    51    52    1
    53    52    54   am
    54    97    96    1
    55    97    98    2
    56    99    96    1
    57    96    95    1
    58    54    55    1
    59    55    56    1
    60    90    89    2
    61    95    89   am
    62    94    92   am
    63    89    88    1
    64    56    58   am
    65    56    57    2
    66   100   101    1
    67    58    59    1
    68    92    93    2
    69    92    91    1
    70    88    91    1
    71    88    87    1
    72    61    60    2
    73   103   102    2
    74    62    59    1
    75   104   101    1
    76   104   105    1
    77   101   102    1
    78    59    60    1
    79    87    85   am
    80   105   107   ar
    81   105   106   ar
    82    85    84    1
    83    85    86    2
    84   107   109   ar
    85    71    69   ar
    86    71    73   ar
    87    74    73    1
    88    84    83    1
    89   106   108   ar
    90    69    68   ar
    91    73    72   ar
    92   109   110   ar
    93   108   110   ar
    94   110   111    1
    95    68    70   ar
    96    68    67    1
    97    72    70   ar
    98    81    80    1
    99    63    64    1
   100   112   113    1
   101    67    64    1
   102    82    80    1
   103    64    65    1
   104   116   113    1
   105   116   117    1
   106   115   114    2
   107    80    79    1
   108   113   114    1
   109    66    65    2
   110    79    76    1
   111   117   119   ar
   112   117   118   ar
   113   119   121   ar
   114    76    75    1
   115    76    77    1
   116   118   120   ar
   117   121   122   ar
   118    77    78    2
   119   120   122   ar
   120   122   123    1
   121   132   131    1
   122   131   130    1
   123   124   125    1
   124   130   129    1
   125   129   128    1
   126   125   128    1
   127   125   126    1
   128   126   127    2
