@<TRIPOS>MOLECULE
tmp/5ixmA00.pdb
 75 72 0 0 0
SMALL
GASTEIGER

@<TRIPOS>ATOM
      1  N         81.7150   88.6990   64.8460 N.3   179  ASP179     -0.1225
      2  CA        80.6180   89.2960   64.0900 C.3   179  ASP179      0.1805
      3  C         79.2830   89.2540   64.8310 C.2   179  ASP179      0.2598
      4  O         78.2270   89.1150   64.2150 O.2   179  ASP179     -0.2718
      5  CB        80.4870   88.6070   62.7310 C.3   179  ASP179      0.1424
      6  CG        81.7530   88.7170   61.9010 C.2   179  ASP179      0.3668
      7  OD1       82.3830   89.7970   61.9190 O.co2 179  ASP179     -0.2456
      8  OD2       82.1240   87.7240   61.2390 O.co2 179  ASP179     -0.2456
      9  N         79.3310   89.3730   66.1540 N.am  180  VAL180     -0.1966
     10  CA        78.1160   89.5820   66.9260 C.3   180  VAL180      0.1727
     11  C         77.7200   91.0350   66.7250 C.2   180  VAL180      0.2617
     12  O         77.9880   91.8900   67.5700 O.2   180  VAL180     -0.2715
     13  CB        78.3120   89.2840   68.4220 C.3   180  VAL180      0.0290
     14  CG1       76.9710   89.2870   69.1440 C.3   180  VAL180      0.0023
     15  CG2       79.0130   87.9520   68.6070 C.3   180  VAL180      0.0023
     16  N         77.0910   91.3110   65.5900 N.am  181  GLY181     -0.1941
     17  CA        76.8670   92.6800   65.1770 C.3   181  GLY181      0.1998
     18  C         78.2070   93.2590   64.7670 C.2   181  GLY181      0.2481
     19  O         78.9380   92.6530   63.9790 O.2   181  GLY181     -0.2729
     20  N         78.5380   94.4410   65.2990 N.am  182  PRO182     -0.2715
     21  CA        79.8160   95.0950   65.0100 C.3   182  PRO182      0.1536
     22  C         80.9240   94.5780   65.9260 C.2   182  PRO182      0.2598
     23  O         82.0890   94.9360   65.7560 O.2   182  PRO182     -0.2715
     24  CB        79.5130   96.5660   65.2820 C.3   182  PRO182      0.0310
     25  CG        78.5130   96.5150   66.3950 C.3   182  PRO182      0.0237
     26  CD        77.6890   95.2630   66.1810 C.3   182  PRO182      0.0939
     27  N         80.5520   93.7370   66.8870 N.am  183  PHE183     -0.1974
     28  CA        81.4750   93.3210   67.9370 C.3   183  PHE183      0.1639
     29  C         82.0410   91.9150   67.7760 C.2   183  PHE183      0.2290
     30  O         81.4610   91.0600   67.1070 O.2   183  PHE183     -0.2864
     31  CB        80.7910   93.3980   69.3030 C.3   183  PHE183      0.0560
     32  CG        80.0860   94.6930   69.5610 C.ar  183  PHE183     -0.0200
     33  CD1       80.8050   95.8550   69.7850 C.ar  183  PHE183     -0.0042
     34  CD2       78.7010   94.7430   69.6080 C.ar  183  PHE183     -0.0042
     35  CE1       80.1560   97.0470   70.0290 C.ar  183  PHE183     -0.0003
     36  CE2       78.0460   95.9310   69.8560 C.ar  183  PHE183     -0.0003
     37  CZ        78.7750   97.0840   70.0680 C.ar  183  PHE183     -0.0000
     38  N         83.5110   92.2120   75.4700 N.3   213  VAL213     -0.1245
     39  CA        82.9830   92.6860   74.2000 C.3   213  VAL213      0.1561
     40  C         83.9730   93.6650   73.5820 C.2   213  VAL213      0.2260
     41  O         84.5000   94.5520   74.2620 O.2   213  VAL213     -0.2867
     42  CB        81.5990   93.3530   74.3640 C.3   213  VAL213      0.0252
     43  CG1       81.0780   93.8450   73.0250 C.3   213  VAL213      0.0019
     44  CG2       80.6140   92.3780   74.9900 C.3   213  VAL213      0.0019
     45  N         85.0660   96.1430   70.1180 N.3   215  LEU215     -0.1245
     46  CA        84.7520   96.8570   68.8880 C.3   215  LEU215      0.1561
     47  C         86.0470   97.1920   68.1550 C.2   215  LEU215      0.2260
     48  O         86.7410   98.1540   68.5100 O.2   215  LEU215     -0.2867
     49  CB        83.9520   98.1290   69.1780 C.3   215  LEU215      0.0270
     50  CG        83.6140   98.9760   67.9480 C.3   215  LEU215      0.0019
     51  CD1       82.7930   98.1770   66.9470 C.3   215  LEU215      0.0001
     52  CD2       82.8900  100.2490   68.3470 C.3   215  LEU215      0.0001
     53  N         88.1270   99.2660   70.8580 N.3   226  THR226     -0.1218
     54  CA        87.5070   99.5910   72.1370 C.3   226  THR226      0.1862
     55  C         87.0800   98.3000   72.8180 C.2   226  THR226      0.2287
     56  O         86.5440   97.4120   72.1760 O.2   226  THR226     -0.2866
     57  CB        86.2920  100.5220   71.9660 C.3   226  THR226      0.1770
     58  OG1       86.6460  101.6210   71.1190 O.3   226  THR226     -0.2211
     59  CG2       85.8240  101.0530   73.3150 C.3   226  THR226      0.0375
     60  N         85.3460   96.4310   76.3450 N.3   228  ALA228     -0.1245
     61  CA        84.6510   96.4110   77.6210 C.3   228  ALA228      0.1562
     62  C         84.7460   95.0160   78.2160 C.2   228  ALA228      0.2260
     63  O         84.4410   94.0280   77.5480 O.2   228  ALA228     -0.2867
     64  CB        83.2030   96.8250   77.4490 C.3   228  ALA228      0.0290
     65  N         87.5190   99.1360   81.3800 N.3   263  PHE263     -0.1241
     66  CA        87.3880   99.8370   80.1140 C.3   263  PHE263      0.1605
     67  C         88.7640  100.0700   79.5100 C.2   263  PHE263      0.2264
     68  O         89.6690  100.5610   80.1850 O.2   263  PHE263     -0.2867
     69  CB        86.6560  101.1650   80.3010 C.3   263  PHE263      0.0534
     70  CG        86.7190  102.0600   79.1010 C.ar  263  PHE263     -0.0203
     71  CD1       86.0320  101.7350   77.9440 C.ar  263  PHE263     -0.0042
     72  CD2       87.4670  103.2230   79.1270 C.ar  263  PHE263     -0.0042
     73  CE1       86.0860  102.5530   76.8370 C.ar  263  PHE263     -0.0003
     74  CE2       87.5250  104.0460   78.0220 C.ar  263  PHE263     -0.0003
     75  CZ        86.8340  103.7090   76.8740 C.ar  263  PHE263     -0.0000
@<TRIPOS>BOND
     1     8     6   ar
     2     6     7   ar
     3     6     5    1
     4     5     2    1
     5    19    18    2
     6     2     3    1
     7     2     1    1
     8     4     3    2
     9    18    17    1
    10    18    20   am
    11     3     9   am
    12    21    24    1
    13    21    20    1
    14    21    22    1
    15    17    16    1
    16    24    25    1
    17    20    26    1
    18    16    11   am
    19    23    22    2
    20    22    27   am
    21     9    10    1
    22    26    25    1
    23    11    10    1
    24    11    12    2
    25    27    28    1
    26    10    13    1
    27    51    50    1
    28    30    29    2
    29    29    28    1
    30    28    31    1
    31    50    52    1
    32    50    49    1
    33    47    48    2
    34    47    46    1
    35    13    15    1
    36    13    14    1
    37    46    49    1
    38    46    45    1
    39    31    32    1
    40    32    34   ar
    41    32    33   ar
    42    34    36   ar
    43    33    35   ar
    44    36    37   ar
    45    35    37   ar
    46    53    54    1
    47    58    57    1
    48    57    54    1
    49    57    59    1
    50    54    55    1
    51    56    55    2
    52    43    42    1
    53    40    39    1
    54    40    41    2
    55    39    42    1
    56    39    38    1
    57    42    44    1
    58    60    61    1
    59    73    75   ar
    60    73    71   ar
    61    75    74   ar
    62    64    61    1
    63    63    62    2
    64    61    62    1
    65    71    70   ar
    66    74    72   ar
    67    70    72   ar
    68    70    69    1
    69    67    66    1
    70    67    68    2
    71    66    69    1
    72    66    65    1
