@<TRIPOS>MOLECULE
tmp/5ixoA05.pdb
 100 95 0 0 0
SMALL
GASTEIGER

@<TRIPOS>ATOM
      1  N        -17.0880   21.6650   22.8980 N.3   512  ALA512     -0.1231
      2  CA       -16.6690   20.2710   23.0960 C.3   512  ALA512      0.1694
      3  C        -15.9560   20.1470   24.3970 C.2   512  ALA512      0.2592
      4  O        -15.2480   21.1070   24.8000 O.2   512  ALA512     -0.2718
      5  CB       -15.7710   19.8100   21.9410 C.3   512  ALA512      0.0304
      6  N        -16.0290   18.9910   25.0420 N.am  513  ASN513     -0.1974
      7  CA       -15.2030   18.6680   26.2300 C.3   513  ASN513      0.1688
      8  C        -15.4530   19.6330   27.4080 C.2   513  ASN513      0.2292
      9  O        -14.5580   20.3630   27.9230 O.2   513  ASN513     -0.2864
     10  CB       -13.7180   18.6570   25.8620 C.3   513  ASN513      0.1181
     11  CG       -13.2690   17.3320   25.3670 C.2   513  ASN513      0.2629
     12  OD1      -13.1780   16.4130   26.1290 O.2   513  ASN513     -0.2716
     13  ND2      -12.9500   17.2430   24.0970 N.am  513  ASN513     -0.0877
     14  N        -19.5470   21.8820   17.1840 N.3   534  ASP534     -0.1239
     15  CA       -18.9340   20.8340   17.9880 C.3   534  ASP534      0.1674
     16  C        -19.4480   20.8360   19.3990 C.2   534  ASP534      0.2266
     17  O        -19.1020   21.7020   20.2090 O.2   534  ASP534     -0.2867
     18  CB       -17.3960   20.9700   17.9520 C.3   534  ASP534      0.1410
     19  CG       -16.6630   19.7360   18.5430 C.2   534  ASP534      0.3668
     20  OD1      -17.3120   18.8230   19.1710 O.co2 534  ASP534     -0.2456
     21  OD2      -15.4270   19.7290   18.4230 O.co2 534  ASP534     -0.2456
     22  N        -19.2720   17.7460   21.1270 N.3   536  SER536     -0.1202
     23  CA       -18.7610   16.4160   21.5760 C.3   536  SER536      0.2020
     24  C        -18.2780   16.4200   22.9870 C.2   536  SER536      0.2619
     25  O        -17.9210   17.4570   23.5250 O.2   536  SER536     -0.2717
     26  CB       -17.6260   15.8600   20.6660 C.3   536  SER536      0.2103
     27  OG       -16.4980   16.7200   20.6390 O.3   536  SER536     -0.2182
     28  N        -18.2260   15.2450   23.5740 N.am  537  SER537     -0.1951
     29  CA       -17.6350   15.0470   24.9160 C.3   537  SER537      0.1924
     30  C        -18.3250   15.9730   25.9520 C.2   537  SER537      0.2314
     31  O        -17.7320   16.7720   26.6460 O.2   537  SER537     -0.2863
     32  CB       -16.1150   15.2360   24.8880 C.3   537  SER537      0.2116
     33  OG       -15.5330   14.1870   24.1200 O.3   537  SER537     -0.2180
     34  N        -17.9230   21.0410   10.0410 N.3   555  VAL555     -0.1231
     35  CA       -17.6590   20.2380   11.2070 C.3   555  VAL555      0.1692
     36  C        -18.9850   20.0210   11.8800 C.2   555  VAL555      0.2592
     37  O        -19.6790   20.9520   12.2100 O.2   555  VAL555     -0.2718
     38  CB       -16.6850   20.9890   12.1510 C.3   555  VAL555      0.0266
     39  CG1      -16.6380   20.3350   13.5260 C.3   555  VAL555      0.0020
     40  CG2      -15.2930   21.0950   11.4850 C.3   555  VAL555      0.0020
     41  N        -19.3010   18.7680   12.1260 N.am  556  LEU556     -0.1966
     42  CA       -20.4230   18.4100   12.9580 C.3   556  LEU556      0.1728
     43  C        -19.8790   17.2820   13.8440 C.2   556  LEU556      0.2616
     44  O        -19.4980   16.2030   13.3270 O.2   556  LEU556     -0.2715
     45  CB       -21.5720   17.8400   12.1390 C.3   556  LEU556      0.0311
     46  CG       -22.7640   17.2320   12.9350 C.3   556  LEU556      0.0022
     47  CD1      -23.2930   18.1540   13.9730 C.3   556  LEU556      0.0001
     48  CD2      -23.8870   16.6150   12.0640 C.3   556  LEU556      0.0001
     49  N        -19.8250   17.5000   15.1220 N.am  557  ASN557     -0.1972
     50  CA       -19.3600   16.4820   16.0450 C.3   557  ASN557      0.1688
     51  C        -20.2210   16.4580   17.2860 C.2   557  ASN557      0.2292
     52  O        -20.2060   17.4000   18.0720 O.2   557  ASN557     -0.2864
     53  CB       -17.8710   16.6970   16.3600 C.3   557  ASN557      0.1181
     54  CG       -17.2160   15.5220   17.0110 C.2   557  ASN557      0.2629
     55  OD1      -17.8880   14.5760   17.4280 O.2   557  ASN557     -0.2716
     56  ND2      -15.9260   15.5440   17.0480 N.am  557  ASN557     -0.0877
     57  N        -20.2580   13.3990   19.1410 N.3   559  SER559     -0.1202
     58  CA       -19.7320   12.1980   19.7330 C.3   559  SER559      0.2020
     59  C        -19.5690   12.3300   21.2270 C.2   559  SER559      0.2618
     60  O        -19.3770   13.4230   21.7430 O.2   559  SER559     -0.2717
     61  CB       -18.2970   11.9430   19.1280 C.3   559  SER559      0.2103
     62  OG       -18.4140   11.6000   17.7390 O.3   559  SER559     -0.2182
     63  N        -19.5640   11.1730   21.9190 N.am  560  TYR560     -0.1975
     64  CA       -19.3640   11.1080   23.3780 C.3   560  TYR560      0.1639
     65  C        -20.3430   12.0000   24.1730 C.2   560  TYR560      0.2290
     66  O        -19.9580   12.9000   24.9020 O.2   560  TYR560     -0.2864
     67  CB       -17.8760   11.3820   23.7270 C.3   560  TYR560      0.0560
     68  CG       -16.9750   10.5090   22.8940 C.ar  560  TYR560     -0.0198
     69  CD1      -16.8660    9.1100   23.1340 C.ar  560  TYR560     -0.0009
     70  CD2      -16.2350   11.0520   21.8190 C.ar  560  TYR560     -0.0009
     71  CE1      -16.0430    8.2870   22.3430 C.ar  560  TYR560      0.0417
     72  CE2      -15.4260   10.2340   21.0180 C.ar  560  TYR560      0.0417
     73  CZ       -15.3150    8.8840   21.2870 C.ar  560  TYR560      0.1957
     74  OH       -14.5330    8.1460   20.4500 O.3   560  TYR560     -0.2866
     75  N        -18.3600    8.8420   12.4370 N.3   578  HIS578     -0.1226
     76  CA       -17.5500    9.3250   13.5220 C.3   578  HIS578      0.1752
     77  C        -18.0730   10.5560   14.1000 C.2   578  HIS578      0.2596
     78  O        -17.5190   11.0190   15.0930 O.2   578  HIS578     -0.2718
     79  CB       -16.0450    9.4120   13.0810 C.3   578  HIS578      0.0759
     80  CG       -15.4470    8.0280   12.8330 C.ar  578  HIS578      0.0818
     81  ND1      -15.2860    7.0820   13.8400 N.ar  578  HIS578     -0.2268
     82  CD2      -15.1110    7.3900   11.6810 C.ar  578  HIS578      0.1154
     83  CE1      -14.8160    5.9530   13.3280 C.ar  578  HIS578      0.1986
     84  NE2      -14.7060    6.1110   12.0190 N.ar  578  HIS578     -0.2212
     85  N        -19.1150   11.1640   13.4660 N.am  579  ASP579     -0.1974
     86  CA       -19.6750   12.3970   14.0870 C.3   579  ASP579      0.1709
     87  C        -20.5700   12.0680   15.2850 C.2   579  ASP579      0.2293
     88  O        -21.0020   12.9490   16.0300 O.2   579  ASP579     -0.2864
     89  CB       -20.5060   13.1790   13.0720 C.3   579  ASP579      0.1436
     90  CG       -19.6970   13.7460   11.9200 C.2   579  ASP579      0.3671
     91  OD1      -18.4520   13.8720   12.0080 O.co2 579  ASP579     -0.2456
     92  OD2      -20.4030   14.1410   10.9470 O.co2 579  ASP579     -0.2456
     93  N        -20.2910    8.7110   17.1860 N.3   581  ILE581     -0.1245
     94  CA       -19.7780    7.6590   18.0230 C.3   581  ILE581      0.1561
     95  C        -19.8430    7.9650   19.5170 C.2   581  ILE581      0.2260
     96  O        -19.8010    9.0940   19.9390 O.2   581  ILE581     -0.2867
     97  CB       -18.2860    7.3000   17.6360 C.3   581  ILE581      0.0252
     98  CG1      -17.3650    8.5410   17.6500 C.3   581  ILE581      0.0019
     99  CG2      -18.2170    6.6120   16.2560 C.3   581  ILE581      0.0019
    100  CD1      -15.8580    8.2650   17.6460 C.3   581  ILE581      0.0001
@<TRIPOS>BOND
     1    34    35    1
     2    92    90   ar
     3    35    36    1
     4    35    38    1
     5    40    38    1
     6    82    84   ar
     7    82    80   ar
     8    36    41   am
     9    36    37    2
    10    90    91   ar
    11    90    89    1
    12    84    83   ar
    13    48    46    1
    14    41    42    1
    15    45    46    1
    16    45    42    1
    17    38    39    1
    18    75    76    1
    19    80    79    1
    20    80    81   ar
    21    46    47    1
    22    42    43    1
    23    89    86    1
    24    79    76    1
    25    44    43    2
    26    83    81   ar
    27    85    86    1
    28    85    77   am
    29    76    77    1
    30    43    49   am
    31    86    87    1
    32    77    78    2
    33    49    50    1
    34    87    88    2
    35    50    53    1
    36    50    51    1
    37    99    97    1
    38    53    54    1
    39    54    56   am
    40    54    55    2
    41    14    15    1
    42    93    94    1
    43    51    52    2
    44    97    98    1
    45    97    94    1
    46   100    98    1
    47    62    61    1
    48    18    15    1
    49    18    19    1
    50    15    16    1
    51    94    95    1
    52    21    19   ar
    53    19    20   ar
    54    61    58    1
    55    57    58    1
    56    16    17    2
    57    95    96    2
    58    58    59    1
    59    74    73    1
    60    27    26    1
    61    26    23    1
    62    72    73   ar
    63    72    70   ar
    64    22    23    1
    65    59    60    2
    66    59    63   am
    67    73    71   ar
    68    23    24    1
    69    70    68   ar
    70    63    64    1
    71     5     2    1
    72    71    69   ar
    73    68    69   ar
    74    68    67    1
    75     1     2    1
    76    24    25    2
    77    24    28   am
    78     2     3    1
    79    64    67    1
    80    64    65    1
    81    28    29    1
    82    13    11   am
    83    33    32    1
    84    65    66    2
    85     3     4    2
    86     3     6   am
    87    32    29    1
    88    29    30    1
    89     6     7    1
    90    11    10    1
    91    11    12    2
    92    10     7    1
    93    30    31    2
    94     7     8    1
    95     8     9    2
