@<TRIPOS>MOLECULE
tmp/5ixsB02.pdb
 142 135 0 0 0
SMALL
GASTEIGER

@<TRIPOS>ATOM
      1  N         40.5000   -5.1690   20.7220 N.3    29  ALA29      -0.1231
      2  CA        39.3580   -4.6430   19.9770 C.3    29  ALA29       0.1694
      3  C         38.1020   -5.4840   20.2040 C.2    29  ALA29       0.2591
      4  O         37.0100   -4.9380   20.3560 O.2    29  ALA29      -0.2718
      5  CB        39.6810   -4.5720   18.5060 C.3    29  ALA29       0.0304
      6  N         38.2640   -6.8100   20.2230 N.am   30  VAL30      -0.1980
      7  CA        37.1330   -7.7230   20.3400 C.3    30  VAL30       0.1595
      8  C         36.5840   -7.7070   21.7670 C.2    30  VAL30       0.2287
      9  O         35.3700   -7.6490   21.9780 O.2    30  VAL30      -0.2864
     10  CB        37.5190   -9.1620   19.9180 C.3    30  VAL30       0.0276
     11  CG1       36.3890  -10.1400   20.1990 C.3    30  VAL30       0.0022
     12  CG2       37.8760   -9.2140   18.4410 C.3    30  VAL30       0.0022
     13  N         45.8540  -11.9070   17.0110 N.3    98  ARG98      -0.1245
     14  CA        45.0600  -11.3990   15.9050 C.3    98  ARG98       0.1563
     15  C         45.6930  -11.7640   14.5470 C.2    98  ARG98       0.2260
     16  O         45.7730  -12.9400   14.1610 O.2    98  ARG98      -0.2867
     17  CB        44.9570   -9.8740   16.0810 C.3    98  ARG98       0.0307
     18  CG        44.3140   -9.1050   14.9500 C.3    98  ARG98       0.0489
     19  CD        44.5730   -7.6060   15.0340 C.3    98  ARG98       0.2205
     20  NE        43.8540   -6.9840   16.1350 N.pl3  98  ARG98      -0.0865
     21  CZ        43.8070   -5.6720   16.3790 C.cat  98  ARG98       0.5346
     22  NH1       44.4360   -4.8060   15.5890 N.pl3  98  ARG98       0.1354
     23  NH2       43.1170   -5.2140   17.4240 N.pl3  98  ARG98       0.1354
     24  N         40.6730  -17.0910   18.2380 N.3   130  ASN130     -0.1240
     25  CA        40.9140  -17.9950   17.1290 C.3   130  ASN130      0.1653
     26  C         42.2090  -18.7970   17.2240 C.2   130  ASN130      0.2266
     27  O         43.1890  -18.3250   17.7960 O.2   130  ASN130     -0.2867
     28  CB        40.9270  -17.2350   15.8210 C.3   130  ASN130      0.1155
     29  CG        39.5430  -17.0690   15.2440 C.2   130  ASN130      0.2627
     30  OD1       38.6610  -17.9060   15.4540 O.2   130  ASN130     -0.2716
     31  ND2       39.3410  -15.9900   14.5230 N.am  130  ASN130     -0.0877
     32  N         28.8470  -15.4190   14.2410 N.3   157  LEU157     -0.1231
     33  CA        29.1370  -14.2470   13.3810 C.3   157  LEU157      0.1693
     34  C         29.0020  -14.5560   11.8720 C.2   157  LEU157      0.2592
     35  O         28.4450  -13.7500   11.1370 O.2   157  LEU157     -0.2718
     36  CB        30.5230  -13.6950   13.6830 C.3   157  LEU157      0.0284
     37  CG        31.0490  -12.5600   12.8090 C.3   157  LEU157      0.0019
     38  CD1       30.0790  -11.4030   12.8300 C.3   157  LEU157      0.0001
     39  CD2       32.4210  -12.1140   13.2990 C.3   157  LEU157      0.0001
     40  N         29.5010  -15.7190   11.4340 N.am  158  ASP158     -0.1974
     41  CA        29.3600  -16.1710   10.0520 C.3   158  ASP158      0.1709
     42  C         27.8800  -16.1600    9.6320 C.2   158  ASP158      0.2293
     43  O         27.5440  -15.7060    8.5450 O.2   158  ASP158     -0.2864
     44  CB        29.9010  -17.6070    9.8240 C.3   158  ASP158      0.1436
     45  CG        31.2190  -17.9000   10.5450 C.2   158  ASP158      0.3671
     46  OD1       31.3440  -17.5760   11.7290 O.co2 158  ASP158     -0.2456
     47  OD2       32.1130  -18.5140    9.9430 O.co2 158  ASP158     -0.2456
     48  N         26.4600  -12.5510    9.4580 N.3   161  ARG161     -0.1245
     49  CA        26.8580  -11.9050    8.2000 C.3   161  ARG161      0.1563
     50  C         26.1030  -12.4900    7.0080 C.2   161  ARG161      0.2260
     51  O         25.7550  -11.7670    6.1020 O.2   161  ARG161     -0.2867
     52  CB        28.3570  -12.0410    7.9430 C.3   161  ARG161      0.0307
     53  CG        29.2130  -11.0540    8.7050 C.3   161  ARG161      0.0489
     54  CD        30.6800  -11.3830    8.5420 C.3   161  ARG161      0.2205
     55  NE        31.5320  -10.3860    9.1960 N.pl3 161  ARG161     -0.0865
     56  CZ        32.7350  -10.6400    9.7020 C.cat 161  ARG161      0.5346
     57  NH1       33.4260   -9.6600   10.2640 N.pl3 161  ARG161      0.1354
     58  NH2       33.2440  -11.8700    9.6840 N.pl3 161  ARG161      0.1354
     59  N         34.2940  -22.6790   11.8390 N.3   185  HIS185     -0.1226
     60  CA        34.2970  -21.2260   11.7100 C.3   185  HIS185      0.1752
     61  C         35.2910  -20.7680   10.6490 C.2   185  HIS185      0.2597
     62  O         36.3820  -21.3070   10.5430 O.2   185  HIS185     -0.2718
     63  CB        34.6360  -20.5290   13.0380 C.3   185  HIS185      0.0759
     64  CG        34.8760  -19.0600   12.8790 C.ar  185  HIS185      0.0818
     65  ND1       33.8880  -18.1980   12.4570 N.ar  185  HIS185     -0.2268
     66  CD2       35.9990  -18.3100   13.0030 C.ar  185  HIS185      0.1154
     67  CE1       34.3780  -16.9760   12.3590 C.ar  185  HIS185      0.1986
     68  NE2       35.6580  -17.0150   12.6800 N.ar  185  HIS185     -0.2212
     69  N         34.9000  -19.7680    9.8690 N.am  186  GLY186     -0.1942
     70  CA        35.7880  -19.1670    8.8840 C.3   186  GLY186      0.2014
     71  C         35.7020  -19.7980    7.5120 C.2   186  GLY186      0.2638
     72  O         34.6040  -20.0330    6.9910 O.2   186  GLY186     -0.2714
     73  N         36.8710  -20.0870    6.9380 N.am  187  ASP187     -0.1971
     74  CA        36.9910  -20.3960    5.5170 C.3   187  ASP187      0.1709
     75  C         36.2520  -21.6590    5.1100 C.2   187  ASP187      0.2293
     76  O         35.8090  -21.7510    3.9690 O.2   187  ASP187     -0.2864
     77  CB        38.4690  -20.5500    5.0910 C.3   187  ASP187      0.1436
     78  CG        39.3090  -19.2930    5.3400 C.2   187  ASP187      0.3671
     79  OD1       38.7990  -18.1620    5.2330 O.co2 187  ASP187     -0.2456
     80  OD2       40.5120  -19.4470    5.6250 O.co2 187  ASP187     -0.2456
     81  N         30.5380  -13.9190    2.6900 N.3   226  VAL226     -0.1231
     82  CA        30.7290  -13.9750    4.1490 C.3   226  VAL226      0.1692
     83  C         32.2270  -14.0550    4.4670 C.2   226  VAL226      0.2591
     84  O         32.7130  -13.3740    5.3740 O.2   226  VAL226     -0.2718
     85  CB        30.0080  -15.1750    4.8150 C.3   226  VAL226      0.0266
     86  CG1       30.4700  -15.3600    6.2530 C.3   226  VAL226      0.0020
     87  CG2       28.4930  -15.0050    4.7890 C.3   226  VAL226      0.0020
     88  N         32.9390  -14.8950    3.7130 N.am  227  VAL227     -0.1980
     89  CA        34.3850  -15.0990    3.8800 C.3   227  VAL227      0.1595
     90  C         35.1710  -13.8890    3.3420 C.2   227  VAL227      0.2287
     91  O         36.0180  -13.3430    4.0440 O.2   227  VAL227     -0.2864
     92  CB        34.8400  -16.4180    3.1990 C.3   227  VAL227      0.0276
     93  CG1       36.3430  -16.6220    3.3400 C.3   227  VAL227      0.0022
     94  CG2       34.0870  -17.6190    3.7840 C.3   227  VAL227      0.0022
     95  N         35.0340  -10.8100    5.6860 N.3   230  ALA230     -0.1231
     96  CA        35.9320  -10.8480    6.8490 C.3   230  ALA230      0.1694
     97  C         37.3300  -10.3320    6.4960 C.2   230  ALA230      0.2592
     98  O         37.9400   -9.5600    7.2500 O.2   230  ALA230     -0.2718
     99  CB        36.0290  -12.2580    7.3840 C.3   230  ALA230      0.0304
    100  N         37.8300  -10.7740    5.3460 N.am  231  TYR231     -0.1976
    101  CA        39.1580  -10.3900    4.8950 C.3   231  TYR231      0.1639
    102  C         39.1330   -8.9340    4.5150 C.2   231  TYR231      0.2290
    103  O         40.0810   -8.2110    4.7870 O.2   231  TYR231     -0.2864
    104  CB        39.6200  -11.2350    3.6990 C.3   231  TYR231      0.0560
    105  CG        40.0390  -12.6270    4.0890 C.ar  231  TYR231     -0.0198
    106  CD1       41.3060  -12.8640    4.6140 C.ar  231  TYR231     -0.0009
    107  CD2       39.1670  -13.7110    3.9470 C.ar  231  TYR231     -0.0009
    108  CE1       41.6970  -14.1360    4.9850 C.ar  231  TYR231      0.0417
    109  CE2       39.5500  -14.9920    4.3160 C.ar  231  TYR231      0.0417
    110  CZ        40.8200  -15.2010    4.8270 C.ar  231  TYR231      0.1957
    111  OH        41.2230  -16.4580    5.2130 O.3   231  TYR231     -0.2866
    112  N         39.2110   -6.5390    7.6080 N.3   234  ILE234     -0.1245
    113  CA        40.6060   -6.5000    8.0850 C.3   234  ILE234      0.1561
    114  C         41.5110   -5.6490    7.1890 C.2   234  ILE234      0.2260
    115  O         42.2990   -4.8570    7.7000 O.2   234  ILE234     -0.2867
    116  CB        41.2150   -7.9240    8.1440 C.3   234  ILE234      0.0252
    117  CG1       40.4300   -8.8130    9.1060 C.3   234  ILE234      0.0019
    118  CG2       42.6810   -7.8970    8.5580 C.3   234  ILE234      0.0019
    119  CD1       40.2800   -8.2350   10.4750 C.3   234  ILE234      0.0001
    120  N         41.8260   -3.0040    9.6000 N.3   238  GLY238     -0.1210
    121  CA        42.9250   -3.5800   10.4030 C.3   238  GLY238      0.1956
    122  C         42.4690   -4.6690   11.3550 C.2   238  GLY238      0.2612
    123  O         43.2750   -5.4860   11.8040 O.2   238  GLY238     -0.2717
    124  N         41.1780   -4.6770   11.6770 N.am  239  TYR239     -0.1962
    125  CA        40.6250   -5.6730   12.5930 C.3   239  TYR239      0.1771
    126  C         39.1010   -5.6930   12.4660 C.2   239  TYR239      0.2620
    127  O         38.5410   -4.9180   11.6950 O.2   239  TYR239     -0.2715
    128  CB        41.0660   -5.3610   14.0290 C.3   239  TYR239      0.0574
    129  CG        40.6360   -3.9950   14.5180 C.ar  239  TYR239     -0.0198
    130  CD1       39.3710   -3.8040   15.0900 C.ar  239  TYR239     -0.0009
    131  CD2       41.4770   -2.8970   14.4050 C.ar  239  TYR239     -0.0009
    132  CE1       38.9700   -2.5630   15.5290 C.ar  239  TYR239      0.0417
    133  CE2       41.0770   -1.6390   14.8400 C.ar  239  TYR239      0.0417
    134  CZ        39.8240   -1.4800   15.4010 C.ar  239  TYR239      0.1957
    135  OH        39.4080   -0.2470   15.8400 O.3   239  TYR239     -0.2866
    136  N         38.4330   -6.5980   13.1750 N.am  240  THR240     -0.1951
    137  CA        36.9660   -6.5440   13.2970 C.3   240  THR240      0.1897
    138  C         36.6380   -6.4230   14.7650 C.2   240  THR240      0.2313
    139  O         37.3720   -6.9240   15.6250 O.2   240  THR240     -0.2863
    140  CB        36.2370   -7.7900   12.7580 C.3   240  THR240      0.1794
    141  OG1       36.4980   -8.9070   13.6080 O.3   240  THR240     -0.2208
    142  CG2       36.6840   -8.1210   11.3680 C.3   240  THR240      0.0378
@<TRIPOS>BOND
     1    81    82    1
     2    92    93    1
     3    92    94    1
     4    92    89    1
     5    90    89    1
     6    90    91    2
     7   104   105    1
     8   104   101    1
     9    88    89    1
    10    88    83   am
    11   107   105   ar
    12   107   109   ar
    13    76    75    2
    14   105   106   ar
    15    82    83    1
    16    82    85    1
    17   109   110   ar
    18    83    84    2
    19   102   103    2
    20   102   101    1
    21   106   108   ar
    22    87    85    1
    23    85    86    1
    24   110   108   ar
    25   110   111    1
    26   101   100    1
    27    77    78    1
    28    77    74    1
    29    75    74    1
    30    79    78   ar
    31    78    80   ar
    32   100    97   am
    33    74    73    1
    34    95    96    1
    35    51    50    2
    36    97    96    1
    37    97    98    2
    38    96    99    1
    39    73    71   am
    40    72    71    2
    41    50    49    1
    42   114   115    2
    43   114   113    1
    44    71    70    1
    45   112   113    1
    46    52    49    1
    47    52    53    1
    48   113   116    1
    49   116   118    1
    50   116   117    1
    51    49    48    1
    52    54    53    1
    53    54    55    1
    54    43    42    2
    55    70    69    1
    56   117   119    1
    57    55    56    2
    58   120   121    1
    59    42    41    1
    60    58    56    1
    61    56    57    1
    62    44    41    1
    63    44    45    1
    64    69    61   am
    65    47    45   ar
    66    41    40    1
    67   121   122    1
    68    62    61    2
    69    45    46   ar
    70    61    60    1
    71    35    34    2
    72   122   124   am
    73   122   123    2
    74   142   140    1
    75    40    34   am
    76   124   125    1
    77   127   126    2
    78    60    59    1
    79    60    63    1
    80    34    33    1
    81    67    65   ar
    82    67    68   ar
    83    65    64   ar
    84   126   125    1
    85   126   136   am
    86   125   128    1
    87    68    66   ar
    88   140   137    1
    89   140   141    1
    90    37    38    1
    91    37    39    1
    92    37    36    1
    93    64    66   ar
    94    64    63    1
    95   136   137    1
    96   137   138    1
    97    33    36    1
    98    33    32    1
    99   128   129    1
   100    16    15    2
   101   131   129   ar
   102   131   133   ar
   103   129   130   ar
   104    31    29   am
   105    15    14    1
   106   138   139    2
   107   133   134   ar
   108    18    19    1
   109    18    17    1
   110    19    20    1
   111   130   132   ar
   112    29    30    2
   113    29    28    1
   114   134   132   ar
   115   134   135    1
   116    22    21    1
   117    28    25    1
   118    14    17    1
   119    14    13    1
   120    20    21    2
   121    21    23    1
   122    25    26    1
   123    25    24    1
   124    26    27    2
   125    12    10    1
   126     5     2    1
   127    10    11    1
   128    10     7    1
   129     2     3    1
   130     2     1    1
   131     3     6   am
   132     3     4    2
   133     6     7    1
   134     7     8    1
   135     8     9    2
