@<TRIPOS>MOLECULE
tmp/5iy5P05.pdb
 123 120 0 0 0
SMALL
GASTEIGER

@<TRIPOS>ATOM
      1  N         -2.9000   -9.5710   86.6930 N.3    78  ARG78      -0.1197
      2  CA        -2.3940   -8.9100   85.4840 C.3    78  ARG78       0.1779
      3  C         -1.1420   -8.1120   85.8300 C.2    78  ARG78       0.2305
      4  O         -0.1250   -8.2260   85.1510 O.2    78  ARG78      -0.2863
      5  CB        -3.4570   -7.9490   84.8880 C.2    78  ARG78      -0.0007
      6  CG        -4.8180   -8.5870   84.5700 C.2    78  ARG78       0.0176
      7  CD        -5.8220   -7.6960   83.7460 C.3    78  ARG78       0.2464
      8  NE        -6.7560   -8.6790   83.1960 N.pl3  78  ARG78      -0.0815
      9  CZ        -6.6470   -9.2510   81.9850 C.cat  78  ARG78       0.5349
     10  NH1       -5.7090   -8.8550   81.1320 N.pl3  78  ARG78       0.1354
     11  NH2       -7.5140  -10.1990   81.6400 N.pl3  78  ARG78       0.1354
     12  N          2.8240   -8.8220   84.5790 N.3    82  ILE82      -0.1245
     13  CA         3.5740   -7.7670   83.8580 C.3    82  ILE82       0.1561
     14  C          4.8740   -7.4720   84.5900 C.2    82  ILE82       0.2260
     15  O          5.9460   -7.3320   83.9670 O.2    82  ILE82      -0.2867
     16  CB         2.7140   -6.4860   83.6980 C.3    82  ILE82       0.0252
     17  CG1        1.6450   -6.7750   82.6710 C.3    82  ILE82       0.0019
     18  CG2        3.5520   -5.2200   83.2940 C.3    82  ILE82       0.0019
     19  CD1        0.4380   -5.8430   82.7760 C.3    82  ILE82       0.0001
     20  N          7.3580  -10.3080   84.0800 N.3    85  ILE85      -0.1245
     21  CA         7.9880  -10.1540   82.7390 C.3    85  ILE85       0.1561
     22  C          9.0410   -9.0270   82.7230 C.2    85  ILE85       0.2260
     23  O         10.1190   -9.2150   82.1740 O.2    85  ILE85      -0.2867
     24  CB         6.9270   -9.9770   81.6190 C.3    85  ILE85       0.0252
     25  CG1        6.2150  -11.3650   81.4250 C.3    85  ILE85       0.0019
     26  CG2        7.6290   -9.4660   80.3120 C.3    85  ILE85       0.0019
     27  CD1        4.8900  -11.2790   80.6650 C.3    85  ILE85       0.0001
     28  N         13.0240   -9.2380   81.7600 N.3    89  VAL89      -0.1245
     29  CA        13.6360   -8.4240   80.7250 C.3    89  VAL89       0.1561
     30  C         14.9830   -7.9280   81.2450 C.2    89  VAL89       0.2260
     31  O         15.9960   -7.9670   80.5060 O.2    89  VAL89      -0.2867
     32  CB        12.6880   -7.2560   80.3150 C.3    89  VAL89       0.0252
     33  CG1       13.4310   -6.1540   79.5600 C.3    89  VAL89       0.0019
     34  CG2       11.4800   -7.7550   79.4420 C.3    89  VAL89       0.0019
     35  N         17.6290  -10.5510   81.2190 N.3    92  PHE92      -0.1227
     36  CA        18.2500  -10.7010   79.8950 C.3    92  PHE92       0.1736
     37  C         19.0710   -9.4760   79.5720 C.2    92  PHE92       0.2596
     38  O         20.0860   -9.6110   78.9430 O.2    92  PHE92      -0.2718
     39  CB        17.2100  -10.9280   78.8410 C.3    92  PHE92       0.0547
     40  CG        16.8560  -12.3820   78.6930 C.ar   92  PHE92      -0.0202
     41  CD1       17.6450  -13.2240   77.8660 C.ar   92  PHE92      -0.0042
     42  CD2       15.7970  -12.9250   79.4300 C.ar   92  PHE92      -0.0042
     43  CE1       17.3160  -14.5650   77.7360 C.ar   92  PHE92      -0.0003
     44  CE2       15.4770  -14.2880   79.3220 C.ar   92  PHE92      -0.0003
     45  CZ        16.2460  -15.1060   78.4700 C.ar   92  PHE92      -0.0000
     46  N         18.6700   -8.2860   80.0390 N.am   93  THR93      -0.1953
     47  CA        19.5150   -7.1220   79.7710 C.3    93  THR93       0.1897
     48  C         20.9480   -7.3240   80.2830 C.2    93  THR93       0.2313
     49  O         21.8410   -6.8480   79.6540 O.2    93  THR93      -0.2863
     50  CB        18.9280   -5.8510   80.3970 C.3    93  THR93       0.1794
     51  OG1       17.6120   -5.6270   79.8140 O.3    93  THR93      -0.2208
     52  CG2       19.7570   -4.6970   79.9740 C.3    93  THR93       0.0378
     53  N         22.7530   -9.1530   77.5390 N.3    96  PHE96      -0.1241
     54  CA        23.0380   -8.2940   76.3800 C.3    96  PHE96       0.1605
     55  C         24.1830   -7.3270   76.6320 C.2    96  PHE96       0.2264
     56  O         25.0470   -7.0860   75.7530 O.2    96  PHE96      -0.2867
     57  CB        21.7680   -7.5290   75.8910 C.3    96  PHE96       0.0534
     58  CG        20.8240   -8.4080   75.0920 C.ar   96  PHE96      -0.0203
     59  CD1       21.0030   -8.5680   73.7160 C.ar   96  PHE96      -0.0042
     60  CD2       19.8070   -9.1260   75.7320 C.ar   96  PHE96      -0.0042
     61  CE1       20.1580   -9.3750   72.9970 C.ar   96  PHE96      -0.0003
     62  CE2       18.9680   -9.9810   75.0130 C.ar   96  PHE96      -0.0003
     63  CZ        19.1550  -10.0930   73.6290 C.ar   96  PHE96      -0.0000
     64  N          1.3290  -13.4180   76.8680 N.3   238  TRP238     -0.1241
     65  CA         2.3060  -12.3550   77.1870 C.3   238  TRP238      0.1605
     66  C          3.6910  -12.8990   77.3550 C.2   238  TRP238      0.2264
     67  O          4.6240  -12.3410   76.8300 O.2   238  TRP238     -0.2867
     68  CB         1.9750  -11.6660   78.4810 C.3   238  TRP238      0.0550
     69  CG         0.6550  -10.9700   78.4360 C.ar  238  TRP238      0.0003
     70  CD1       -0.1670  -10.7180   77.3130 C.ar  238  TRP238      0.0946
     71  CD2       -0.0160  -10.3810   79.5630 C.ar  238  TRP238      0.0152
     72  NE1       -1.2550  -10.0020   77.6860 N.ar  238  TRP238     -0.2442
     73  CE2       -1.2630   -9.8090   79.0350 C.ar  238  TRP238      0.0810
     74  CE3        0.2860  -10.2460   80.9320 C.ar  238  TRP238      0.0012
     75  CZ2       -2.1360   -9.1060   79.8430 C.ar  238  TRP238      0.0191
     76  CZ3       -0.6470   -9.5710   81.7530 C.ar  238  TRP238      0.0001
     77  CH2       -1.8000   -8.9980   81.2070 C.ar  238  TRP238      0.0015
     78  N          5.0160  -13.8500   73.8400 N.3   241  HIS241     -0.1226
     79  CA         5.5000  -12.6990   73.0630 C.3   241  HIS241      0.1752
     80  C          6.7980  -12.1450   73.6210 C.2   241  HIS241      0.2596
     81  O          7.6310  -11.6230   72.8550 O.2   241  HIS241     -0.2718
     82  CB         4.4540  -11.5440   73.0640 C.3   241  HIS241      0.0759
     83  CG         3.2050  -11.8850   72.3150 C.ar  241  HIS241      0.0818
     84  ND1        3.2220  -12.2950   71.0150 N.ar  241  HIS241     -0.2268
     85  CD2        1.8680  -11.8150   72.6850 C.ar  241  HIS241      0.1154
     86  CE1        1.9580  -12.4970   70.5810 C.ar  241  HIS241      0.1986
     87  NE2        1.1240  -12.1830   71.5940 N.ar  241  HIS241     -0.2212
     88  N          6.9520  -12.2000   74.9640 N.am  242  PHE242     -0.1976
     89  CA         8.1890  -11.7740   75.5720 C.3   242  PHE242      0.1639
     90  C          9.3270  -12.6860   75.0390 C.2   242  PHE242      0.2290
     91  O         10.3880  -12.2250   74.6780 O.2   242  PHE242     -0.2864
     92  CB         8.0370  -11.8280   77.1320 C.3   242  PHE242      0.0560
     93  CG         9.3200  -12.0950   77.8440 C.ar  242  PHE242     -0.0200
     94  CD1       10.3230  -11.1050   77.9170 C.ar  242  PHE242     -0.0042
     95  CD2        9.5680  -13.3510   78.4160 C.ar  242  PHE242     -0.0042
     96  CE1       11.5240  -11.3640   78.6300 C.ar  242  PHE242     -0.0003
     97  CE2       10.8020  -13.6230   79.0750 C.ar  242  PHE242     -0.0003
     98  CZ        11.7770  -12.6200   79.1680 C.ar  242  PHE242     -0.0000
     99  N         10.2350  -11.6080   71.5290 N.3   245  VAL245     -0.1231
    100  CA        10.9540  -10.3370   71.4130 C.3   245  VAL245      0.1692
    101  C         12.4340  -10.5320   71.8280 C.2   245  VAL245      0.2591
    102  O         13.3510   -9.9770   71.2000 O.2   245  VAL245     -0.2718
    103  CB        10.2830   -9.2710   72.2870 C.3   245  VAL245      0.0266
    104  CG1       11.1530   -7.9930   72.4080 C.3   245  VAL245      0.0020
    105  CG2        8.9050   -8.9900   71.7230 C.3   245  VAL245      0.0020
    106  N         12.6510  -11.2840   72.9210 N.am  246  VAL246     -0.1980
    107  CA        14.0230  -11.6280   73.3150 C.3   246  VAL246      0.1595
    108  C         14.7540  -12.3020   72.1210 C.2   246  VAL246      0.2287
    109  O         15.8500  -11.8900   71.7610 O.2   246  VAL246     -0.2864
    110  CB        14.0770  -12.4330   74.5770 C.3   246  VAL246      0.0276
    111  CG1       15.5150  -12.9090   74.8420 C.3   246  VAL246      0.0022
    112  CG2       13.5400  -11.5420   75.7540 C.3   246  VAL246      0.0022
    113  N         15.8460   -9.7200   69.5380 N.3   249  PHE249     -0.1241
    114  CA        17.0390   -9.0510   70.0320 C.3   249  PHE249      0.1605
    115  C         18.2800   -9.9670   69.9260 C.2   249  PHE249      0.2264
    116  O         19.3160   -9.4750   69.5720 O.2   249  PHE249     -0.2867
    117  CB        16.8400   -8.4870   71.4910 C.3   249  PHE249      0.0534
    118  CG        16.1080   -7.1470   71.5140 C.ar  249  PHE249     -0.0203
    119  CD1       14.7170   -7.0850   71.4020 C.ar  249  PHE249     -0.0042
    120  CD2       16.8130   -5.9460   71.5720 C.ar  249  PHE249     -0.0042
    121  CE1       14.0320   -5.8580   71.3480 C.ar  249  PHE249     -0.0003
    122  CE2       16.1380   -4.7110   71.5400 C.ar  249  PHE249     -0.0003
    123  CZ        14.7470   -4.6620   71.4420 C.ar  249  PHE249     -0.0000
@<TRIPOS>BOND
     1   113   114    1
     2   116   115    2
     3   115   114    1
     4   114   117    1
     5    86    84   ar
     6    86    87   ar
     7    84    83   ar
     8   102   101    2
     9   121   119   ar
    10   121   123   ar
    11   119   118   ar
    12   100    99    1
    13   100   101    1
    14   100   103    1
    15   123   122   ar
    16   117   118    1
    17   118   120   ar
    18   122   120   ar
    19    87    85   ar
    20   105   103    1
    21   109   108    2
    22   101   106   am
    23   108   107    1
    24   103   104    1
    25    83    85   ar
    26    83    82    1
    27    81    80    2
    28   106   107    1
    29    61    63   ar
    30    61    59   ar
    31    79    82    1
    32    79    80    1
    33    79    78    1
    34   107   110    1
    35    80    88   am
    36    63    62   ar
    37    59    58   ar
    38   110   111    1
    39   110   112    1
    40    91    90    2
    41    88    89    1
    42    62    60   ar
    43    90    89    1
    44    58    60   ar
    45    58    57    1
    46    89    92    1
    47    56    55    2
    48    57    54    1
    49    54    55    1
    50    54    53    1
    51    67    66    2
    52    64    65    1
    53    92    93    1
    54    65    66    1
    55    65    68    1
    56    70    72   ar
    57    70    69   ar
    58    72    73   ar
    59    43    41   ar
    60    43    45   ar
    61    93    94   ar
    62    93    95   ar
    63    41    40   ar
    64    94    96   ar
    65    95    97   ar
    66    69    68    1
    67    69    71   ar
    68    45    44   ar
    69    96    98   ar
    70    40    39    1
    71    40    42   ar
    72    39    36    1
    73    38    37    2
    74    73    71   ar
    75    73    75   ar
    76    97    98   ar
    77    44    42   ar
    78    34    32    1
    79    33    32    1
    80    71    74   ar
    81    37    36    1
    82    37    46   am
    83    49    48    2
    84    47    46    1
    85    47    48    1
    86    47    50    1
    87    51    50    1
    88    75    77   ar
    89    36    35    1
    90    52    50    1
    91    26    24    1
    92    32    29    1
    93    31    30    2
    94    27    25    1
    95    29    30    1
    96    29    28    1
    97    74    76   ar
    98    10     9    1
    99    77    76   ar
   100    25    24    1
   101    24    21    1
   102    11     9    1
   103     9     8    2
   104    23    22    2
   105    17    19    1
   106    17    16    1
   107    22    21    1
   108    21    20    1
   109     8     7    1
   110    18    16    1
   111    16    13    1
   112     7     6    1
   113    13    12    1
   114    13    14    1
   115    15    14    2
   116     6     5    2
   117     5     2    1
   118     4     3    2
   119     2     3    1
   120     2     1    1
