@<TRIPOS>MOLECULE
tmp/5iy5C04.pdb
 130 127 0 0 0
SMALL
GASTEIGER

@<TRIPOS>ATOM
      1  N         -4.1620    8.6490   60.7420 N.3    82  ILE82      -0.1245
      2  CA        -3.1820    7.5820   60.8910 C.3    82  ILE82       0.1561
      3  C         -2.4960    7.2690   59.5140 C.2    82  ILE82       0.2260
      4  O         -1.2410    7.1850   59.4400 O.2    82  ILE82      -0.2867
      5  CB        -3.9170    6.3410   61.4520 C.3    82  ILE82       0.0252
      6  CG1       -4.2470    6.6210   62.9690 C.3    82  ILE82       0.0019
      7  CG2       -3.0220    5.0930   61.3590 C.3    82  ILE82       0.0019
      8  CD1       -5.2540    5.5920   63.5860 C.3    82  ILE82       0.0001
      9  N         -0.0600   10.0510   58.5050 N.3    85  ILE85      -0.1245
     10  CA         1.1450    9.9520   59.2560 C.3    85  ILE85       0.1561
     11  C          1.9740    8.7960   58.7170 C.2    85  ILE85       0.2260
     12  O          3.2130    8.9310   58.6220 O.2    85  ILE85      -0.2867
     13  CB         0.8660    9.7630   60.7950 C.3    85  ILE85       0.0252
     14  CG1        0.3950   11.1240   61.3460 C.3    85  ILE85       0.0019
     15  CG2        2.1250    9.2370   61.4870 C.3    85  ILE85       0.0019
     16  CD1       -0.2060   11.0880   62.7500 C.3    85  ILE85       0.0001
     17  N          5.9120    9.0120   57.3700 N.3    89  VAL89      -0.1245
     18  CA         6.9650    8.2060   57.9370 C.3    89  VAL89       0.1561
     19  C          7.7100    7.6940   56.7110 C.2    89  VAL89       0.2260
     20  O          8.9600    7.6660   56.7080 O.2    89  VAL89      -0.2867
     21  CB         6.4280    7.0210   58.7950 C.3    89  VAL89       0.0252
     22  CG1        7.5050    5.8920   58.9780 C.3    89  VAL89       0.0019
     23  CG2        5.8690    7.5410   60.1750 C.3    89  VAL89       0.0019
     24  N         10.0980   10.2810   55.2520 N.3    92  PHE92      -0.1227
     25  CA        11.3580   10.3850   55.9840 C.3    92  PHE92       0.1736
     26  C         12.1900    9.1670   55.7580 C.2    92  PHE92       0.2596
     27  O         13.3990    9.2590   55.8140 O.2    92  PHE92      -0.2718
     28  CB        11.1330   10.6040   57.5170 C.3    92  PHE92       0.0547
     29  CG        10.8660   12.0490   57.8320 C.ar   92  PHE92      -0.0202
     30  CD1       11.9400   12.9660   57.8720 C.ar   92  PHE92      -0.0042
     31  CD2        9.5540   12.5350   57.9050 C.ar   92  PHE92      -0.0042
     32  CE1       11.7210   14.3180   58.0960 C.ar   92  PHE92      -0.0003
     33  CE2        9.3350   13.9000   58.1140 C.ar   92  PHE92      -0.0003
     34  CZ        10.4110   14.7840   58.2280 C.ar   92  PHE92      -0.0000
     35  N         11.5780    8.0120   55.5990 N.am   93  THR93      -0.1953
     36  CA        12.3840    6.8070   55.4380 C.3    93  THR93       0.1897
     37  C         13.3170    6.9570   54.2340 C.2    93  THR93       0.2313
     38  O         14.4680    6.5150   54.2820 O.2    93  THR93      -0.2863
     39  CB        11.4650    5.5600   55.2550 C.3    93  THR93       0.1794
     40  OG1       10.7420    5.3290   56.5010 O.3    93  THR93      -0.2208
     41  CG2       12.2670    4.3350   54.9400 C.3    93  THR93       0.0378
     42  N         16.3670    8.8450   55.4510 N.3    96  PHE96      -0.1241
     43  CA        17.2190    7.9840   56.2700 C.3    96  PHE96       0.1605
     44  C         17.9770    6.9930   55.3820 C.2    96  PHE96       0.2264
     45  O         19.1640    6.6990   55.5990 O.2    96  PHE96      -0.2867
     46  CB        16.4320    7.2180   57.3570 C.3    96  PHE96       0.0534
     47  CG        16.1050    8.0710   58.5610 C.ar   96  PHE96      -0.0203
     48  CD1       14.9250    8.8250   58.5990 C.ar   96  PHE96      -0.0042
     49  CD2       16.9620    8.1010   59.6760 C.ar   96  PHE96      -0.0042
     50  CE1       14.6020    9.6150   59.7160 C.ar   96  PHE96      -0.0003
     51  CE2       16.6540    8.8980   60.7890 C.ar   96  PHE96      -0.0003
     52  CZ        15.4670    9.6630   60.8090 C.ar   96  PHE96      -0.0000
     53  N         21.9830    6.6520   55.4470 N.3   100  TYR100     -0.1241
     54  CA        22.7120    5.3920   55.7400 C.3   100  TYR100      0.1605
     55  C         23.5080    4.9210   54.5300 C.2   100  TYR100      0.2264
     56  O         24.6480    4.4060   54.6230 O.2   100  TYR100     -0.2867
     57  CB        21.7060    4.3130   56.2800 C.3   100  TYR100      0.0534
     58  CG        21.5270    4.4750   57.8360 C.ar  100  TYR100     -0.0201
     59  CD1       22.5970    4.1740   58.7110 C.ar  100  TYR100     -0.0009
     60  CD2       20.3580    4.9100   58.3810 C.ar  100  TYR100     -0.0009
     61  CE1       22.4780    4.3400   60.0910 C.ar  100  TYR100      0.0417
     62  CE2       20.2000    5.0750   59.7530 C.ar  100  TYR100      0.0417
     63  CZ        21.2670    4.8050   60.5940 C.ar  100  TYR100      0.1957
     64  OH        21.1440    4.9800   61.9900 O.3   100  TYR100     -0.2866
     65  N         -1.0930   13.1740   67.9940 N.3   238  TRP238     -0.1241
     66  CA        -0.4540   12.0840   67.1870 C.3   238  TRP238      0.1605
     67  C          0.6120   12.6150   66.2640 C.2   238  TRP238      0.2264
     68  O          1.6540   12.0320   66.1290 O.2   238  TRP238     -0.2867
     69  CB        -1.4650   11.4240   66.2330 C.3   238  TRP238      0.0550
     70  CG        -2.5880   10.7790   66.9760 C.ar  238  TRP238      0.0003
     71  CD1       -2.6790   10.5970   68.3070 C.ar  238  TRP238      0.0946
     72  CD2       -3.7920   10.2040   66.4060 C.ar  238  TRP238      0.0152
     73  NE1       -3.8370    9.9360   68.6390 N.ar  238  TRP238     -0.2442
     74  CE2       -4.5340    9.6390   67.5200 C.ar  238  TRP238      0.0810
     75  CE3       -4.2870   10.0260   65.0650 C.ar  238  TRP238      0.0012
     76  CZ2       -5.7680    8.9500   67.3390 C.ar  238  TRP238      0.0191
     77  CZ3       -5.5120    9.3380   64.8870 C.ar  238  TRP238      0.0001
     78  CH2       -6.2290    8.8070   66.0080 C.ar  238  TRP238      0.0015
     79  N          3.5590   13.5990   68.3630 N.3   241  HIS241     -0.1226
     80  CA         4.3380   12.3790   68.7240 C.3   241  HIS241      0.1752
     81  C          5.1550   11.8930   67.5080 C.2   241  HIS241      0.2596
     82  O          6.3070   11.5090   67.6490 O.2   241  HIS241     -0.2718
     83  CB         3.4380   11.2430   69.2810 C.3   241  HIS241      0.0759
     84  CG         2.8980   11.5840   70.6620 C.ar  241  HIS241      0.0818
     85  ND1        3.6850   12.1500   71.6230 N.ar  241  HIS241     -0.2268
     86  CD2        1.5980   11.4970   71.2050 C.ar  241  HIS241      0.1154
     87  CE1        2.9440   12.3560   72.7560 C.ar  241  HIS241      0.1986
     88  NE2        1.6560   11.9420   72.4920 N.ar  241  HIS241     -0.2212
     89  N          4.5590   11.9070   66.3250 N.am  242  PHE242     -0.1976
     90  CA         5.2670   11.4740   65.1060 C.3   242  PHE242      0.1639
     91  C          6.5380   12.4150   64.9930 C.2   242  PHE242      0.2290
     92  O          7.6740   11.9630   64.7490 O.2   242  PHE242     -0.2864
     93  CB         4.3150   11.5990   63.8890 C.3   242  PHE242      0.0560
     94  CG         5.0290   11.9180   62.5960 C.ar  242  PHE242     -0.0200
     95  CD1        5.8240   10.9510   61.9690 C.ar  242  PHE242     -0.0042
     96  CD2        4.9710   13.1800   62.0660 C.ar  242  PHE242     -0.0042
     97  CE1        6.4510   11.2070   60.7280 C.ar  242  PHE242     -0.0003
     98  CE2        5.6620   13.4900   60.8320 C.ar  242  PHE242     -0.0003
     99  CZ         6.3740   12.4930   60.1810 C.ar  242  PHE242     -0.0000
    100  N          9.2370   11.3250   67.4810 N.3   245  VAL245     -0.1231
    101  CA         9.8950   10.0870   67.1700 C.3   245  VAL245      0.1692
    102  C         10.9040   10.2130   66.0040 C.2   245  VAL245      0.2591
    103  O         11.9620    9.5770   66.0170 O.2   245  VAL245     -0.2718
    104  CB         8.8160    9.0090   66.8950 C.3   245  VAL245      0.0266
    105  CG1        9.4420    7.7700   66.3330 C.3   245  VAL245      0.0020
    106  CG2        8.0350    8.7140   68.2160 C.3   245  VAL245      0.0020
    107  N         10.5670   11.0070   64.9750 N.am  246  VAL246     -0.1980
    108  CA        11.4680   11.2390   63.8810 C.3   246  VAL246      0.1595
    109  C         12.7250   11.9540   64.4280 C.2   246  VAL246      0.2287
    110  O         13.8730   11.6620   63.9940 O.2   246  VAL246     -0.2864
    111  CB        10.7800   12.1500   62.8220 C.3   246  VAL246      0.0276
    112  CG1       11.7520   12.6500   61.7760 C.3   246  VAL246      0.0022
    113  CG2        9.6160   11.4050   62.1450 C.3   246  VAL246      0.0022
    114  N         14.9670    9.3350   66.0070 N.3   249  PHE249     -0.1241
    115  CA        15.7000    8.6200   64.8940 C.3   249  PHE249      0.1605
    116  C         16.7720    9.5320   64.2910 C.2   249  PHE249      0.2264
    117  O         17.8900    9.0630   64.0460 O.2   249  PHE249     -0.2867
    118  CB        14.7610    8.0930   63.7820 C.3   249  PHE249      0.0534
    119  CG        14.1330    6.7760   64.1230 C.ar  249  PHE249     -0.0203
    120  CD1       13.0810    6.7140   65.0220 C.ar  249  PHE249     -0.0042
    121  CD2       14.6550    5.5740   63.6070 C.ar  249  PHE249     -0.0042
    122  CE1       12.5170    5.4800   65.4090 C.ar  249  PHE249     -0.0003
    123  CE2       14.0850    4.3520   63.9590 C.ar  249  PHE249     -0.0003
    124  CZ        12.9960    4.3080   64.8780 C.ar  249  PHE249     -0.0000
    125  N         20.6590    8.4600   64.6240 N.3   253  SER253     -0.1217
    126  CA        21.2880    8.1400   63.3080 C.3   253  SER253      0.1889
    127  C         22.3240    9.2030   62.9160 C.2   253  SER253      0.2288
    128  O         23.5060    8.9030   62.7000 O.2   253  SER253     -0.2866
    129  CB        20.2130    8.1320   62.2670 C.3   253  SER253      0.2089
    130  OG        19.3860    7.0160   62.5700 O.3   253  SER253     -0.2183
@<TRIPOS>BOND
     1    37    38    2
     2    37    36    1
     3    55    56    2
     4    55    54    1
     5    41    39    1
     6    24    25    1
     7    39    36    1
     8    39    40    1
     9    44    45    2
    10    44    43    1
    11    36    35    1
    12    53    54    1
    13    42    43    1
    14    35    26   am
    15    54    57    1
    16    26    27    2
    17    26    25    1
    18    25    28    1
    19    43    46    1
    20    57    58    1
    21    20    19    2
    22    19    18    1
    23    46    47    1
    24    17    18    1
    25    28    29    1
    26    29    30   ar
    27    29    31   ar
    28    58    60   ar
    29    58    59   ar
    30    30    32   ar
    31    31    33   ar
    32    18    21    1
    33    32    34   ar
    34    33    34   ar
    35    60    62   ar
    36     9    10    1
    37    47    48   ar
    38    47    49   ar
    39    48    50   ar
    40    12    11    2
    41    59    61   ar
    42    11    10    1
    43    21    22    1
    44    21    23    1
    45    10    13    1
    46     4     3    2
    47     3     2    1
    48    49    51   ar
    49    50    52   ar
    50    62    63   ar
    51    61    63   ar
    52    99    97   ar
    53    99    98   ar
    54    63    64    1
    55    97    95   ar
    56     1     2    1
    57    51    52   ar
    58    13    14    1
    59    13    15    1
    60    98    96   ar
    61     2     5    1
    62    14    16    1
    63     7     5    1
    64     5     6    1
    65   112   111    1
    66    95    94   ar
    67    96    94   ar
    68   113   111    1
    69   129   130    1
    70   129   126    1
    71    94    93    1
    72   128   127    2
    73   111   108    1
    74   127   126    1
    75     6     8    1
    76   126   125    1
    77   121   123   ar
    78   121   119   ar
    79   118   119    1
    80   118   115    1
    81   108   109    1
    82   108   107    1
    83    93    90    1
    84   123   124   ar
    85   110   109    2
    86   117   116    2
    87   119   120   ar
    88   116   115    1
    89    92    91    2
    90   124   122   ar
    91    77    75   ar
    92    77    78   ar
    93   115   114    1
    94   107   102   am
    95    91    90    1
    96   120   122   ar
    97    75    72   ar
    98    90    89    1
    99   102   103    2
   100   102   101    1
   101    78    76   ar
   102    68    67    2
   103    69    70    1
   104    69    66    1
   105    67    66    1
   106    89    81   am
   107   105   104    1
   108    72    70   ar
   109    72    74   ar
   110   104   101    1
   111   104   106    1
   112    70    71   ar
   113   101   100    1
   114    66    65    1
   115    76    74   ar
   116    81    82    2
   117    81    80    1
   118    74    73   ar
   119    71    73   ar
   120    79    80    1
   121    80    83    1
   122    83    84    1
   123    84    86   ar
   124    84    85   ar
   125    86    88   ar
   126    85    87   ar
   127    88    87   ar
