@<TRIPOS>MOLECULE
tmp/5iy5N09.pdb
 111 108 0 0 0
SMALL
GASTEIGER

@<TRIPOS>ATOM
      1  N         -0.1360  -24.8060  115.2800 N.3     1  PHE1       -0.1241
      2  CA         1.1350  -24.1620  115.1450 C.3     1  PHE1        0.1605
      3  C          1.7880  -24.1790  113.7370 C.2     1  PHE1        0.2264
      4  O          2.2740  -23.1020  113.2420 O.2     1  PHE1       -0.2867
      5  CB         2.1180  -24.7370  116.1370 C.3     1  PHE1        0.0534
      6  CG         3.3730  -23.9070  116.2770 C.ar    1  PHE1       -0.0203
      7  CD1        3.4220  -22.8340  117.1950 C.ar    1  PHE1       -0.0042
      8  CD2        4.4960  -24.1910  115.5070 C.ar    1  PHE1       -0.0042
      9  CE1        4.5750  -22.0640  117.3180 C.ar    1  PHE1       -0.0003
     10  CE2        5.6560  -23.4120  115.6190 C.ar    1  PHE1       -0.0003
     11  CZ         5.6920  -22.3630  116.5340 C.ar    1  PHE1       -0.0000
     12  N          5.6300  -10.5240  111.2580 N.3    16  THR16      -0.1218
     13  CA         6.2690  -10.9600  112.5140 C.3    16  THR16       0.1862
     14  C          7.4490  -11.9290  112.2810 C.2    16  THR16       0.2287
     15  O          8.5670  -11.7520  112.8500 O.2    16  THR16      -0.2866
     16  CB         5.2170  -11.5770  113.4570 C.3    16  THR16       0.1770
     17  OG1        4.2690  -10.5460  113.7740 O.3    16  THR16      -0.2211
     18  CG2        5.8920  -12.1760  114.7440 C.3    16  THR16       0.0375
     19  N         10.3180   -9.9280  111.2030 N.3    19  LEU19      -0.1231
     20  CA        10.9390   -9.1230  112.2810 C.3    19  LEU19       0.1693
     21  C         11.8520  -10.0480  113.1330 C.2    19  LEU19       0.2591
     22  O         12.9810   -9.6950  113.4610 O.2    19  LEU19      -0.2718
     23  CB         9.8460   -8.4580  113.1110 C.3    19  LEU19       0.0284
     24  CG         9.0910   -7.3030  112.4270 C.3    19  LEU19       0.0019
     25  CD1        7.9660   -6.7900  113.3770 C.3    19  LEU19       0.0001
     26  CD2       10.1150   -6.2130  112.0640 C.3    19  LEU19       0.0001
     27  N         11.3870  -11.2560  113.4180 N.am   20  LEU20      -0.1980
     28  CA        12.1570  -12.1990  114.2800 C.3    20  LEU20       0.1596
     29  C         13.4890  -12.6260  113.5540 C.2    20  LEU20       0.2287
     30  O         14.6150  -12.6020  114.1090 O.2    20  LEU20      -0.2864
     31  CB        11.2590  -13.4130  114.6300 C.3    20  LEU20       0.0297
     32  CG        10.1180  -13.2440  115.6480 C.3    20  LEU20       0.0022
     33  CD1        9.1540  -14.4430  115.5570 C.3    20  LEU20       0.0001
     34  CD2       10.7350  -13.1660  117.0680 C.3    20  LEU20       0.0001
     35  N         15.8380   -9.6930  113.4960 N.3    23  ALA23      -0.1245
     36  CA        16.4230   -9.4530  114.8500 C.3    23  ALA23       0.1562
     37  C         17.5310  -10.4800  115.0670 C.2    23  ALA23       0.2260
     38  O         18.6140  -10.1420  115.4960 O.2    23  ALA23      -0.2867
     39  CB        15.3630   -9.5720  115.9620 C.3    23  ALA23       0.0290
     40  N          3.5600   -5.7370  107.8230 N.3    80  TRP80      -0.1241
     41  CA         2.6650   -5.3830  108.9140 C.3    80  TRP80       0.1605
     42  C          1.8470   -4.1500  108.5340 C.2    80  TRP80       0.2264
     43  O          0.6240   -4.1160  108.7640 O.2    80  TRP80      -0.2867
     44  CB         3.4900   -5.0130  110.1780 C.3    80  TRP80       0.0550
     45  CG         3.4100   -6.0850  111.2310 C.ar   80  TRP80       0.0003
     46  CD1        4.3410   -7.0980  111.5250 C.ar   80  TRP80       0.0946
     47  CD2        2.2710   -6.3240  112.1290 C.ar   80  TRP80       0.0152
     48  NE1        3.8690   -7.8840  112.5970 N.ar   80  TRP80      -0.2442
     49  CE2        2.6360   -7.4760  112.9800 C.ar   80  TRP80       0.0810
     50  CE3        1.0110   -5.7350  112.2950 C.ar   80  TRP80       0.0012
     51  CZ2        1.7620   -7.9950  113.9130 C.ar   80  TRP80       0.0191
     52  CZ3        0.1680   -6.2180  113.3280 C.ar   80  TRP80       0.0001
     53  CH2        0.5230   -7.3390  114.0730 C.ar   80  TRP80       0.0015
     54  N         10.7300    0.6400  115.2670 N.3   392  PHE392     -0.1241
     55  CA        10.5050   -0.5110  116.1220 C.3   392  PHE392      0.1605
     56  C          9.9270   -0.0440  117.4310 C.2   392  PHE392      0.2264
     57  O          8.8680   -0.5730  117.8680 O.2   392  PHE392     -0.2867
     58  CB        11.7810   -1.3220  116.4120 C.3   392  PHE392      0.0534
     59  CG        11.5270   -2.5260  117.3150 C.ar  392  PHE392     -0.0203
     60  CD1       10.9550   -3.7080  116.7930 C.ar  392  PHE392     -0.0042
     61  CD2       11.8030   -2.4630  118.6740 C.ar  392  PHE392     -0.0042
     62  CE1       10.6940   -4.8230  117.6000 C.ar  392  PHE392     -0.0003
     63  CE2       11.5470   -3.5650  119.4870 C.ar  392  PHE392     -0.0003
     64  CZ        10.9880   -4.7330  118.9600 C.ar  392  PHE392     -0.0000
     65  N          6.0670   -1.1400  117.9500 N.3   396  PHE396     -0.1241
     66  CA         6.0480   -2.2960  118.9160 C.3   396  PHE396      0.1605
     67  C          4.7060   -2.4500  119.6720 C.2   396  PHE396      0.2264
     68  O          4.1980   -3.5660  119.7910 O.2   396  PHE396     -0.2867
     69  CB         7.2470   -2.2760  119.9170 C.3   396  PHE396      0.0534
     70  CG         7.2330   -3.4080  120.9020 C.ar  396  PHE396     -0.0203
     71  CD1        7.8340   -4.6460  120.5810 C.ar  396  PHE396     -0.0042
     72  CD2        6.5890   -3.2690  122.1530 C.ar  396  PHE396     -0.0042
     73  CE1        7.7980   -5.7330  121.4750 C.ar  396  PHE396     -0.0003
     74  CE2        6.5500   -4.3600  123.0480 C.ar  396  PHE396     -0.0003
     75  CZ         7.1460   -5.5970  122.7020 C.ar  396  PHE396     -0.0000
     76  N          2.1090   -3.8830  117.1100 N.3   399  PHE399     -0.1227
     77  CA         2.3330   -5.2780  116.7750 C.3   399  PHE399      0.1736
     78  C          2.0770   -6.2850  117.9700 C.2   399  PHE399      0.2596
     79  O          1.6090   -7.4180  117.7370 O.2   399  PHE399     -0.2718
     80  CB         3.7770   -5.5170  116.2780 C.3   399  PHE399      0.0547
     81  CG         4.2260   -4.6160  115.1460 C.ar  399  PHE399     -0.0202
     82  CD1        3.3180   -4.0010  114.2880 C.ar  399  PHE399     -0.0042
     83  CD2        5.5710   -4.4190  114.9340 C.ar  399  PHE399     -0.0042
     84  CE1        3.7520   -3.2060  113.2730 C.ar  399  PHE399     -0.0003
     85  CE2        6.0050   -3.6000  113.9120 C.ar  399  PHE399     -0.0003
     86  CZ         5.0950   -3.0190  113.0740 C.ar  399  PHE399     -0.0000
     87  N          2.3950   -5.8780  119.2010 N.am  400  SER400     -0.1952
     88  CA         2.3900   -6.8030  120.3830 C.3   400  SER400      0.1924
     89  C          1.2310   -6.6050  121.3370 C.2   400  SER400      0.2314
     90  O          0.8610   -7.5240  122.0540 O.2   400  SER400     -0.2863
     91  CB         3.6810   -6.6270  121.1700 C.3   400  SER400      0.2116
     92  OG         3.7270   -5.3820  121.8840 O.3   400  SER400     -0.2180
     93  N         13.0200   -5.4480  125.3520 N.3   471  ILE471     -0.1245
     94  CA        12.0010   -6.2120  124.7230 C.3   471  ILE471      0.1561
     95  C         11.4450   -7.2510  125.7300 C.2   471  ILE471      0.2260
     96  O         10.2200   -7.3990  125.8580 O.2   471  ILE471     -0.2867
     97  CB        12.4910   -6.8510  123.3840 C.3   471  ILE471      0.0252
     98  CG1       12.7840   -5.7540  122.2960 C.3   471  ILE471      0.0019
     99  CG2       11.4260   -7.8280  122.8540 C.3   471  ILE471      0.0019
    100  CD1       13.6520   -6.2200  121.1090 C.3   471  ILE471      0.0001
    101  N          7.4860   -7.6130  127.4050 N.3   475  PHE475     -0.1241
    102  CA         6.6920   -8.8340  127.3480 C.3   475  PHE475      0.1605
    103  C          6.5210   -9.4030  128.7440 C.2   475  PHE475      0.2264
    104  O          5.5750  -10.1370  128.9640 O.2   475  PHE475     -0.2867
    105  CB         7.3360   -9.8960  126.4770 C.3   475  PHE475      0.0534
    106  CG         7.0520   -9.7100  124.9700 C.ar  475  PHE475     -0.0203
    107  CD1        5.7340   -9.8200  124.4440 C.ar  475  PHE475     -0.0042
    108  CD2        8.1020   -9.4920  124.0850 C.ar  475  PHE475     -0.0042
    109  CE1        5.5080   -9.6910  123.0880 C.ar  475  PHE475     -0.0003
    110  CE2        7.8780   -9.3910  122.7030 C.ar  475  PHE475     -0.0003
    111  CZ         6.5730   -9.4640  122.2100 C.ar  475  PHE475     -0.0000
@<TRIPOS>BOND
     1    40    41    1
     2    42    43    2
     3    42    41    1
     4    41    44    1
     5    44    45    1
     6    19    20    1
     7    45    46   ar
     8    45    47   ar
     9    12    13    1
    10    46    48   ar
    11    26    24    1
    12    47    50   ar
    13    47    49   ar
    14    20    23    1
    15    20    21    1
    16    14    13    1
    17    14    15    2
    18    50    52   ar
    19    24    23    1
    20    24    25    1
    21    13    16    1
    22    48    49   ar
    23    49    51   ar
    24    86    84   ar
    25    86    85   ar
    26    21    27   am
    27    21    22    2
    28     4     3    2
    29    84    82   ar
    30    52    53   ar
    31    27    28    1
    32    16    17    1
    33    16    18    1
    34    35    36    1
    35    29    30    2
    36    29    28    1
    37     3     2    1
    38    85    83   ar
    39    51    53   ar
    40    28    31    1
    41    82    81   ar
    42    31    32    1
    43    36    37    1
    44    36    39    1
    45    83    81   ar
    46    37    38    2
    47     2     1    1
    48     2     5    1
    49    81    80    1
    50    54    55    1
    51     8    10   ar
    52     8     6   ar
    53    33    32    1
    54    10    11   ar
    55    32    34    1
    56    55    58    1
    57    55    56    1
    58     5     6    1
    59     6     7   ar
    60    80    77    1
    61    58    59    1
    62    11     9   ar
    63    77    76    1
    64    77    78    1
    65    60    59   ar
    66    60    62   ar
    67     7     9   ar
    68    59    61   ar
    69    56    57    2
    70    62    64   ar
    71    79    78    2
    72    65    66    1
    73    78    87   am
    74    61    63   ar
    75    66    67    1
    76    66    69    1
    77    64    63   ar
    78    87    88    1
    79    67    68    2
    80    69    70    1
    81    88    91    1
    82    88    89    1
    83    71    70   ar
    84    71    73   ar
    85    70    72   ar
    86   100    98    1
    87    91    92    1
    88    89    90    2
    89    73    75   ar
    90    72    74   ar
    91   111   110   ar
    92   111   109   ar
    93    98    97    1
    94    75    74   ar
    95   110   108   ar
    96    99    97    1
    97   109   107   ar
    98    97    94    1
    99   108   106   ar
   100   107   106   ar
   101    94    93    1
   102    94    95    1
   103   106   105    1
   104    95    96    2
   105   105   102    1
   106   102   101    1
   107   102   103    1
   108   103   104    2
