@<TRIPOS>MOLECULE
tmp/5iy5N08.pdb
 114 116 0 0 0
SMALL
GASTEIGER

@<TRIPOS>ATOM
      1  N          2.3450  -20.7920  111.4580 N.3     5  TRP5       -0.1241
      2  CA         3.6950  -20.2180  111.3930 C.3     5  TRP5        0.1605
      3  C          4.5710  -20.6970  110.2740 C.2     5  TRP5        0.2264
      4  O          5.5290  -20.0000  109.8840 O.2     5  TRP5       -0.2867
      5  CB         4.3990  -20.3120  112.7590 C.3     5  TRP5        0.0550
      6  CG         3.6680  -19.4940  113.7820 C.ar    5  TRP5        0.0003
      7  CD1        2.8610  -19.9750  114.8340 C.ar    5  TRP5        0.0946
      8  CD2        3.5350  -18.0270  113.8290 C.ar    5  TRP5        0.0152
      9  NE1        2.2840  -18.9350  115.5030 N.ar    5  TRP5       -0.2442
     10  CE2        2.6830  -17.7320  114.9900 C.ar    5  TRP5        0.0810
     11  CE3        4.0730  -16.9400  113.0650 C.ar    5  TRP5        0.0012
     12  CZ2        2.3670  -16.4160  115.3710 C.ar    5  TRP5        0.0191
     13  CZ3        3.7620  -15.6090  113.4610 C.ar    5  TRP5        0.0001
     14  CH2        2.9110  -15.3550  114.5660 C.ar    5  TRP5        0.0015
     15  N          7.2760  -12.8490  111.3420 N.3    17  LEU17      -0.1245
     16  CA         8.3550  -13.8040  111.0580 C.3    17  LEU17       0.1561
     17  C          9.5320  -13.0340  110.5530 C.2    17  LEU17       0.2260
     18  O         10.6620  -13.2570  110.9610 O.2    17  LEU17      -0.2867
     19  CB         7.9110  -14.8430  110.0090 C.3    17  LEU17       0.0270
     20  CG         6.9170  -15.9400  110.5170 C.3    17  LEU17       0.0019
     21  CD1        6.3970  -16.7820  109.3280 C.3    17  LEU17       0.0001
     22  CD2        7.5490  -16.8500  111.5750 C.3    17  LEU17       0.0001
     23  N         11.3870  -11.2560  113.4180 N.3    20  LEU20      -0.1231
     24  CA        12.1570  -12.1990  114.2800 C.3    20  LEU20       0.1693
     25  C         13.4890  -12.6260  113.5540 C.2    20  LEU20       0.2592
     26  O         14.6150  -12.6020  114.1090 O.2    20  LEU20      -0.2718
     27  CB        11.2590  -13.4130  114.6300 C.3    20  LEU20       0.0284
     28  CG        10.1180  -13.2440  115.6480 C.3    20  LEU20       0.0019
     29  CD1        9.1540  -14.4430  115.5570 C.3    20  LEU20       0.0001
     30  CD2       10.7350  -13.1660  117.0680 C.3    20  LEU20       0.0001
     31  N         13.3340  -12.9740  112.2840 N.am   21  PHE21      -0.1976
     32  CA        14.4660  -13.3680  111.4190 C.3    21  PHE21       0.1639
     33  C         15.5260  -12.2330  111.3710 C.2    21  PHE21       0.2290
     34  O         16.7010  -12.4820  111.5760 O.2    21  PHE21      -0.2864
     35  CB        13.9360  -13.6770  110.0000 C.3    21  PHE21       0.0560
     36  CG        15.0310  -14.0020  109.0340 C.ar   21  PHE21      -0.0200
     37  CD1       15.7140  -12.9810  108.3770 C.ar   21  PHE21      -0.0042
     38  CD2       15.4660  -15.3410  108.8690 C.ar   21  PHE21      -0.0042
     39  CE1       16.7660  -13.2810  107.5250 C.ar   21  PHE21      -0.0003
     40  CE2       16.4910  -15.6320  107.9780 C.ar   21  PHE21      -0.0003
     41  CZ        17.1290  -14.6140  107.3120 C.ar   21  PHE21      -0.0000
     42  N         17.2690  -11.7430  114.7770 N.3    24  TRP24      -0.1241
     43  CA        18.2990  -12.7580  114.9050 C.3    24  TRP24       0.1605
     44  C         19.5120  -12.4910  114.0290 C.2    24  TRP24       0.2264
     45  O         20.6590  -12.5550  114.4920 O.2    24  TRP24      -0.2867
     46  CB        17.7220  -14.1080  114.5310 C.3    24  TRP24       0.0550
     47  CG        18.5820  -15.2680  114.9870 C.ar   24  TRP24       0.0003
     48  CD1       18.5570  -15.8900  116.2400 C.ar   24  TRP24       0.0946
     49  CD2       19.5710  -16.0240  114.2020 C.ar   24  TRP24       0.0152
     50  NE1       19.4460  -16.9470  116.2830 N.ar   24  TRP24      -0.2442
     51  CE2       20.0540  -17.0990  115.0690 C.ar   24  TRP24       0.0810
     52  CE3       20.0300  -15.9700  112.8660 C.ar   24  TRP24       0.0012
     53  CZ2       21.0160  -17.9950  114.6550 C.ar   24  TRP24       0.0191
     54  CZ3       20.9880  -16.9120  112.4530 C.ar   24  TRP24       0.0001
     55  CH2       21.4950  -17.8700  113.3300 C.ar   24  TRP24       0.0015
     56  N          9.3410  -14.9250  102.5620 N.3   101  PHE101     -0.1227
     57  CA         9.8810  -15.1940  103.8620 C.3   101  PHE101      0.1736
     58  C         10.7050  -16.4940  103.9150 C.2   101  PHE101      0.2595
     59  O         11.8920  -16.4470  104.3110 O.2   101  PHE101     -0.2718
     60  CB         8.8760  -15.1720  105.0470 C.3   101  PHE101      0.0547
     61  CG         9.5610  -15.5660  106.3150 C.ar  101  PHE101     -0.0202
     62  CD1       10.3930  -14.6660  106.9620 C.ar  101  PHE101     -0.0042
     63  CD2        9.5310  -16.8990  106.7640 C.ar  101  PHE101     -0.0042
     64  CE1       11.1530  -15.0640  108.0180 C.ar  101  PHE101     -0.0003
     65  CE2       10.2860  -17.3070  107.8670 C.ar  101  PHE101     -0.0003
     66  CZ        11.0850  -16.3880  108.5050 C.ar  101  PHE101     -0.0000
     67  N         10.1140  -17.6350  103.5390 N.am  102  TRP102     -0.1976
     68  CA        10.8300  -18.9100  103.7300 C.3   102  TRP102      0.1640
     69  C         12.0410  -19.1000  102.8780 C.2   102  TRP102      0.2290
     70  O         12.7840  -20.0150  103.1250 O.2   102  TRP102     -0.2864
     71  CB         9.8850  -20.1300  103.6150 C.3   102  TRP102      0.0576
     72  CG         9.0820  -20.1900  104.8810 C.ar  102  TRP102      0.0006
     73  CD1        7.7180  -19.8810  105.0700 C.ar  102  TRP102      0.0946
     74  CD2        9.6070  -20.4900  106.2010 C.ar  102  TRP102      0.0152
     75  NE1        7.3910  -19.9990  106.4080 N.ar  102  TRP102     -0.2442
     76  CE2        8.4800  -20.3720  107.1320 C.ar  102  TRP102      0.0810
     77  CE3       10.8530  -20.9000  106.6830 C.ar  102  TRP102      0.0012
     78  CZ2        8.6220  -20.6210  108.4950 C.ar  102  TRP102      0.0191
     79  CZ3       11.0010  -21.1400  108.0590 C.ar  102  TRP102      0.0001
     80  CH2        9.9050  -21.0190  108.9420 C.ar  102  TRP102      0.0015
     81  N         15.6360  -18.1850  105.2780 N.3   105  PRO105     -0.2116
     82  CA        16.4870  -19.0560  106.1070 C.3   105  PRO105      0.1372
     83  C         17.4230  -19.9460  105.2280 C.2   105  PRO105      0.2244
     84  O         18.6090  -20.1050  105.5660 O.2   105  PRO105     -0.2868
     85  CB        15.4680  -19.8950  106.9410 C.3   105  PRO105      0.0268
     86  CG        14.2810  -18.9760  107.0550 C.3   105  PRO105      0.0207
     87  CD        14.2050  -18.2490  105.6910 C.3   105  PRO105      0.0892
     88  N         20.3230  -17.8540  104.2270 N.3   108  PHE108     -0.1227
     89  CA        21.2600  -17.5560  105.2980 C.3   108  PHE108      0.1736
     90  C         22.0550  -18.8530  105.5400 C.2   108  PHE108      0.2595
     91  O         23.2720  -18.8230  105.7820 O.2   108  PHE108     -0.2718
     92  CB        20.4070  -17.1750  106.5560 C.3   108  PHE108      0.0547
     93  CG        21.1310  -16.3250  107.6040 C.ar  108  PHE108     -0.0202
     94  CD1       22.5390  -16.2160  107.6180 C.ar  108  PHE108     -0.0042
     95  CD2       20.3980  -15.6830  108.6110 C.ar  108  PHE108     -0.0042
     96  CE1       23.2030  -15.4390  108.5380 C.ar  108  PHE108     -0.0003
     97  CE2       21.0380  -14.9000  109.5810 C.ar  108  PHE108     -0.0003
     98  CZ        22.4580  -14.8040  109.5690 C.ar  108  PHE108     -0.0000
     99  N         21.3960  -20.0140  105.4280 N.am  109  LEU109     -0.1980
    100  CA        22.1220  -21.2680  105.6000 C.3   109  LEU109      0.1596
    101  C         23.2420  -21.4450  104.5400 C.2   109  LEU109      0.2287
    102  O         24.3710  -21.8600  104.8750 O.2   109  LEU109     -0.2864
    103  CB        21.1320  -22.4430  105.5720 C.3   109  LEU109      0.0297
    104  CG        21.7380  -23.8550  105.7180 C.3   109  LEU109      0.0022
    105  CD1       22.1410  -24.0610  107.1930 C.3   109  LEU109      0.0001
    106  CD2       20.7100  -24.9020  105.2830 C.3   109  LEU109      0.0001
    107  N         26.1510  -19.3880  105.7170 N.3   112  LEU112     -0.1245
    108  CA        26.9280  -19.9510  106.8220 C.3   112  LEU112      0.1561
    109  C         27.6350  -21.2970  106.3570 C.2   112  LEU112      0.2260
    110  O         28.6630  -21.6800  106.9000 O.2   112  LEU112     -0.2867
    111  CB        26.1360  -19.9440  108.2060 C.3   112  LEU112      0.0270
    112  CG        25.5670  -18.6440  108.9390 C.3   112  LEU112      0.0019
    113  CD1       24.7870  -18.8510  110.2670 C.3   112  LEU112      0.0001
    114  CD2       26.6110  -17.5640  109.2240 C.3   112  LEU112      0.0001
@<TRIPOS>BOND
     1    56    57    1
     2    69    70    2
     3    69    68    1
     4    67    68    1
     5    67    58   am
     6    71    68    1
     7    71    72    1
     8    57    58    1
     9    57    60    1
    10    58    59    2
    11    88    89    1
    12   101   102    2
    13   101   100    1
    14    72    73   ar
    15    72    74   ar
    16    60    61    1
    17    73    75   ar
    18    83    84    2
    19    83    82    1
    20    81    87    1
    21    81    82    1
    22   106   104    1
    23    89    90    1
    24    89    92    1
    25    99    90   am
    26    99   100    1
    27    90    91    2
    28   103   100    1
    29   103   104    1
    30    87    86    1
    31   107   108    1
    32   104   105    1
    33    82    85    1
    34    74    77   ar
    35    74    76   ar
    36    61    63   ar
    37    61    62   ar
    38   109   108    1
    39   109   110    2
    40    75    76   ar
    41    92    93    1
    42    77    79   ar
    43    63    65   ar
    44   108   111    1
    45    85    86    1
    46    62    64   ar
    47    76    78   ar
    48    41    39   ar
    49    41    40   ar
    50    39    37   ar
    51    93    94   ar
    52    93    95   ar
    53    94    96   ar
    54    65    66   ar
    55    40    38   ar
    56    64    66   ar
    57    79    80   ar
    58   111   112    1
    59    37    36   ar
    60    78    80   ar
    61    96    98   ar
    62    95    97   ar
    63    38    36   ar
    64   112   114    1
    65   112   113    1
    66    36    35    1
    67    21    20    1
    68    98    97   ar
    69     4     3    2
    70    35    32    1
    71    19    20    1
    72    19    16    1
    73     3     2    1
    74    20    22    1
    75    17    18    2
    76    17    16    1
    77    16    15    1
    78    33    32    1
    79    33    34    2
    80     2     1    1
    81     2     5    1
    82    32    31    1
    83    31    25   am
    84    54    52   ar
    85    54    55   ar
    86     5     6    1
    87    52    49   ar
    88    11    13   ar
    89    11     8   ar
    90    55    53   ar
    91    23    24    1
    92    13    14   ar
    93    25    26    2
    94    25    24    1
    95     6     8   ar
    96     6     7   ar
    97     8    10   ar
    98    44    45    2
    99    44    43    1
   100    49    47   ar
   101    49    51   ar
   102    24    27    1
   103    46    43    1
   104    46    47    1
   105    14    12   ar
   106    27    28    1
   107    53    51   ar
   108    42    43    1
   109     7     9   ar
   110    47    48   ar
   111    10    12   ar
   112    10     9   ar
   113    51    50   ar
   114    29    28    1
   115    28    30    1
   116    48    50   ar
