@<TRIPOS>MOLECULE
tmp/5iysA01.pdb
 221 205 0 0 0
SMALL
GASTEIGER

@<TRIPOS>ATOM
      1  N         20.0410   14.2680   30.8270 N.3    17  ILE17      -0.1245
      2  CA        18.8310   14.7790   30.1720 C.3    17  ILE17       0.1561
      3  C         19.0090   16.1990   29.6170 C.2    17  ILE17       0.2260
      4  O         18.6000   16.4780   28.4850 O.2    17  ILE17      -0.2867
      5  CB        17.5570   14.6150   31.0410 C.3    17  ILE17       0.0252
      6  CG1       16.2950   14.9220   30.2240 C.3    17  ILE17       0.0019
      7  CG2       17.6260   15.5200   32.2880 C.3    17  ILE17       0.0019
      8  CD1       15.0050   14.6600   31.0570 C.3    17  ILE17       0.0001
      9  N         12.4140   17.7270   27.1890 N.3    24  PHE24      -0.1241
     10  CA        11.9470   17.0340   28.3930 C.3    24  PHE24       0.1605
     11  C         12.6170   17.6170   29.6260 C.2    24  PHE24       0.2264
     12  O         12.0270   17.6490   30.6930 O.2    24  PHE24      -0.2867
     13  CB        12.1970   15.5280   28.2580 C.3    24  PHE24       0.0534
     14  CG        11.2110   14.8290   27.3500 C.ar   24  PHE24      -0.0203
     15  CD1        9.8670   15.1570   27.3790 C.ar   24  PHE24      -0.0042
     16  CD2       11.6220   13.8210   26.4920 C.ar   24  PHE24      -0.0042
     17  CE1        8.9530   14.5090   26.5330 C.ar   24  PHE24      -0.0003
     18  CE2       10.7150   13.1450   25.6720 C.ar   24  PHE24      -0.0003
     19  CZ         9.3740   13.4960   25.6900 C.ar   24  PHE24      -0.0000
     20  N         10.0790   18.8700   32.3560 N.3    28  PHE28      -0.1241
     21  CA        10.0740   18.2100   33.6590 C.3    28  PHE28       0.1605
     22  C         10.7480   18.9730   34.7610 C.2    28  PHE28       0.2264
     23  O         10.5640   18.6710   35.9300 O.2    28  PHE28      -0.2867
     24  CB        10.5430   16.7490   33.5750 C.3    28  PHE28       0.0534
     25  CG         9.5220   15.8360   32.9330 C.ar   28  PHE28      -0.0203
     26  CD1        8.3000   15.6280   33.5440 C.ar   28  PHE28      -0.0042
     27  CD2        9.7160   15.3380   31.6510 C.ar   28  PHE28      -0.0042
     28  CE1        7.3250   14.8270   32.9330 C.ar   28  PHE28      -0.0003
     29  CE2        8.7690   14.5040   31.0430 C.ar   28  PHE28      -0.0003
     30  CZ         7.5750   14.2350   31.6890 C.ar   28  PHE28      -0.0000
     31  N         12.6780   11.8760   37.7820 N.3    39  VAL39      -0.1245
     32  CA        12.4800   11.7280   36.3400 C.3    39  VAL39       0.1561
     33  C         13.8230   11.6540   35.6160 C.2    39  VAL39       0.2260
     34  O         13.9580   10.9330   34.6220 O.2    39  VAL39      -0.2867
     35  CB        11.6830   12.9040   35.7610 C.3    39  VAL39       0.0252
     36  CG1       11.5900   12.7800   34.2300 C.3    39  VAL39       0.0019
     37  CG2       10.2020   12.9170   36.3330 C.3    39  VAL39       0.0019
     38  N         15.2590    8.2780   35.6530 N.3    42  VAL42      -0.1231
     39  CA        14.5450    7.3700   34.7480 C.3    42  VAL42       0.1692
     40  C         14.9020    7.6600   33.2980 C.2    42  VAL42       0.2592
     41  O         15.1820    6.7340   32.5420 O.2    42  VAL42      -0.2718
     42  CB        12.9960    7.5600   34.8690 C.3    42  VAL42       0.0266
     43  CG1       12.2840    6.7850   33.7420 C.3    42  VAL42       0.0020
     44  CG2       12.5610    7.0380   36.2220 C.3    42  VAL42       0.0020
     45  N         15.0490    8.9390   32.9670 N.am   43  TYR43      -0.1976
     46  CA        15.5230    9.3440   31.6460 C.3    43  TYR43       0.1639
     47  C         16.8920    8.7280   31.3290 C.2    43  TYR43       0.2290
     48  O         17.1060    8.1720   30.2380 O.2    43  TYR43      -0.2864
     49  CB        15.6560   10.8720   31.5590 C.3    43  TYR43       0.0560
     50  CG        16.0750   11.3190   30.1760 C.ar   43  TYR43      -0.0198
     51  CD1       17.4300   11.3580   29.8180 C.ar   43  TYR43      -0.0009
     52  CD2       15.1210   11.4860   29.1750 C.ar   43  TYR43      -0.0009
     53  CE1       17.7970   11.6100   28.4910 C.ar   43  TYR43       0.0417
     54  CE2       15.4800   11.7580   27.8680 C.ar   43  TYR43       0.0417
     55  CZ        16.8250   11.8120   27.5380 C.ar   43  TYR43       0.1957
     56  OH        17.1970   12.0570   26.2260 O.3    43  TYR43      -0.2866
     57  N         16.6670    5.0910   30.4760 N.3    46  CYS46      -0.1221
     58  CA        16.1280    4.9330   29.1120 C.3    46  CYS46       0.1808
     59  C         17.1510    5.3000   28.0250 C.2    46  CYS46       0.2601
     60  O         17.2680    4.6430   26.9750 O.2    46  CYS46      -0.2717
     61  CB        14.8760    5.7890   28.9450 C.3    46  CYS46       0.0970
     62  SG        13.4770    5.2200   29.9540 S.3    46  CYS46      -0.0800
     63  N         17.7360    6.4790   28.1840 N.am   47  ARG47      -0.1979
     64  CA        18.7190    6.9910   27.2110 C.3    47  ARG47       0.1597
     65  C         19.8740    6.0100   27.0450 C.2    47  ARG47       0.2287
     66  O         20.3180    5.7510   25.9180 O.2    47  ARG47      -0.2864
     67  CB        19.2300    8.3680   27.6690 C.3    47  ARG47       0.0334
     68  CG        20.1270    9.1660   26.7060 C.3    47  ARG47       0.0492
     69  CD        19.8640    8.9800   25.2070 C.3    47  ARG47       0.2205
     70  NE        18.6830    9.6880   24.7160 N.pl3  47  ARG47      -0.0865
     71  CZ        18.1290    9.4990   23.5220 C.cat  47  ARG47       0.5346
     72  NH1       18.6180    8.5950   22.6730 N.pl3  47  ARG47       0.1354
     73  NH2       17.0790   10.2260   23.1720 N.pl3  47  ARG47       0.1354
     74  N         18.7420    2.9090   25.0330 N.3    50  ASP50      -0.1239
     75  CA        18.4520    3.2310   23.6380 C.3    50  ASP50       0.1674
     76  C         19.7040    3.5420   22.8070 C.2    50  ASP50       0.2266
     77  O         19.7590    3.2830   21.5930 O.2    50  ASP50      -0.2867
     78  CB        17.5000    4.4160   23.5670 C.3    50  ASP50       0.1410
     79  CG        17.1750    4.8140   22.1340 C.2    50  ASP50       0.3668
     80  OD1       16.2370    4.2380   21.5280 O.co2  50  ASP50      -0.2456
     81  OD2       17.8550    5.7280   21.6330 O.co2  50  ASP50      -0.2456
     82  N         20.6310    1.8980   19.2180 N.3    54  ASP54      -0.1239
     83  CA        20.4980    2.7710   18.0470 C.3    54  ASP54       0.1674
     84  C         21.8120    3.4230   17.5950 C.2    54  ASP54       0.2266
     85  O         22.0320    3.6310   16.3990 O.2    54  ASP54      -0.2867
     86  CB        19.4430    3.8590   18.2750 C.3    54  ASP54       0.1410
     87  CG        18.0270    3.3070   18.3850 C.2    54  ASP54       0.3668
     88  OD1       17.8270    2.0750   18.2820 O.co2  54  ASP54      -0.2456
     89  OD2       17.1140    4.1230   18.6520 O.co2  54  ASP54      -0.2456
     90  N         10.9860   -1.9420   28.4240 N.3   103  MET103     -0.1245
     91  CA        11.8980   -1.1050   27.6520 C.3   103  MET103      0.1570
     92  C         13.0840   -1.8970   27.0680 C.2   103  MET103      0.2261
     93  O         13.3990   -1.7540   25.8870 O.2   103  MET103     -0.2867
     94  CB        12.3910    0.0680   28.5250 C.3   103  MET103      0.0387
     95  CG        13.5020    0.9680   27.9270 C.3   103  MET103      0.0595
     96  SD        13.0100    1.7110   26.3630 S.3   103  MET103     -0.1393
     97  CE        12.0600    3.1580   26.8700 C.3   103  MET103      0.0692
     98  N         13.9060   -2.4010   23.1340 N.3   107  GLN107     -0.1245
     99  CA        15.1990   -2.0550   22.5390 C.3   107  GLN107      0.1566
    100  C         15.8250   -3.2430   21.8170 C.2   107  GLN107      0.2260
    101  O         16.4810   -3.0670   20.7910 O.2   107  GLN107     -0.2867
    102  CB        16.1750   -1.5090   23.5720 C.3   107  GLN107      0.0367
    103  CG        15.7480   -0.1870   24.1670 C.3   107  GLN107      0.0905
    104  CD        15.7070    0.9100   23.1250 C.2   107  GLN107      0.2608
    105  OE1       16.4840    0.9020   22.1840 O.2   107  GLN107     -0.2717
    106  NE2       14.7050    1.7610   23.2050 N.am  107  GLN107     -0.0878
    107  N          8.6120    0.5190   23.8220 N.3   129  VAL129     -0.1231
    108  CA         9.6670    1.5320   23.9040 C.3   129  VAL129      0.1692
    109  C          9.1950    2.9000   24.3730 C.2   129  VAL129      0.2591
    110  O         10.0000    3.8230   24.4590 O.2   129  VAL129     -0.2718
    111  CB        10.4180    1.7180   22.5810 C.3   129  VAL129      0.0266
    112  CG1       11.0690    0.4190   22.1280 C.3   129  VAL129      0.0020
    113  CG2        9.4890    2.3280   21.5080 C.3   129  VAL129      0.0020
    114  N          7.8950    3.1090   24.5340 N.am  130  ALA130     -0.1980
    115  CA         7.4610    4.4640   24.8300 C.3   130  ALA130      0.1597
    116  C          6.3470    4.4920   25.8510 C.2   130  ALA130      0.2287
    117  O          6.4190    5.2150   26.8490 O.2   130  ALA130     -0.2864
    118  CB         7.1020    5.2310   23.5280 C.3   130  ALA130      0.0319
    119  N          7.7050    3.8530   29.2770 N.3   133  VAL133     -0.1245
    120  CA         8.2450    5.0450   29.9480 C.3   133  VAL133      0.1561
    121  C          7.1650    5.7560   30.7670 C.2   133  VAL133      0.2260
    122  O          7.3690    6.1640   31.9060 O.2   133  VAL133     -0.2867
    123  CB         8.8430    6.0620   28.9470 C.3   133  VAL133      0.0252
    124  CG1        9.4020    7.2780   29.7150 C.3   133  VAL133      0.0019
    125  CG2       10.0260    5.4210   28.1910 C.3   133  VAL133      0.0019
    126  N          7.2640    6.3070   34.9630 N.3   137  LEU137     -0.1245
    127  CA         7.0620    7.6060   35.6150 C.3   137  LEU137      0.1561
    128  C          5.7900    7.7780   36.4420 C.2   137  LEU137      0.2260
    129  O          5.7000    8.6850   37.2840 O.2   137  LEU137     -0.2867
    130  CB         7.1020    8.7220   34.5670 C.3   137  LEU137      0.0270
    131  CG         8.4330    8.8340   33.8090 C.3   137  LEU137      0.0019
    132  CD1        8.3310    9.9260   32.7480 C.3   137  LEU137      0.0001
    133  CD2        9.5620    9.1480   34.7660 C.3   137  LEU137      0.0001
    134  N          5.6450    8.4830   20.6570 N.3   160  GLN160     -0.1245
    135  CA         6.4730    7.6130   19.8200 C.3   160  GLN160      0.1566
    136  C          6.0140    7.7730   18.3580 C.2   160  GLN160      0.2260
    137  O          6.8570    7.8010   17.4730 O.2   160  GLN160     -0.2867
    138  CB         6.3450    6.1500   20.2630 C.3   160  GLN160      0.0367
    139  CG         7.1390    5.1560   19.4380 C.3   160  GLN160      0.0905
    140  CD         8.6090    5.5230   19.3580 C.2   160  GLN160      0.2608
    141  OE1        9.1500    5.7010   18.2680 O.2   160  GLN160     -0.2717
    142  NE2        9.2130    5.7920   20.5050 N.am  160  GLN160     -0.0878
    143  N          7.4700   10.8960   17.0960 N.3   163  ASN163     -0.1240
    144  CA         8.8910   10.6730   16.7900 C.3   163  ASN163      0.1653
    145  C          9.1080    9.9850   15.4350 C.2   163  ASN163      0.2266
    146  O          9.9780   10.3820   14.6280 O.2   163  ASN163     -0.2867
    147  CB         9.5420    9.8990   17.9430 C.3   163  ASN163      0.1155
    148  CG        11.0440    9.7250   17.7590 C.2   163  ASN163      0.2627
    149  OD1       11.4630    8.9090   16.9540 O.2   163  ASN163     -0.2716
    150  ND2       11.8510   10.4730   18.5170 N.am  163  ASN163     -0.0877
    151  N          8.2330   12.4010   12.6370 N.3   166  ARG166     -0.1231
    152  CA         9.2410   13.4530   12.5300 C.3   166  ARG166      0.1694
    153  C         10.4430   12.9540   11.7270 C.2   166  ARG166      0.2592
    154  O         11.1150   13.7430   11.0520 O.2   166  ARG166     -0.2718
    155  CB         9.6420   13.9170   13.9410 C.3   166  ARG166      0.0321
    156  CG        10.6580   15.0630   14.0000 C.3   166  ARG166      0.0489
    157  CD        11.1530   15.2220   15.4450 C.3   166  ARG166      0.2205
    158  NE        12.0210   14.0920   15.7880 N.pl3 166  ARG166     -0.0865
    159  CZ        12.5440   13.8730   16.9890 C.cat 166  ARG166      0.5346
    160  NH1       12.1680   14.6260   18.0120 N.pl3 166  ARG166      0.1354
    161  NH2       13.4220   12.8910   17.1560 N.pl3 166  ARG166      0.1354
    162  N         10.7410   11.6610   11.7920 N.am  167  ASP167     -0.1974
    163  CA        12.0760   11.1870   11.4320 C.3   167  ASP167      0.1709
    164  C         12.0370   10.1970   10.2600 C.2   167  ASP167      0.2293
    165  O         12.9710    9.4110   10.0730 O.2   167  ASP167     -0.2864
    166  CB        12.7670   10.4930   12.6150 C.3   167  ASP167      0.1436
    167  CG        13.1070   11.4380   13.7710 C.2   167  ASP167      0.3671
    168  OD1       13.1480   12.6700   13.5720 O.co2 167  ASP167     -0.2456
    169  OD2       13.3530   10.9290   14.8890 O.co2 167  ASP167     -0.2456
    170  N         15.3320    7.8560    9.3750 N.3   171  ASP171     -0.1239
    171  CA        15.1130    6.4360    9.7140 C.3   171  ASP171      0.1674
    172  C         15.3790    5.5420    8.4960 C.2   171  ASP171      0.2266
    173  O         16.1230    4.5570    8.5750 O.2   171  ASP171     -0.2867
    174  CB        13.6910    6.2080   10.2250 C.3   171  ASP171      0.1410
    175  CG        13.5170    6.6120   11.6890 C.2   171  ASP171      0.3668
    176  OD1       14.5400    6.8000   12.3670 O.co2 171  ASP171     -0.2456
    177  OD2       12.3640    6.7700   12.1450 O.co2 171  ASP171     -0.2456
    178  N         15.5830    1.6510    8.4690 N.3   176  ARG176     -0.1245
    179  CA        14.3720    1.4250    9.2300 C.3   176  ARG176      0.1563
    180  C         13.1400    2.0690    8.6180 C.2   176  ARG176      0.2260
    181  O         13.1200    3.2710    8.3540 O.2   176  ARG176     -0.2867
    182  CB        14.5540    1.8970   10.6710 C.3   176  ARG176      0.0307
    183  CG        15.7030    1.2270   11.4090 C.3   176  ARG176      0.0489
    184  CD        15.5250    1.4550   12.8970 C.3   176  ARG176      0.2205
    185  NE        16.6840    1.0030   13.6570 N.pl3 176  ARG176     -0.0865
    186  CZ        16.8180    1.1330   14.9750 C.cat 176  ARG176      0.5346
    187  NH1       15.8330    1.6380   15.7150 N.pl3 176  ARG176      0.1354
    188  NH2       17.9380    0.7270   15.5580 N.pl3 176  ARG176      0.1354
    189  N          9.3590    2.4900   10.0640 N.3   178  TYR178     -0.1241
    190  CA         8.3170    2.2840   11.0740 C.3   178  TYR178      0.1605
    191  C          6.8890    2.3590   10.5360 C.2   178  TYR178      0.2264
    192  O          5.9480    1.8590   11.1490 O.2   178  TYR178     -0.2867
    193  CB         8.5240    3.2870   12.2230 C.3   178  TYR178      0.0534
    194  CG         9.7870    3.0080   13.0110 C.ar  178  TYR178     -0.0201
    195  CD1        9.7950    2.0690   14.0410 C.ar  178  TYR178     -0.0009
    196  CD2       10.9840    3.6550   12.6970 C.ar  178  TYR178     -0.0009
    197  CE1       10.9370    1.8090   14.7540 C.ar  178  TYR178      0.0417
    198  CE2       12.1380    3.4060   13.4130 C.ar  178  TYR178      0.0417
    199  CZ        12.1010    2.4900   14.4510 C.ar  178  TYR178      0.1957
    200  OH        13.2470    2.2500   15.1810 O.3   178  TYR178     -0.2866
    201  N          6.0940   18.1170   22.8040 N.3   243  TYR243     -0.1241
    202  CA         6.3740   17.0280   21.8790 C.3   243  TYR243      0.1605
    203  C          5.3870   17.0420   20.6960 C.2   243  TYR243      0.2264
    204  O          5.8080   16.9040   19.5470 O.2   243  TYR243     -0.2867
    205  CB         6.4160   15.6700   22.5900 C.3   243  TYR243      0.0534
    206  CG         7.4700   14.7840   21.9870 C.ar  243  TYR243     -0.0201
    207  CD1        8.8170   15.0280   22.2210 C.ar  243  TYR243     -0.0009
    208  CD2        7.1200   13.7850   21.0900 C.ar  243  TYR243     -0.0009
    209  CE1        9.7880   14.2160   21.6850 C.ar  243  TYR243      0.0417
    210  CE2        8.0850   12.9540   20.5270 C.ar  243  TYR243      0.0417
    211  CZ         9.4100   13.1960   20.8180 C.ar  243  TYR243      0.1957
    212  OH        10.3720   12.4180   20.2480 O.3   243  TYR243     -0.2866
    213  N         14.2400   17.7700   13.4540 N.3   261  LYS261     -0.1245
    214  CA        14.5530   17.7830   14.8700 C.3   261  LYS261      0.1561
    215  C         14.9770   19.1800   15.3040 C.2   261  LYS261      0.2260
    216  O         15.5330   19.9440   14.5060 O.2   261  LYS261     -0.2867
    217  CB        15.6840   16.8030   15.1880 C.3   261  LYS261      0.0271
    218  CG        15.3160   15.3370   15.0970 C.3   261  LYS261      0.0035
    219  CD        16.5310   14.4680   15.4360 C.3   261  LYS261      0.0206
    220  CE        16.4570   13.1260   14.7040 C.3   261  LYS261      0.1093
    221  NZ        16.6170   11.9100   15.5810 N.3   261  LYS261     -0.1314
@<TRIPOS>BOND
     1   181   180    2
     2   178   179    1
     3   172   173    2
     4   172   171    1
     5   180   179    1
     6   179   182    1
     7   170   171    1
     8   171   174    1
     9   189   190    1
    10   165   164    2
    11   174   175    1
    12   164   163    1
    13   191   190    1
    14   191   192    2
    15   182   183    1
    16   154   153    2
    17   190   193    1
    18   183   184    1
    19   163   162    1
    20   163   166    1
    21   175   177   ar
    22   175   176   ar
    23   153   162   am
    24   153   152    1
    25   193   194    1
    26   152   151    1
    27   152   155    1
    28   166   167    1
    29   196   194   ar
    30   196   198   ar
    31   184   185    1
    32   194   195   ar
    33   198   199   ar
    34   213   214    1
    35   168   167   ar
    36   185   186    2
    37   167   169   ar
    38   155   156    1
    39   156   157    1
    40   195   197   ar
    41   199   197   ar
    42   199   200    1
    43   216   215    2
    44   146   145    2
    45   220   219    1
    46   220   221    1
    47   214   217    1
    48   214   215    1
    49   186   188    1
    50   186   187    1
    51   218   217    1
    52   218   219    1
    53   145   144    1
    54   157   158    1
    55   158   159    2
    56    85    84    2
    57   144   143    1
    58   144   147    1
    59   149   148    2
    60   159   161    1
    61   159   160    1
    62   137   136    2
    63    84    83    1
    64   148   147    1
    65   148   150   am
    66    83    86    1
    67    83    82    1
    68   141   140    2
    69    86    87    1
    70    88    87   ar
    71   136   135    1
    72    87    89   ar
    73   140   139    1
    74   140   142   am
    75   139   138    1
    76   204   203    2
    77   135   138    1
    78   135   134    1
    79   212   211    1
    80   210   211   ar
    81   210   208   ar
    82   203   202    1
    83   101   100    2
    84   211   209   ar
    85   208   206   ar
    86   113   111    1
    87    80    79   ar
    88    77    76    2
    89    81    79   ar
    90   209   207   ar
    91   100    99    1
    92   202   205    1
    93   202   201    1
    94   206   207   ar
    95   206   205    1
    96   112   111    1
    97    79    78    1
    98   105   104    2
    99    99    98    1
   100    99   102    1
   101   111   108    1
   102    72    71    1
   103    76    75    1
   104   104   106   am
   105   104   103    1
   106    73    71    1
   107    71    70    2
   108   118   115    1
   109    78    75    1
   110   102   103    1
   111    75    74    1
   112   107   108    1
   113   108   109    1
   114   109   110    2
   115   109   114   am
   116   114   115    1
   117    70    69    1
   118   115   116    1
   119    69    68    1
   120    18    19   ar
   121    18    16   ar
   122    19    17   ar
   123   116   117    2
   124    93    92    2
   125    66    65    2
   126    56    55    1
   127    96    97    1
   128    96    95    1
   129    16    14   ar
   130    17    15   ar
   131    68    67    1
   132    60    59    2
   133    65    64    1
   134    92    91    1
   135     9    10    1
   136    64    67    1
   137    64    63    1
   138    14    15   ar
   139    14    13    1
   140    55    54   ar
   141    55    53   ar
   142    91    90    1
   143    91    94    1
   144    54    52   ar
   145    95    94    1
   146    59    63   am
   147    59    58    1
   148   125   123    1
   149    13    10    1
   150    10    11    1
   151     4     3    2
   152    53    51   ar
   153    61    58    1
   154    61    62    1
   155   123   124    1
   156   123   120    1
   157    58    57    1
   158    52    50   ar
   159   119   120    1
   160     3     2    1
   161    11    12    2
   162    51    50   ar
   163   120   121    1
   164     2     1    1
   165     2     5    1
   166    50    49    1
   167     6     5    1
   168     6     8    1
   169    48    47    2
   170   121   122    2
   171     5     7    1
   172    29    27   ar
   173    29    30   ar
   174    47    46    1
   175    49    46    1
   176    46    45    1
   177    27    25   ar
   178    30    28   ar
   179    20    21    1
   180    41    40    2
   181   132   131    1
   182    28    26   ar
   183    25    26   ar
   184    25    24    1
   185    45    40   am
   186    40    39    1
   187    24    21    1
   188    21    22    1
   189    43    42    1
   190   131   130    1
   191   131   133    1
   192    36    35    1
   193   130   127    1
   194    34    33    2
   195    39    42    1
   196    39    38    1
   197    22    23    2
   198    42    44    1
   199   126   127    1
   200   127   128    1
   201    33    32    1
   202    35    37    1
   203    35    32    1
   204    32    31    1
   205   128   129    2
