@<TRIPOS>MOLECULE
tmp/5iysA00.pdb
 211 196 0 0 0
SMALL
GASTEIGER

@<TRIPOS>ATOM
      1  N         20.7850   15.7950   26.3280 N.3    20  ASN20      -0.1225
      2  CA        20.1420   14.9770   25.3160 C.3    20  ASN20       0.1785
      3  C         18.7120   15.3480   24.9430 C.2    20  ASN20       0.2597
      4  O         18.2660   14.9810   23.8570 O.2    20  ASN20      -0.2718
      5  CB        20.1540   13.5010   25.7090 C.3    20  ASN20       0.1169
      6  CG        21.5230   12.8850   25.5830 C.2    20  ASN20       0.2627
      7  OD1       21.9600   12.5890   24.4710 O.2    20  ASN20      -0.2716
      8  ND2       22.2580   12.8150   26.6990 N.am   20  ASN20      -0.0877
      9  N         17.9590   15.9240   25.8760 N.am   21  SER21      -0.1952
     10  CA        16.5650   16.3130   25.5960 C.3    21  SER21       0.1924
     11  C         16.1980   17.6790   26.1650 C.2    21  SER21       0.2314
     12  O         15.6540   17.7780   27.2670 O.2    21  SER21      -0.2863
     13  CB        15.5540   15.2840   26.1060 C.3    21  SER21       0.2116
     14  OG        14.2230   15.7360   25.7860 O.3    21  SER21      -0.2180
     15  N         13.9200   19.6010   25.4140 N.3    23  SER23      -0.1202
     16  CA        12.4620   19.5770   25.6090 C.3    23  SER23       0.2020
     17  C         12.0060   18.9620   26.9290 C.2    23  SER23       0.2618
     18  O         11.2060   19.5440   27.6440 O.2    23  SER23      -0.2717
     19  CB        11.7620   18.8050   24.4910 C.3    23  SER23       0.2103
     20  OG        11.7390   19.5320   23.2670 O.3    23  SER23      -0.2182
     21  N         12.4140   17.7270   27.1890 N.am   24  PHE24      -0.1975
     22  CA        11.9470   17.0340   28.3930 C.3    24  PHE24       0.1639
     23  C         12.6170   17.6170   29.6260 C.2    24  PHE24       0.2290
     24  O         12.0270   17.6490   30.6930 O.2    24  PHE24      -0.2864
     25  CB        12.1970   15.5280   28.2580 C.3    24  PHE24       0.0560
     26  CG        11.2110   14.8290   27.3500 C.ar   24  PHE24      -0.0200
     27  CD1        9.8670   15.1570   27.3790 C.ar   24  PHE24      -0.0042
     28  CD2       11.6220   13.8210   26.4920 C.ar   24  PHE24      -0.0042
     29  CE1        8.9530   14.5090   26.5330 C.ar   24  PHE24      -0.0003
     30  CE2       10.7150   13.1450   25.6720 C.ar   24  PHE24      -0.0003
     31  CZ         9.3740   13.4960   25.6900 C.ar   24  PHE24      -0.0000
     32  N         10.0790   18.8700   32.3560 N.3    28  PHE28      -0.1241
     33  CA        10.0740   18.2100   33.6590 C.3    28  PHE28       0.1605
     34  C         10.7480   18.9730   34.7610 C.2    28  PHE28       0.2264
     35  O         10.5640   18.6710   35.9300 O.2    28  PHE28      -0.2867
     36  CB        10.5430   16.7490   33.5750 C.3    28  PHE28       0.0534
     37  CG         9.5220   15.8360   32.9330 C.ar   28  PHE28      -0.0203
     38  CD1        8.3000   15.6280   33.5440 C.ar   28  PHE28      -0.0042
     39  CD2        9.7160   15.3380   31.6510 C.ar   28  PHE28      -0.0042
     40  CE1        7.3250   14.8270   32.9330 C.ar   28  PHE28      -0.0003
     41  CE2        8.7690   14.5040   31.0430 C.ar   28  PHE28      -0.0003
     42  CZ         7.5750   14.2350   31.6890 C.ar   28  PHE28      -0.0000
     43  N         15.0490    8.9390   32.9670 N.3    43  TYR43      -0.1241
     44  CA        15.5230    9.3440   31.6460 C.3    43  TYR43       0.1605
     45  C         16.8920    8.7280   31.3290 C.2    43  TYR43       0.2264
     46  O         17.1060    8.1720   30.2380 O.2    43  TYR43      -0.2867
     47  CB        15.6560   10.8720   31.5590 C.3    43  TYR43       0.0534
     48  CG        16.0750   11.3190   30.1760 C.ar   43  TYR43      -0.0201
     49  CD1       17.4300   11.3580   29.8180 C.ar   43  TYR43      -0.0009
     50  CD2       15.1210   11.4860   29.1750 C.ar   43  TYR43      -0.0009
     51  CE1       17.7970   11.6100   28.4910 C.ar   43  TYR43       0.0417
     52  CE2       15.4800   11.7580   27.8680 C.ar   43  TYR43       0.0417
     53  CZ        16.8250   11.8120   27.5380 C.ar   43  TYR43       0.1957
     54  OH        17.1970   12.0570   26.2260 O.3    43  TYR43      -0.2866
     55  N         17.7360    6.4790   28.1840 N.3    47  ARG47      -0.1245
     56  CA        18.7190    6.9910   27.2110 C.3    47  ARG47       0.1563
     57  C         19.8740    6.0100   27.0450 C.2    47  ARG47       0.2260
     58  O         20.3180    5.7510   25.9180 O.2    47  ARG47      -0.2867
     59  CB        19.2300    8.3680   27.6690 C.3    47  ARG47       0.0307
     60  CG        20.1270    9.1660   26.7060 C.3    47  ARG47       0.0489
     61  CD        19.8640    8.9800   25.2070 C.3    47  ARG47       0.2205
     62  NE        18.6830    9.6880   24.7160 N.pl3  47  ARG47      -0.0865
     63  CZ        18.1290    9.4990   23.5220 C.cat  47  ARG47       0.5346
     64  NH1       18.6180    8.5950   22.6730 N.pl3  47  ARG47       0.1354
     65  NH2       17.0790   10.2260   23.1720 N.pl3  47  ARG47       0.1354
     66  N          8.6120    0.5190   23.8220 N.3   129  VAL129     -0.1231
     67  CA         9.6670    1.5320   23.9040 C.3   129  VAL129      0.1692
     68  C          9.1950    2.9000   24.3730 C.2   129  VAL129      0.2591
     69  O         10.0000    3.8230   24.4590 O.2   129  VAL129     -0.2718
     70  CB        10.4180    1.7180   22.5810 C.3   129  VAL129      0.0266
     71  CG1       11.0690    0.4190   22.1280 C.3   129  VAL129      0.0020
     72  CG2        9.4890    2.3280   21.5080 C.3   129  VAL129      0.0020
     73  N          7.8950    3.1090   24.5340 N.am  130  ALA130     -0.1980
     74  CA         7.4610    4.4640   24.8300 C.3   130  ALA130      0.1597
     75  C          6.3470    4.4920   25.8510 C.2   130  ALA130      0.2287
     76  O          6.4190    5.2150   26.8490 O.2   130  ALA130     -0.2864
     77  CB         7.1020    5.2310   23.5280 C.3   130  ALA130      0.0319
     78  N          7.7050    3.8530   29.2770 N.3   133  VAL133     -0.1231
     79  CA         8.2450    5.0450   29.9480 C.3   133  VAL133      0.1692
     80  C          7.1650    5.7560   30.7670 C.2   133  VAL133      0.2592
     81  O          7.3690    6.1640   31.9060 O.2   133  VAL133     -0.2718
     82  CB         8.8430    6.0620   28.9470 C.3   133  VAL133      0.0266
     83  CG1        9.4020    7.2780   29.7150 C.3   133  VAL133      0.0020
     84  CG2       10.0260    5.4210   28.1910 C.3   133  VAL133      0.0020
     85  N          5.9820    5.8810   30.2050 N.am  134  GLY134     -0.1957
     86  CA         4.8550    6.4110   30.9840 C.3   134  GLY134      0.1869
     87  C          4.6370    5.6250   32.2630 C.2   134  GLY134      0.2309
     88  O          4.4400    6.1940   33.3460 O.2   134  GLY134     -0.2863
     89  N          7.2640    6.3070   34.9630 N.3   137  LEU137     -0.1231
     90  CA         7.0620    7.6060   35.6150 C.3   137  LEU137      0.1693
     91  C          5.7900    7.7780   36.4420 C.2   137  LEU137      0.2591
     92  O          5.7000    8.6850   37.2840 O.2   137  LEU137     -0.2718
     93  CB         7.1020    8.7220   34.5670 C.3   137  LEU137      0.0284
     94  CG         8.4330    8.8340   33.8090 C.3   137  LEU137      0.0019
     95  CD1        8.3310    9.9260   32.7480 C.3   137  LEU137      0.0001
     96  CD2        9.5620    9.1480   34.7660 C.3   137  LEU137      0.0001
     97  N          4.7790    6.9610   36.1820 N.am  138  LEU138     -0.1980
     98  CA         3.4820    7.1940   36.8120 C.3   138  LEU138      0.1596
     99  C          3.5520    7.3240   38.3350 C.2   138  LEU138      0.2287
    100  O          2.8360    8.1350   38.9220 O.2   138  LEU138     -0.2864
    101  CB         2.5150    6.0670   36.4560 C.3   138  LEU138      0.0297
    102  CG         1.5270    6.3060   35.3050 C.3   138  LEU138      0.0022
    103  CD1        0.4680    5.1610   35.1640 C.3   138  LEU138      0.0001
    104  CD2        0.8310    7.6520   35.4880 C.3   138  LEU138      0.0001
    105  N          3.8380   10.6970   39.6930 N.3   141  LEU141     -0.1245
    106  CA         2.8970   11.6930   39.1840 C.3   141  LEU141      0.1561
    107  C          1.4880   11.5800   39.7480 C.2   141  LEU141      0.2260
    108  O          0.6610   12.4510   39.5240 O.2   141  LEU141     -0.2867
    109  CB         2.8510   11.6020   37.6480 C.3   141  LEU141      0.0270
    110  CG         4.1790   11.7420   36.8890 C.3   141  LEU141      0.0019
    111  CD1        3.9300   11.5130   35.4010 C.3   141  LEU141      0.0001
    112  CD2        4.7190   13.1530   37.1310 C.3   141  LEU141      0.0001
    113  N         -1.9000    6.7680   30.3490 N.3   152  ALA152     -0.1245
    114  CA        -0.4650    6.9680   30.3910 C.3   152  ALA152      0.1562
    115  C          0.1630    6.2820   29.1990 C.2   152  ALA152      0.2260
    116  O          1.0210    6.8440   28.5200 O.2   152  ALA152     -0.2867
    117  CB         0.1000    6.4190   31.6700 C.3   152  ALA152      0.0290
    118  N         -0.2560    8.2770   26.0470 N.3   155  LEU155     -0.1231
    119  CA         0.5800    9.4680   25.8330 C.3   155  LEU155      0.1693
    120  C          1.9560    9.0210   25.2970 C.2   155  LEU155      0.2592
    121  O          2.5700    9.6630   24.4360 O.2   155  LEU155     -0.2718
    122  CB         0.8070   10.2390   27.1470 C.3   155  LEU155      0.0284
    123  CG         1.7120   11.4830   27.0490 C.3   155  LEU155      0.0019
    124  CD1        1.3760   12.4020   25.8800 C.3   155  LEU155      0.0001
    125  CD2        1.6980   12.2670   28.3620 C.3   155  LEU155      0.0001
    126  N          2.4680    7.9310   25.8460 N.am  156  GLY156     -0.1957
    127  CA         3.7480    7.3740   25.3560 C.3   156  GLY156      0.1869
    128  C          3.6400    6.9310   23.9040 C.2   156  GLY156      0.2309
    129  O          4.5120    7.2010   23.0780 O.2   156  GLY156     -0.2863
    130  N          3.5040   10.0820   21.6470 N.3   159  MET159     -0.1230
    131  CA         4.8500   10.6300   21.4790 C.3   159  MET159      0.1702
    132  C          5.7270    9.8010   20.5380 C.2   159  MET159      0.2592
    133  O          6.5130   10.3500   19.7430 O.2   159  MET159     -0.2718
    134  CB         5.5040   10.7770   22.8570 C.3   159  MET159      0.0401
    135  CG         5.0120   12.0100   23.6190 C.3   159  MET159      0.0596
    136  SD         5.7540   12.0370   25.2960 S.3   159  MET159     -0.1393
    137  CE         5.0460   13.5760   25.8680 C.3   159  MET159      0.0692
    138  N          5.6450    8.4830   20.6570 N.am  160  GLN160     -0.1979
    139  CA         6.4730    7.6130   19.8200 C.3   160  GLN160      0.1601
    140  C          6.0140    7.7730   18.3580 C.2   160  GLN160      0.2287
    141  O          6.8570    7.8010   17.4730 O.2   160  GLN160     -0.2864
    142  CB         6.3450    6.1500   20.2630 C.3   160  GLN160      0.0394
    143  CG         7.1390    5.1560   19.4380 C.3   160  GLN160      0.0908
    144  CD         8.6090    5.5230   19.3580 C.2   160  GLN160      0.2608
    145  OE1        9.1500    5.7010   18.2680 O.2   160  GLN160     -0.2717
    146  NE2        9.2130    5.7920   20.5050 N.am  160  GLN160     -0.0878
    147  N          7.4700   10.8960   17.0960 N.3   163  ASN163     -0.1240
    148  CA         8.8910   10.6730   16.7900 C.3   163  ASN163      0.1653
    149  C          9.1080    9.9850   15.4350 C.2   163  ASN163      0.2266
    150  O          9.9780   10.3820   14.6280 O.2   163  ASN163     -0.2867
    151  CB         9.5420    9.8990   17.9430 C.3   163  ASN163      0.1155
    152  CG        11.0440    9.7250   17.7590 C.2   163  ASN163      0.2627
    153  OD1       11.4630    8.9090   16.9540 O.2   163  ASN163     -0.2716
    154  ND2       11.8510   10.4730   18.5170 N.am  163  ASN163     -0.0877
    155  N          8.2330   12.4010   12.6370 N.3   166  ARG166     -0.1245
    156  CA         9.2410   13.4530   12.5300 C.3   166  ARG166      0.1563
    157  C         10.4430   12.9540   11.7270 C.2   166  ARG166      0.2260
    158  O         11.1150   13.7430   11.0520 O.2   166  ARG166     -0.2867
    159  CB         9.6420   13.9170   13.9410 C.3   166  ARG166      0.0307
    160  CG        10.6580   15.0630   14.0000 C.3   166  ARG166      0.0489
    161  CD        11.1530   15.2220   15.4450 C.3   166  ARG166      0.2205
    162  NE        12.0210   14.0920   15.7880 N.pl3 166  ARG166     -0.0865
    163  CZ        12.5440   13.8730   16.9890 C.cat 166  ARG166      0.5346
    164  NH1       12.1680   14.6260   18.0120 N.pl3 166  ARG166      0.1354
    165  NH2       13.4220   12.8910   17.1560 N.pl3 166  ARG166      0.1354
    166  N         -6.2620   11.6820   31.9890 N.3   224  MET224     -0.1245
    167  CA        -5.6400   11.4110   33.2890 C.3   224  MET224      0.1570
    168  C         -5.4590   12.6420   34.1660 C.2   224  MET224      0.2261
    169  O         -5.2140   12.5030   35.3570 O.2   224  MET224     -0.2867
    170  CB        -4.3040   10.6870   33.1270 C.3   224  MET224      0.0387
    171  CG        -3.2270   11.5290   32.5230 C.3   224  MET224      0.0595
    172  SD        -1.7470   10.5020   32.2400 S.3   224  MET224     -0.1393
    173  CE        -1.3440   11.1080   30.6130 C.3   224  MET224      0.0692
    174  N          3.8740   17.7480   33.2050 N.3   236  LEU236     -0.1245
    175  CA         3.4950   16.6660   32.3200 C.3   236  LEU236      0.1561
    176  C          2.7920   17.1830   31.0650 C.2   236  LEU236      0.2260
    177  O          3.0330   16.7210   29.9580 O.2   236  LEU236     -0.2867
    178  CB         2.5680   15.7010   33.0760 C.3   236  LEU236      0.0270
    179  CG         1.9520   14.6000   32.2140 C.3   236  LEU236      0.0019
    180  CD1        2.9660   13.6480   31.6570 C.3   236  LEU236      0.0001
    181  CD2        0.8670   13.8520   33.0250 C.3   236  LEU236      0.0001
    182  N          6.0940   18.1170   22.8040 N.3   243  TYR243     -0.1241
    183  CA         6.3740   17.0280   21.8790 C.3   243  TYR243      0.1605
    184  C          5.3870   17.0420   20.6960 C.2   243  TYR243      0.2264
    185  O          5.8080   16.9040   19.5470 O.2   243  TYR243     -0.2867
    186  CB         6.4160   15.6700   22.5900 C.3   243  TYR243      0.0534
    187  CG         7.4700   14.7840   21.9870 C.ar  243  TYR243     -0.0201
    188  CD1        8.8170   15.0280   22.2210 C.ar  243  TYR243     -0.0009
    189  CD2        7.1200   13.7850   21.0900 C.ar  243  TYR243     -0.0009
    190  CE1        9.7880   14.2160   21.6850 C.ar  243  TYR243      0.0417
    191  CE2        8.0850   12.9540   20.5270 C.ar  243  TYR243      0.0417
    192  CZ         9.4100   13.1960   20.8180 C.ar  243  TYR243      0.1957
    193  OH        10.3720   12.4180   20.2480 O.3   243  TYR243     -0.2866
    194  N          5.7880   19.1850   17.4080 N.3   246  GLN246     -0.1245
    195  CA         6.5920   18.7590   16.2680 C.3   246  GLN246      0.1566
    196  C          5.8030   18.2860   15.0560 C.2   246  GLN246      0.2260
    197  O          6.3220   18.3220   13.9330 O.2   246  GLN246     -0.2867
    198  CB         7.6170   17.6950   16.6620 C.3   246  GLN246      0.0367
    199  CG         8.4670   18.1670   17.8420 C.3   246  GLN246      0.0905
    200  CD         9.3660   17.0750   18.3540 C.2   246  GLN246      0.2608
    201  OE1       10.5540   17.0320   18.0270 O.2   246  GLN246     -0.2717
    202  NE2        8.7670   16.0920   19.0100 N.am  246  GLN246     -0.0878
    203  N         14.2400   17.7700   13.4540 N.3   261  LYS261     -0.1245
    204  CA        14.5530   17.7830   14.8700 C.3   261  LYS261      0.1561
    205  C         14.9770   19.1800   15.3040 C.2   261  LYS261      0.2260
    206  O         15.5330   19.9440   14.5060 O.2   261  LYS261     -0.2867
    207  CB        15.6840   16.8030   15.1880 C.3   261  LYS261      0.0271
    208  CG        15.3160   15.3370   15.0970 C.3   261  LYS261      0.0035
    209  CD        16.5310   14.4680   15.4360 C.3   261  LYS261      0.0206
    210  CE        16.4570   13.1260   14.7040 C.3   261  LYS261      0.1093
    211  NZ        16.6170   11.9100   15.5810 N.3   261  LYS261     -0.1314
@<TRIPOS>BOND
     1   158   157    2
     2   157   156    1
     3   156   155    1
     4   156   159    1
     5   203   204    1
     6   197   196    2
     7   159   160    1
     8   160   161    1
     9   206   205    2
    10   150   149    2
    11   210   209    1
    12   210   211    1
    13   204   207    1
    14   204   205    1
    15   196   195    1
    16   208   207    1
    17   208   209    1
    18   149   148    1
    19   161   162    1
    20   162   163    2
    21   195   198    1
    22   195   194    1
    23   198   199    1
    24   148   147    1
    25   148   151    1
    26   153   152    2
    27   163   165    1
    28   163   164    1
    29   141   140    2
    30   152   151    1
    31   152   154   am
    32   199   200    1
    33   201   200    2
    34   145   144    2
    35   200   202   am
    36   140   139    1
    37   144   143    1
    38   144   146   am
    39   143   142    1
    40   185   184    2
    41   133   132    2
    42   139   142    1
    43   139   138    1
    44   193   192    1
    45   191   192   ar
    46   191   189   ar
    47   132   138   am
    48   132   131    1
    49   184   183    1
    50   192   190   ar
    51   189   187   ar
    52   131   130    1
    53   131   134    1
    54    72    70    1
    55   190   188   ar
    56   183   186    1
    57   183   182    1
    58   187   188   ar
    59   187   186    1
    60    71    70    1
    61    70    67    1
    62    64    63    1
    63   134   135    1
    64   129   128    2
    65    65    63    1
    66    20    19    1
    67    63    62    2
    68    77    74    1
    69   135   136    1
    70    66    67    1
    71     4     3    2
    72    67    68    1
    73   128   127    1
    74    68    69    2
    75    68    73   am
    76   121   120    2
    77     7     6    2
    78    19    16    1
    79    73    74    1
    80    62    61    1
    81    74    75    1
    82     3     2    1
    83     3     9   am
    84    61    60    1
    85   136   137    1
    86   120   119    1
    87   120   126   am
    88     2     5    1
    89     2     1    1
    90   127   126    1
    91    15    16    1
    92     6     5    1
    93     6     8   am
    94    10     9    1
    95    10    13    1
    96    10    11    1
    97    16    17    1
    98    30    31   ar
    99    30    28   ar
   100    31    29   ar
   101    14    13    1
   102   119   118    1
   103   119   122    1
   104    75    76    2
   105   124   123    1
   106    58    57    2
   107    11    12    2
   108    54    53    1
   109    28    26   ar
   110    29    27   ar
   111    60    59    1
   112    17    21   am
   113    17    18    2
   114    57    56    1
   115   123   122    1
   116   123   125    1
   117    21    22    1
   118    56    59    1
   119    56    55    1
   120    26    27   ar
   121    26    25    1
   122    53    52   ar
   123    53    51   ar
   124    52    50   ar
   125    84    82    1
   126    25    22    1
   127    22    23    1
   128    51    49   ar
   129   116   115    2
   130    82    83    1
   131    82    79    1
   132    50    48   ar
   133   115   114    1
   134    78    79    1
   135    23    24    2
   136    49    48   ar
   137    79    80    1
   138   177   176    2
   139    48    47    1
   140    85    80   am
   141    85    86    1
   142    46    45    2
   143   113   114    1
   144   114   117    1
   145   173   172    1
   146    80    81    2
   147    86    87    1
   148    41    39   ar
   149    41    42   ar
   150   176   175    1
   151    45    44    1
   152    47    44    1
   153    44    43    1
   154    39    37   ar
   155   180   179    1
   156    42    40   ar
   157   166   167    1
   158   179   181    1
   159   179   178    1
   160   172   171    1
   161    87    88    2
   162   175   178    1
   163   175   174    1
   164    32    33    1
   165   171   170    1
   166    95    94    1
   167    37    38   ar
   168    37    36    1
   169    40    38   ar
   170   170   167    1
   171   167   168    1
   172    36    33    1
   173    33    34    1
   174    94    93    1
   175    94    96    1
   176   168   169    2
   177    93    90    1
   178    34    35    2
   179    89    90    1
   180   103   102    1
   181   102   104    1
   182   102   101    1
   183   111   110    1
   184    90    91    1
   185    97    91   am
   186    97    98    1
   187    91    92    2
   188   101    98    1
   189    98    99    1
   190   110   112    1
   191   110   109    1
   192   109   106    1
   193    99   100    2
   194   106   105    1
   195   106   107    1
   196   108   107    2
