@<TRIPOS>MOLECULE
tmp/5iytB00.pdb
 109 108 0 0 0
SMALL
GASTEIGER

@<TRIPOS>ATOM
      1  N          2.8730    2.9480   -5.8110 N.3    26  GLU26      -0.1231
      2  CA         4.2450    2.6750   -6.1820 C.3    26  GLU26       0.1699
      3  C          4.3990    1.1640   -6.2330 C.2    26  GLU26       0.2592
      4  O          3.9930    0.4720   -5.3040 O.2    26  GLU26      -0.2718
      5  CB         5.1920    3.2630   -5.1490 C.3    26  GLU26       0.0402
      6  CG         6.6480    3.2210   -5.5750 C.3    26  GLU26       0.1161
      7  CD         7.5900    3.7230   -4.4970 C.2    26  GLU26       0.3649
      8  OE1        7.1210    4.0820   -3.3890 O.co2  26  GLU26      -0.2457
      9  OE2        8.8140    3.7340   -4.7540 O.co2  26  GLU26      -0.2457
     10  N          4.9880    0.6690   -7.3150 N.am   27  PHE27      -0.1976
     11  CA         5.0240   -0.7680   -7.6020 C.3    27  PHE27       0.1639
     12  C          6.3840   -1.2070   -8.0910 C.2    27  PHE27       0.2290
     13  O          7.0850   -0.4630   -8.7710 O.2    27  PHE27      -0.2864
     14  CB         3.9970   -1.1130   -8.6900 C.3    27  PHE27       0.0560
     15  CG         2.6020   -0.7080   -8.3370 C.ar   27  PHE27      -0.0200
     16  CD1        1.7860   -1.5640   -7.6080 C.ar   27  PHE27      -0.0042
     17  CD2        2.1170    0.5470   -8.6880 C.ar   27  PHE27      -0.0042
     18  CE1        0.5020   -1.1870   -7.2630 C.ar   27  PHE27      -0.0003
     19  CE2        0.8300    0.9310   -8.3360 C.ar   27  PHE27      -0.0003
     20  CZ         0.0270    0.0670   -7.6180 C.ar   27  PHE27      -0.0000
     21  N         -4.3320   -3.5610  -10.5310 N.3    42  HIS42      -0.1241
     22  CA        -4.7260   -2.4050   -9.7080 C.3    42  HIS42       0.1621
     23  C         -3.7700   -1.1970   -9.7840 C.2    42  HIS42       0.2264
     24  O         -4.1410   -0.1040   -9.3550 O.2    42  HIS42      -0.2867
     25  CB        -5.0540   -2.8010   -8.2550 C.3    42  HIS42       0.0745
     26  CG        -3.8770   -3.2330   -7.4370 C.ar   42  HIS42       0.0817
     27  ND1       -3.5800   -4.5590   -7.2100 N.ar   42  HIS42      -0.2268
     28  CD2       -2.9590   -2.5180   -6.7420 C.ar   42  HIS42       0.1154
     29  CE1       -2.5130   -4.6450   -6.4370 C.ar   42  HIS42       0.1986
     30  NE2       -2.1170   -3.4210   -6.1360 N.ar   42  HIS42      -0.2212
     31  N          2.5370  -10.9680    5.4440 N.3   144  THR144     -0.1203
     32  CA         2.3220  -10.0560    4.3270 C.3   144  THR144      0.1994
     33  C          2.2870   -8.6080    4.8230 C.2   144  THR144      0.2618
     34  O          1.9700   -8.3560    5.9840 O.2   144  THR144     -0.2717
     35  CB         1.0170  -10.3810    3.5670 C.3   144  THR144      0.1784
     36  OG1       -0.1150  -10.1900    4.4330 O.3   144  THR144     -0.2211
     37  CG2        1.0270  -11.8020    3.0370 C.3   144  THR144      0.0376
     38  N          2.6420   -7.6740    3.9450 N.am  145  ARG145     -0.1965
     39  CA         2.5570   -6.2420    4.2390 C.3   145  ARG145      0.1729
     40  C          2.1200   -5.4530    3.0130 C.2   145  ARG145      0.2616
     41  O          2.4400   -5.8150    1.8810 O.2   145  ARG145     -0.2715
     42  CB         3.9050   -5.6950    4.7400 C.3   145  ARG145      0.0348
     43  CG         4.3420   -6.2010    6.1090 C.3   145  ARG145      0.0492
     44  CD         3.4140   -5.7290    7.2220 C.3   145  ARG145      0.2205
     45  NE         3.7480   -6.3110    8.5230 N.pl3 145  ARG145     -0.0865
     46  CZ         3.2770   -7.4550    9.0360 C.cat 145  ARG145      0.5346
     47  NH1        2.4130   -8.2280    8.3800 N.pl3 145  ARG145      0.1354
     48  NH2        3.6820   -7.8360   10.2450 N.pl3 145  ARG145      0.1354
     49  N          1.3870   -4.3690    3.2570 N.am  146  ALA146     -0.1963
     50  CA         1.0470   -3.3910    2.2240 C.3   146  ALA146      0.1728
     51  C          2.2970   -2.8390    1.5370 C.2   146  ALA146      0.2617
     52  O          3.3000   -2.5790    2.1920 O.2   146  ALA146     -0.2715
     53  CB         0.2610   -2.2460    2.8450 C.3   146  ALA146      0.0334
     54  N          2.2290   -2.6860    0.2160 N.am  147  GLY147     -0.1940
     55  CA         3.3090   -2.1160   -0.5910 C.3   147  GLY147      0.2014
     56  C          4.1240   -3.1500   -1.3500 C.2   147  GLY147      0.2639
     57  O          5.1010   -2.8030   -2.0150 O.2   147  GLY147     -0.2714
     58  N          3.7150   -4.4170   -1.2660 N.am  148  GLN148     -0.1963
     59  CA         4.4410   -5.5260   -1.8840 C.3   148  GLN148      0.1733
     60  C          3.8300   -5.9470   -3.2190 C.2   148  GLN148      0.2616
     61  O          4.4070   -6.7670   -3.9320 O.2   148  GLN148     -0.2715
     62  CB         4.4800   -6.7060   -0.9140 C.3   148  GLN148      0.0408
     63  CG         5.2330   -6.3550    0.3640 C.3   148  GLN148      0.0908
     64  CD         5.2240   -7.4430    1.4170 C.2   148  GLN148      0.2608
     65  OE1        4.3160   -8.2660    1.4820 O.2   148  GLN148     -0.2717
     66  NE2        6.2310   -7.4240    2.2800 N.am  148  GLN148     -0.0878
     67  N          2.6750   -5.3770   -3.5640 N.am  149  CYS149     -0.1968
     68  CA         2.0000   -5.7260   -4.8080 C.3   149  CYS149      0.1712
     69  C          2.8920   -5.2970   -5.9980 C.2   149  CYS149      0.2296
     70  O          3.5320   -4.2430   -5.9700 O.2   149  CYS149     -0.2864
     71  CB         0.5630   -5.1510   -4.8330 C.3   149  CYS149      0.0983
     72  SG        -0.5100   -6.1690   -3.8370 S.3   149  CYS149     -0.0798
     73  N          3.0740  -10.6420   -7.4300 N.3   163  HIS163     -0.1226
     74  CA         2.3080  -10.5560   -6.1880 C.3   163  HIS163      0.1752
     75  C          1.1750   -9.5430   -6.3420 C.2   163  HIS163      0.2596
     76  O          1.4170   -8.4010   -6.7290 O.2   163  HIS163     -0.2718
     77  CB         3.2430  -10.1400   -5.0480 C.3   163  HIS163      0.0759
     78  CG         2.6090  -10.1590   -3.6940 C.ar  163  HIS163      0.0818
     79  ND1        2.4000  -11.3210   -2.9870 N.ar  163  HIS163     -0.2268
     80  CD2        2.1460   -9.1550   -2.9110 C.ar  163  HIS163      0.1154
     81  CE1        1.8400  -11.0350   -1.8250 C.ar  163  HIS163      0.1986
     82  NE2        1.6770   -9.7260   -1.7540 N.ar  163  HIS163     -0.2212
     83  N         -0.0530   -9.9800   -6.0650 N.am  164  VAL164     -0.1966
     84  CA        -1.2450   -9.1350   -6.2540 C.3   164  VAL164      0.1727
     85  C         -2.1370   -8.9850   -5.0290 C.2   164  VAL164      0.2617
     86  O         -3.1050   -8.2280   -5.0690 O.2   164  VAL164     -0.2715
     87  CB        -2.1040   -9.6310   -7.4470 C.3   164  VAL164      0.0290
     88  CG1       -1.3210   -9.4950   -8.7400 C.3   164  VAL164      0.0023
     89  CG2       -2.5790  -11.0700   -7.2560 C.3   164  VAL164      0.0023
     90  N         -1.8130   -9.6650   -3.9390 N.am  165  GLY165     -0.1940
     91  CA        -2.7290   -9.7430   -2.8170 C.3   165  GLY165      0.2014
     92  C         -2.1110  -10.4090   -1.6120 C.2   165  GLY165      0.2639
     93  O         -1.3340  -11.3510   -1.7390 O.2   165  GLY165     -0.2714
     94  N         -2.4720   -9.9080   -0.4380 N.am  166  GLY166     -0.1939
     95  CA        -2.0000  -10.4640    0.8160 C.3   166  GLY166      0.2014
     96  C         -3.0110  -10.2040    1.9080 C.2   166  GLY166      0.2639
     97  O         -3.6720   -9.1620    1.9090 O.2   166  GLY166     -0.2714
     98  N         -3.1540  -11.1680    2.8100 N.am  167  ASN167     -0.1958
     99  CA        -3.9270  -10.9830    4.0340 C.3   167  ASN167      0.1819
    100  C         -3.4290  -11.9560    5.0990 C.2   167  ASN167      0.2621
    101  O         -3.3200  -13.1630    4.8460 O.2   167  ASN167     -0.2715
    102  CB        -5.4440  -11.0990    3.7760 C.3   167  ASN167      0.1195
    103  CG        -5.9430  -12.5330    3.7000 C.2   167  ASN167      0.2630
    104  OD1       -6.8730  -12.9100    4.4180 O.2   167  ASN167     -0.2716
    105  ND2       -5.3420  -13.3360    2.8320 N.am  167  ASN167     -0.0877
    106  N         -3.0870  -11.4180    6.2690 N.am  168  GLY168     -0.1954
    107  CA        -2.5230  -12.2110    7.3540 C.3   168  GLY168      0.1869
    108  C         -1.1740  -12.7890    6.9650 C.2   168  GLY168      0.2309
    109  O         -0.2330  -12.0430    6.6730 O.2   168  GLY168     -0.2863
@<TRIPOS>BOND
     1    21    22    1
     2    23    22    1
     3    23    24    2
     4    22    25    1
     5    13    12    2
     6    88    87    1
     7    14    15    1
     8    14    11    1
     9    17    15   ar
    10    17    19   ar
    11    15    16   ar
    12    19    20   ar
    13    25    26    1
    14    12    11    1
    15    20    18   ar
    16    16    18   ar
    17    11    10    1
    18    87    89    1
    19    87    84    1
    20    26    27   ar
    21    26    28   ar
    22    73    74    1
    23    10     3   am
    24    27    29   ar
    25    28    30   ar
    26    76    75    2
    27    29    30   ar
    28    75    74    1
    29    75    83   am
    30    84    83    1
    31    84    85    1
    32     3     2    1
    33     3     4    2
    34    74    77    1
    35     2     1    1
    36     2     5    1
    37    69    70    2
    38    69    68    1
    39     6     5    1
    40     6     7    1
    41    86    85    2
    42    77    78    1
    43    85    90   am
    44    71    68    1
    45    71    72    1
    46    68    67    1
    47     9     7   ar
    48     7     8   ar
    49    90    91    1
    50    61    60    2
    51    78    79   ar
    52    78    80   ar
    53    67    60   am
    54    60    59    1
    55    79    81   ar
    56    80    82   ar
    57    91    92    1
    58    57    56    2
    59    59    58    1
    60    59    62    1
    61    81    82   ar
    62    93    92    2
    63    92    94   am
    64    56    58   am
    65    56    55    1
    66    62    63    1
    67    55    54    1
    68    94    95    1
    69    54    51   am
    70    63    64    1
    71    95    96    1
    72    64    65    2
    73    64    66   am
    74    51    52    2
    75    51    50    1
    76    41    40    2
    77    96    97    2
    78    96    98   am
    79    50    53    1
    80    50    49    1
    81    98    99    1
    82   105   103   am
    83    40    49   am
    84    40    39    1
    85    37    35    1
    86    35    32    1
    87    35    36    1
    88   103   102    1
    89   103   104    2
    90   102    99    1
    91    38    39    1
    92    38    33   am
    93    99   100    1
    94    39    42    1
    95    32    33    1
    96    32    31    1
    97    42    43    1
    98    33    34    2
    99   101   100    2
   100   100   106   am
   101    43    44    1
   102   106   107    1
   103   109   108    2
   104   108   107    1
   105    44    45    1
   106    47    46    1
   107    45    46    2
   108    46    48    1
