@<TRIPOS>MOLECULE
tmp/5iyvA00.pdb
 252 236 0 0 0
SMALL
GASTEIGER

@<TRIPOS>ATOM
      1  N         12.9020   61.4380   -4.7960 N.3   198  TRP198     -0.1241
      2  CA        11.8370   60.4980   -4.5900 C.3   198  TRP198      0.1605
      3  C         11.6920   59.7110   -5.8900 C.2   198  TRP198      0.2264
      4  O         11.0950   60.2020   -6.8540 O.2   198  TRP198     -0.2867
      5  CB        10.5720   61.2580   -4.2130 C.3   198  TRP198      0.0550
      6  CG         9.3850   60.4300   -3.9040 C.ar  198  TRP198      0.0003
      7  CD1        9.3650   59.1880   -3.3510 C.ar  198  TRP198      0.0946
      8  CD2        8.0170   60.8080   -4.0900 C.ar  198  TRP198      0.0152
      9  NE1        8.0640   58.7570   -3.1930 N.ar  198  TRP198     -0.2442
     10  CE2        7.2170   59.7310   -3.6470 C.ar  198  TRP198      0.0810
     11  CE3        7.3880   61.9430   -4.5970 C.ar  198  TRP198      0.0012
     12  CZ2        5.8210   59.7590   -3.7090 C.ar  198  TRP198      0.0191
     13  CZ3        5.9910   61.9640   -4.6650 C.ar  198  TRP198      0.0001
     14  CH2        5.2320   60.8820   -4.2190 C.ar  198  TRP198      0.0015
     15  N         15.4590   64.4450    2.2930 N.3   220  ASN220     -0.1240
     16  CA        14.5970   63.2950    2.0850 C.3   220  ASN220      0.1653
     17  C         15.0900   62.4910    0.9200 C.2   220  ASN220      0.2266
     18  O         15.0930   62.9730   -0.2150 O.2   220  ASN220     -0.2867
     19  CB        13.1600   63.7330    1.7930 C.3   220  ASN220      0.1155
     20  CG        12.2440   62.5520    1.5180 C.2   220  ASN220      0.2627
     21  OD1       12.5360   61.4280    1.9100 O.2   220  ASN220     -0.2716
     22  ND2       11.1530   62.7900    0.8180 N.am  220  ASN220     -0.0877
     23  N         14.0890   58.8850   -0.8220 N.3   222  ASP222     -0.1239
     24  CA        13.0420   57.8860   -0.8230 C.3   222  ASP222      0.1674
     25  C         13.1320   57.0270   -2.0670 C.2   222  ASP222      0.2266
     26  O         12.8720   57.4950   -3.1940 O.2   222  ASP222     -0.2867
     27  CB        11.6980   58.5520   -0.7250 C.3   222  ASP222      0.1410
     28  CG        10.5480   57.5760   -0.4680 C.2   222  ASP222      0.3668
     29  OD1       10.6240   56.4020   -0.9150 O.co2 222  ASP222     -0.2456
     30  OD2        9.5440   58.0160    0.1840 O.co2 222  ASP222     -0.2456
     31  N         11.7920   53.6290   -2.0170 N.3   224  THR224     -0.1218
     32  CA        10.9700   52.4830   -1.6630 C.3   224  THR224      0.1862
     33  C         10.3850   51.8010   -2.8980 C.2   224  THR224      0.2287
     34  O         10.2710   52.4200   -3.9520 O.2   224  THR224     -0.2866
     35  CB         9.8060   52.8940   -0.7410 C.3   224  THR224      0.1770
     36  OG1        9.1040   53.9400   -1.3660 O.3   224  THR224     -0.2211
     37  CG2       10.3060   53.4200    0.5930 C.3   224  THR224      0.0375
     38  N         14.7820   62.3240    6.4910 N.3   244  GLN244     -0.1245
     39  CA        14.0240   61.1310    6.1580 C.3   244  GLN244      0.1566
     40  C         14.7980   60.2380    5.2100 C.2   244  GLN244      0.2260
     41  O         15.2330   60.6940    4.1520 O.2   244  GLN244     -0.2867
     42  CB        12.7250   61.5620    5.5020 C.3   244  GLN244      0.0367
     43  CG        11.8310   60.4160    5.0600 C.3   244  GLN244      0.0905
     44  CD        10.4100   60.8660    4.7920 C.2   244  GLN244      0.2608
     45  OE1        9.6770   61.2750    5.7100 O.2   244  GLN244     -0.2717
     46  NE2       10.0160   60.8150    3.5330 N.am  244  GLN244     -0.0878
     47  N         14.0140   56.6140    3.3460 N.3   246  GLU246     -0.1245
     48  CA        13.0040   55.5870    3.0870 C.3   246  GLU246      0.1567
     49  C         13.5480   54.6230    2.0560 C.2   246  GLU246      0.2260
     50  O         13.8160   55.0120    0.9180 O.2   246  GLU246     -0.2867
     51  CB        11.7320   56.2130    2.5870 C.3   246  GLU246      0.0388
     52  CG        11.1220   57.2090    3.5510 C.3   246  GLU246      0.1160
     53  CD        10.5620   56.5670    4.7870 C.2   246  GLU246      0.3649
     54  OE1       10.3430   55.3460    4.7710 O.co2 246  GLU246     -0.2457
     55  OE2       10.3120   57.2820    5.7720 O.co2 246  GLU246     -0.2457
     56  N         12.3530   51.0240    2.3840 N.3   248  PHE248     -0.1241
     57  CA        11.3790   49.9200    2.4570 C.3   248  PHE248      0.1605
     58  C         11.2380   49.1720    1.1260 C.2   248  PHE248      0.2264
     59  O         11.0950   49.7960    0.0860 O.2   248  PHE248     -0.2867
     60  CB         9.9980   50.4960    2.9460 C.3   248  PHE248      0.0534
     61  CG         8.8210   49.5400    2.8200 C.ar  248  PHE248     -0.0203
     62  CD1        8.6920   48.4250    3.6710 C.ar  248  PHE248     -0.0042
     63  CD2        7.8350   49.7440    1.8650 C.ar  248  PHE248     -0.0042
     64  CE1        7.6210   47.5210    3.5580 C.ar  248  PHE248     -0.0003
     65  CE2        6.7580   48.8380    1.7410 C.ar  248  PHE248     -0.0003
     66  CZ         6.6510   47.7310    2.5940 C.ar  248  PHE248     -0.0000
     67  N         12.9360   60.1970   10.4520 N.3   268  ARG268     -0.1245
     68  CA        12.2870   58.9540   10.0240 C.3   268  ARG268      0.1563
     69  C         13.2480   58.0690    9.2410 C.2   268  ARG268      0.2260
     70  O         13.8420   58.5110    8.2770 O.2   268  ARG268     -0.2867
     71  CB        11.0790   59.2810    9.1540 C.3   268  ARG268      0.0307
     72  CG        10.0030   60.0690    9.8770 C.3   268  ARG268      0.0489
     73  CD         8.7570   60.2760    9.0290 C.3   268  ARG268      0.2205
     74  NE         8.1010   61.5260    9.3940 N.pl3 268  ARG268     -0.0865
     75  CZ         8.5340   62.7560    9.0700 C.cat 268  ARG268      0.5346
     76  NH1        9.6450   62.9440    8.3480 N.pl3 268  ARG268      0.1354
     77  NH2        7.8520   63.8250    9.4750 N.pl3 268  ARG268      0.1354
     78  N         13.3470   54.1140    7.5590 N.3   270  ASP270     -0.1239
     79  CA        12.6960   52.8540    7.2360 C.3   270  ASP270      0.1674
     80  C         13.5290   52.0660    6.2280 C.2   270  ASP270      0.2266
     81  O         13.6610   52.4820    5.0800 O.2   270  ASP270     -0.2867
     82  CB        11.3000   53.1020    6.6940 C.3   270  ASP270      0.1410
     83  CG        10.4120   51.8490    6.7070 C.2   270  ASP270      0.3668
     84  OD1       10.9400   50.7230    6.6430 O.co2 270  ASP270     -0.2456
     85  OD2        9.1630   51.9880    6.7680 O.co2 270  ASP270     -0.2456
     86  N         11.5820   45.2920    5.0280 N.3   273  MET273     -0.1245
     87  CA        11.4840   44.4480    3.8570 C.3   273  MET273      0.1570
     88  C         12.7610   44.5040    3.0230 C.2   273  MET273      0.2261
     89  O         12.7320   44.8440    1.8360 O.2   273  MET273     -0.2867
     90  CB        10.2870   44.8390    2.9910 C.3   273  MET273      0.0387
     91  CG         8.9690   44.2560    3.4210 C.3   273  MET273      0.0595
     92  SD         7.7560   44.4810    2.1020 S.3   273  MET273     -0.1393
     93  CE         8.2300   43.1950    0.9260 C.3   273  MET273      0.0692
     94  N         10.4760   58.0090   14.0400 N.3   291  SER291     -0.1217
     95  CA        10.0650   56.6810   13.5550 C.3   291  SER291      0.1889
     96  C         11.2560   55.8350   13.1000 C.2   291  SER291      0.2288
     97  O         12.0520   56.2800   12.2860 O.2   291  SER291     -0.2866
     98  CB         9.0380   56.8100   12.4070 C.3   291  SER291      0.2089
     99  OG         8.9910   55.6400   11.5860 O.3   291  SER291     -0.2183
    100  N         11.7990   51.9200   11.5270 N.3   293  ASN293     -0.1240
    101  CA        11.1880   50.7070   11.0120 C.3   293  ASN293      0.1653
    102  C         12.2870   49.8850   10.3670 C.2   293  ASN293      0.2266
    103  O         12.9200   50.3410    9.4090 O.2   293  ASN293     -0.2867
    104  CB        10.1460   51.0410    9.9400 C.3   293  ASN293      0.1155
    105  CG         8.8600   51.6300   10.5000 C.2   293  ASN293      0.2627
    106  OD1        8.4180   51.3410   11.6080 O.2   293  ASN293     -0.2716
    107  ND2        8.2480   52.4660    9.7040 N.am  293  ASN293     -0.0877
    108  N         11.5500   46.2430   10.1530 N.3   295  PHE295     -0.1227
    109  CA        10.8630   44.9760   10.1140 C.3   295  PHE295      0.1736
    110  C         11.1440   44.1880    8.8220 C.2   295  PHE295      0.2595
    111  O         11.4780   44.7650    7.8090 O.2   295  PHE295     -0.2718
    112  CB         9.3530   45.1550   10.3820 C.3   295  PHE295      0.0547
    113  CG         8.6070   45.8750    9.3010 C.ar  295  PHE295     -0.0202
    114  CD1        8.1610   45.1940    8.1760 C.ar  295  PHE295     -0.0042
    115  CD2        8.3030   47.2240    9.4310 C.ar  295  PHE295     -0.0042
    116  CE1        7.4430   45.8480    7.1960 C.ar  295  PHE295     -0.0003
    117  CE2        7.5930   47.8890    8.4490 C.ar  295  PHE295     -0.0003
    118  CZ         7.1540   47.2000    7.3410 C.ar  295  PHE295     -0.0000
    119  N         11.0070   42.8610    8.9040 N.am  296  GLU296     -0.1979
    120  CA        11.2620   41.9330    7.7970 C.3   296  GLU296      0.1602
    121  C         12.6830   42.0580    7.2360 C.2   296  GLU296      0.2287
    122  O         12.9230   42.3310    6.0540 O.2   296  GLU296     -0.2864
    123  CB        10.1840   42.0400    6.7220 C.3   296  GLU296      0.0415
    124  CG         8.8350   41.5760    7.2230 C.3   296  GLU296      0.1163
    125  CD         7.6720   42.0170    6.3530 C.2   296  GLU296      0.3649
    126  OE1        6.7170   42.6090    6.8990 O.co2 296  GLU296     -0.2457
    127  OE2        7.6960   41.7610    5.1360 O.co2 296  GLU296     -0.2457
    128  N          7.0660   55.8080   16.8190 N.3   315  GLU315     -0.1245
    129  CA         6.8250   54.5510   16.1080 C.3   315  GLU315      0.1567
    130  C          8.0890   53.6730   16.0810 C.2   315  GLU315      0.2260
    131  O          9.1500   54.0960   15.5990 O.2   315  GLU315     -0.2867
    132  CB         6.4110   54.8620   14.6680 C.3   315  GLU315      0.0388
    133  CG         5.8970   53.6560   13.8900 C.3   315  GLU315      0.1160
    134  CD         5.6010   53.9860   12.4600 C.2   315  GLU315      0.3649
    135  OE1        6.4400   54.6570   11.8300 O.co2 315  GLU315     -0.2457
    136  OE2        4.5350   53.5780   11.9720 O.co2 315  GLU315     -0.2457
    137  N          8.9110   49.7340   14.9170 N.3   317  LYS317     -0.1245
    138  CA         8.4860   48.4430   14.3650 C.3   317  LYS317      0.1561
    139  C          9.6980   47.6890   13.8810 C.2   317  LYS317      0.2260
    140  O         10.3090   48.0780   12.8850 O.2   317  LYS317     -0.2867
    141  CB         7.4680   48.6570   13.2440 C.3   317  LYS317      0.0271
    142  CG         6.2950   49.5020   13.7290 C.3   317  LYS317      0.0035
    143  CD         5.0840   49.4390   12.8270 C.3   317  LYS317      0.0206
    144  CE         5.3340   50.1910   11.5470 C.3   317  LYS317      0.1093
    145  NZ         4.0800   50.2680   10.7710 N.3   317  LYS317     -0.1314
    146  N          9.5520   44.0650   14.0000 N.3   319  PHE319     -0.1227
    147  CA         9.0540   42.7120   13.9080 C.3   319  PHE319      0.1736
    148  C          9.6830   41.9020   12.7610 C.2   319  PHE319      0.2595
    149  O         10.1470   42.4640   11.7960 O.2   319  PHE319     -0.2718
    150  CB         7.5050   42.7050   13.8430 C.3   319  PHE319      0.0547
    151  CG         6.9060   43.2890   12.5740 C.ar  319  PHE319     -0.0202
    152  CD1        6.6300   42.4790   11.4890 C.ar  319  PHE319     -0.0042
    153  CD2        6.5480   44.6470   12.5080 C.ar  319  PHE319     -0.0042
    154  CE1        6.0630   43.0010   10.3440 C.ar  319  PHE319     -0.0003
    155  CE2        5.9770   45.1810   11.3590 C.ar  319  PHE319     -0.0003
    156  CZ         5.7280   44.3510   10.2790 C.ar  319  PHE319     -0.0000
    157  N          9.7030   40.5730   12.8960 N.am  320  ASN320     -0.1974
    158  CA        10.1250   39.6720   11.8270 C.3   320  ASN320      0.1688
    159  C         11.6370   39.7380   11.6350 C.2   320  ASN320      0.2292
    160  O         12.1460   39.8700   10.5110 O.2   320  ASN320     -0.2864
    161  CB         9.3910   40.0310   10.5350 C.3   320  ASN320      0.1181
    162  CG         8.6900   38.8700    9.9370 C.2   320  ASN320      0.2629
    163  OD1        9.2380   38.2060    9.0590 O.2   320  ASN320     -0.2716
    164  ND2        7.4600   38.6110   10.3970 N.am  320  ASN320     -0.0877
    165  N          2.9940   53.5290   18.4010 N.3   339  TYR339     -0.1241
    166  CA         2.9350   52.1850   17.7890 C.3   339  TYR339      0.1605
    167  C          4.2200   51.3980   18.0810 C.2   339  TYR339      0.2264
    168  O          5.3040   51.8670   17.7900 O.2   339  TYR339     -0.2867
    169  CB         2.7480   52.3030   16.2810 C.3   339  TYR339      0.0534
    170  CG         1.6330   53.2420   15.8630 C.ar  339  TYR339     -0.0201
    171  CD1        0.3040   52.9090   16.1080 C.ar  339  TYR339     -0.0009
    172  CD2        1.8970   54.4510   15.1900 C.ar  339  TYR339     -0.0009
    173  CE1       -0.7310   53.7470   15.7200 C.ar  339  TYR339      0.0417
    174  CE2        0.8620   55.2940   14.8010 C.ar  339  TYR339      0.0417
    175  CZ        -0.4430   54.9310   15.0690 C.ar  339  TYR339      0.1957
    176  OH        -1.4880   55.7280   14.7040 O.3   339  TYR339     -0.2866
    177  N          5.5340   47.4470   17.4940 N.3   341  ASP341     -0.1239
    178  CA         5.3980   46.0770   16.9970 C.3   341  ASP341      0.1674
    179  C          6.7880   45.4400   16.9430 C.2   341  ASP341      0.2266
    180  O          7.5660   45.7230   16.0150 O.2   341  ASP341     -0.2867
    181  CB         4.7410   46.0640   15.6120 C.3   341  ASP341      0.1410
    182  CG         4.3260   44.6520   15.1580 C.2   341  ASP341      0.3668
    183  OD1        4.8280   43.6520   15.7150 O.co2 341  ASP341     -0.2456
    184  OD2        3.4800   44.5310   14.2410 O.co2 341  ASP341     -0.2456
    185  N          7.0090   41.9950   17.1530 N.3   343  SER343     -0.1202
    186  CA         6.5880   40.6200   17.0260 C.3   343  SER343      0.2020
    187  C          7.6110   39.7380   16.3170 C.2   343  SER343      0.2618
    188  O          8.4430   40.2240   15.5650 O.2   343  SER343     -0.2717
    189  CB         5.2600   40.5600   16.2670 C.3   343  SER343      0.2103
    190  OG         4.2660   41.3310   16.9180 O.3   343  SER343     -0.2182
    191  N          7.5450   38.4380   16.5860 N.am  344  TYR344     -0.1975
    192  CA         8.3450   37.4340   15.8850 C.3   344  TYR344      0.1639
    193  C          9.8350   37.7540   15.9170 C.2   344  TYR344      0.2290
    194  O         10.4850   37.9110   14.8920 O.2   344  TYR344     -0.2864
    195  CB         7.8360   37.2210   14.4640 C.3   344  TYR344      0.0560
    196  CG         6.3410   37.0610   14.4100 C.ar  344  TYR344     -0.0198
    197  CD1        5.7380   35.8330   14.7060 C.ar  344  TYR344     -0.0009
    198  CD2        5.5170   38.1380   14.0720 C.ar  344  TYR344     -0.0009
    199  CE1        4.3540   35.6830   14.6690 C.ar  344  TYR344      0.0417
    200  CE2        4.1450   37.9970   14.0400 C.ar  344  TYR344      0.0417
    201  CZ         3.5620   36.7700   14.3390 C.ar  344  TYR344      0.1957
    202  OH         2.1830   36.6440   14.2900 O.3   344  TYR344     -0.2866
    203  N         -0.8080   50.8560   19.8580 N.3   363  TYR363     -0.1241
    204  CA        -0.4950   49.4880   19.4500 C.3   363  TYR363      0.1605
    205  C          0.6310   48.9650   20.3220 C.2   363  TYR363      0.2264
    206  O          1.7110   49.5640   20.3620 O.2   363  TYR363     -0.2867
    207  CB        -0.0350   49.4540   17.9860 C.3   363  TYR363      0.0534
    208  CG        -1.0990   49.6990   16.9380 C.ar  363  TYR363     -0.0201
    209  CD1       -2.4240   49.9920   17.2770 C.ar  363  TYR363     -0.0009
    210  CD2       -0.7720   49.6870   15.5920 C.ar  363  TYR363     -0.0009
    211  CE1       -3.3870   50.2080   16.3090 C.ar  363  TYR363      0.0417
    212  CE2       -1.7360   49.9160   14.6200 C.ar  363  TYR363      0.0417
    213  CZ        -3.0460   50.1660   14.9920 C.ar  363  TYR363      0.1957
    214  OH        -4.0440   50.3960   14.0820 O.3   363  TYR363     -0.2866
    215  N          2.2350   45.3660   20.2110 N.3   365  ILE365     -0.1245
    216  CA         2.2320   44.0850   19.5250 C.3   365  ILE365      0.1561
    217  C          3.5490   43.4160   19.8460 C.2   365  ILE365      0.2260
    218  O          4.5990   43.9520   19.5100 O.2   365  ILE365     -0.2867
    219  CB         2.1190   44.2680   17.9970 C.3   365  ILE365      0.0252
    220  CG1        1.2010   45.4600   17.6180 C.3   365  ILE365      0.0019
    221  CG2        1.6580   42.9830   17.3380 C.3   365  ILE365      0.0019
    222  CD1       -0.2310   45.4080   18.1340 C.3   365  ILE365      0.0001
    223  N          3.8450   39.6410   19.5990 N.3   367  ILE367     -0.1245
    224  CA         3.5450   38.2390   19.3150 C.3   367  ILE367      0.1561
    225  C          4.8490   37.4810   19.1590 C.2   367  ILE367      0.2260
    226  O          5.7800   38.0010   18.5990 O.2   367  ILE367     -0.2867
    227  CB         2.7500   38.0360   17.9920 C.3   367  ILE367      0.0252
    228  CG1        1.4650   38.8750   17.9270 C.3   367  ILE367      0.0019
    229  CG2        2.4310   36.5550   17.7440 C.3   367  ILE367      0.0019
    230  CD1        0.2090   38.2380   18.4810 C.3   367  ILE367      0.0001
    231  N         -5.0050   48.4010   20.3910 N.3   387  ARG387     -0.1245
    232  CA        -4.6200   47.1020   19.8580 C.3   387  ARG387      0.1563
    233  C         -3.5270   46.5340   20.7460 C.2   387  ARG387      0.2260
    234  O         -2.4980   47.1700   20.9420 O.2   387  ARG387     -0.2867
    235  CB        -4.1270   47.2690   18.4160 C.3   387  ARG387      0.0307
    236  CG        -4.0630   45.9790   17.6350 C.3   387  ARG387      0.0489
    237  CD        -3.5820   46.1990   16.2140 C.3   387  ARG387      0.2205
    238  NE        -3.5950   44.9580   15.4420 N.pl3 387  ARG387     -0.0865
    239  CZ        -4.6920   44.3550   14.9730 C.cat 387  ARG387      0.5346
    240  NH1       -5.9120   44.8620   15.1880 N.pl3 387  ARG387      0.1354
    241  NH2       -4.5690   43.2220   14.2810 N.pl3 387  ARG387      0.1354
    242  N         -1.5820   42.7770   21.3980 N.3   389  ARG389     -0.1245
    243  CA        -1.3350   41.3830   21.0500 C.3   389  ARG389      0.1563
    244  C         -0.0790   40.9040   21.7830 C.2   389  ARG389      0.2260
    245  O          1.0340   41.3110   21.4580 O.2   389  ARG389     -0.2867
    246  CB        -1.1830   41.2150   19.5350 C.3   389  ARG389      0.0307
    247  CG        -2.2700   41.8720   18.6900 C.3   389  ARG389      0.0489
    248  CD        -2.1650   41.4990   17.2080 C.3   389  ARG389      0.2205
    249  NE        -2.4700   40.0840   16.9830 N.pl3 389  ARG389     -0.0865
    250  CZ        -2.2140   39.4030   15.8640 C.cat 389  ARG389      0.5346
    251  NH1       -1.6610   39.9850   14.8140 N.pl3 389  ARG389      0.1354
    252  NH2       -2.5340   38.1160   15.7900 N.pl3 389  ARG389      0.1354
@<TRIPOS>BOND
     1     4     3    2
     2     3     2    1
     3     1     2    1
     4    13    11   ar
     5    13    14   ar
     6    11     8   ar
     7     2     5    1
     8    14    12   ar
     9     5     6    1
    10     8     6   ar
    11     8    10   ar
    12    34    33    2
    13     6     7   ar
    14    12    10   ar
    15    10     9   ar
    16     7     9   ar
    17    26    25    2
    18    33    32    1
    19    25    24    1
    20    31    32    1
    21    32    35    1
    22    36    35    1
    23    29    28   ar
    24    24    23    1
    25    24    27    1
    26    35    37    1
    27    27    28    1
    28    28    30   ar
    29    18    17    2
    30    59    58    2
    31    22    20   am
    32    50    49    2
    33    17    16    1
    34    93    92    1
    35    58    57    1
    36    20    19    1
    37    20    21    2
    38    65    63   ar
    39    65    66   ar
    40    19    16    1
    41    89    88    2
    42    63    61   ar
    43    49    48    1
    44    16    15    1
    45    92    91    1
    46    56    57    1
    47    57    60    1
    48    51    48    1
    49    51    52    1
    50    66    64   ar
    51    61    60    1
    52    61    62   ar
    53    90    91    1
    54    90    87    1
    55    88    87    1
    56    48    47    1
    57    46    44   am
    58    52    53    1
    59    64    62   ar
    60    87    86    1
    61    41    40    2
    62    54    53   ar
    63    53    55   ar
    64    44    43    1
    65    44    45    2
    66    43    42    1
    67    81    80    2
    68   127   125   ar
    69    40    39    1
    70    42    39    1
    71   122   121    2
    72    39    38    1
    73    80    79    1
    74   125   126   ar
    75   125   124    1
    76    84    83   ar
    77    82    83    1
    78    82    79    1
    79    83    85   ar
    80   123   124    1
    81   123   120    1
    82   116   118   ar
    83   116   114   ar
    84   121   120    1
    85    79    78    1
    86   118   117   ar
    87   120   119    1
    88   111   110    2
    89   114   113   ar
    90    70    69    2
    91    76    75    1
    92   117   115   ar
    93   110   119   am
    94   110   109    1
    95    73    74    1
    96    73    72    1
    97   163   162    2
    98    75    74    2
    99    75    77    1
   100    71    72    1
   101    71    68    1
   102    69    68    1
   103   113   115   ar
   104   113   112    1
   105   103   102    2
   106   107   105   am
   107   162   164   am
   108   162   161    1
   109   104   105    1
   110   104   101    1
   111    68    67    1
   112   109   108    1
   113   109   112    1
   114   156   154   ar
   115   156   155   ar
   116   154   152   ar
   117   102   101    1
   118   105   106    2
   119   160   159    2
   120   161   158    1
   121   145   144    1
   122   101   100    1
   123   155   153   ar
   124   152   151   ar
   125   144   143    1
   126    99    98    1
   127   159   158    1
   128   149   148    2
   129   158   157    1
   130   135   134   ar
   131   136   134   ar
   132    97    96    2
   133    98    95    1
   134   134   133    1
   135   153   151   ar
   136   151   150    1
   137   148   157   am
   138   148   147    1
   139   143   142    1
   140   140   139    2
   141    96    95    1
   142   141   142    1
   143   141   138    1
   144    95    94    1
   145   150   147    1
   146   139   138    1
   147   133   132    1
   148   147   146    1
   149   200   198   ar
   150   200   201   ar
   151   198   196   ar
   152   214   213    1
   153   184   182   ar
   154   241   239    1
   155   202   201    1
   156   201   199   ar
   157   138   137    1
   158   196   195    1
   159   196   197   ar
   160   195   192    1
   161   212   213   ar
   162   212   210   ar
   163   132   129    1
   164   199   197   ar
   165   176   175    1
   166   174   175   ar
   167   174   172   ar
   168   251   250    1
   169   194   193    2
   170   239   240    1
   171   239   238    2
   172   213   211   ar
   173   175   173   ar
   174   182   181    1
   175   182   183   ar
   176   172   170   ar
   177   238   237    1
   178   188   187    2
   179   210   208   ar
   180   131   130    2
   181   181   178    1
   182   173   171   ar
   183   252   250    1
   184   170   171   ar
   185   170   169    1
   186   250   249    2
   187   192   193    1
   188   192   191    1
   189   180   179    2
   190   130   129    1
   191   129   128    1
   192   237   236    1
   193   189   190    1
   194   189   186    1
   195   169   166    1
   196   211   209   ar
   197   187   191   am
   198   187   186    1
   199   208   209   ar
   200   208   207    1
   201   179   178    1
   202   249   248    1
   203   178   177    1
   204   186   185    1
   205   248   247    1
   206   221   219    1
   207   220   219    1
   208   220   222    1
   209   236   235    1
   210   229   227    1
   211   166   167    1
   212   166   165    1
   213   168   167    2
   214   228   227    1
   215   228   230    1
   216   207   204    1
   217   227   224    1
   218   219   216    1
   219   235   232    1
   220   226   225    2
   221   247   246    1
   222   225   224    1
   223   224   223    1
   224   204   203    1
   225   204   205    1
   226   218   217    2
   227   216   217    1
   228   216   215    1
   229   246   243    1
   230   232   231    1
   231   232   233    1
   232   205   206    2
   233   233   234    2
   234   243   242    1
   235   243   244    1
   236   245   244    2
