@<TRIPOS>MOLECULE
tmp/5iyzD01.pdb
 129 126 0 0 0
SMALL
GASTEIGER

@<TRIPOS>ATOM
      1  N         22.6820   -7.6810  -44.8810 N.3    11  GLN11      -0.1245
      2  CA        21.3650   -7.7920  -45.4970 C.3    11  GLN11       0.1566
      3  C         20.2700   -7.3360  -44.5450 C.2    11  GLN11       0.2260
      4  O         19.5560   -6.3730  -44.8130 O.2    11  GLN11      -0.2867
      5  CB        21.1050   -9.2280  -45.9510 C.3    11  GLN11       0.0367
      6  CG        19.6990   -9.4550  -46.4630 C.3    11  GLN11       0.0905
      7  CD        19.5800  -10.7390  -47.2310 C.2    11  GLN11       0.2608
      8  OE1       20.1320  -11.7810  -46.8330 O.2    11  GLN11      -0.2717
      9  NE2       18.8820  -10.6740  -48.3680 N.am   11  GLN11      -0.0878
     10  N         18.0140   -3.9380  -44.7760 N.3    15  GLN15      -0.1245
     11  CA        16.5650   -4.0900  -44.9470 C.3    15  GLN15       0.1566
     12  C         15.7740   -3.3210  -43.8640 C.2    15  GLN15       0.2260
     13  O         14.9220   -2.4950  -44.1970 O.2    15  GLN15      -0.2867
     14  CB        16.1570   -5.5640  -44.9280 C.3    15  GLN15       0.0367
     15  CG        16.7950   -6.4260  -45.9910 C.3    15  GLN15       0.0905
     16  CD        16.1300   -6.3000  -47.3350 C.2    15  GLN15       0.2608
     17  OE1       15.2270   -5.4830  -47.5230 O.2    15  GLN15      -0.2717
     18  NE2       16.5720   -7.1160  -48.2870 N.am   15  GLN15      -0.0878
     19  N         13.6840    0.4720  -44.0600 N.3    19  LYS19      -0.1245
     20  CA        12.3070    0.5930  -43.5930 C.3    19  LYS19       0.1561
     21  C         12.2050    1.6580  -42.5010 C.2    19  LYS19       0.2260
     22  O         11.2710    2.4580  -42.5000 O.2    19  LYS19      -0.2867
     23  CB        11.7880   -0.7500  -43.0770 C.3    19  LYS19       0.0271
     24  CG        11.5850   -1.7650  -44.1700 C.3    19  LYS19       0.0035
     25  CD        10.5540   -1.2520  -45.1860 C.3    19  LYS19       0.0206
     26  CE        10.6870   -1.9480  -46.5320 C.3    19  LYS19       0.1093
     27  NZ        11.4110   -1.1060  -47.5320 N.3    19  LYS19      -0.1314
     28  N         15.7370  -20.5660  -35.4440 N.3   173  PRO173     -0.2102
     29  CA        15.6000  -21.6660  -36.4070 C.3   173  PRO173      0.1504
     30  C         14.3120  -21.5650  -37.2200 C.2   173  PRO173      0.2576
     31  O         14.2820  -22.0120  -38.3610 O.2   173  PRO173     -0.2718
     32  CB        15.5830  -22.9120  -35.5210 C.3   173  PRO173      0.0282
     33  CG        16.3160  -22.5110  -34.2950 C.3   173  PRO173      0.0208
     34  CD        16.0410  -21.0510  -34.0850 C.3   173  PRO173      0.0893
     35  N         13.2680  -20.9750  -36.6450 N.am  174  LYS174     -0.1966
     36  CA        11.9980  -20.8360  -37.3530 C.3   174  LYS174      0.1728
     37  C         12.1130  -19.9270  -38.5700 C.2   174  LYS174      0.2616
     38  O         11.4950  -20.1730  -39.5830 O.2   174  LYS174     -0.2715
     39  CB        10.9190  -20.2900  -36.4260 C.3   174  LYS174      0.0311
     40  CG        10.9460  -20.8800  -35.0380 C.3   174  LYS174      0.0038
     41  CD         9.9920  -20.1420  -34.1130 C.3   174  LYS174      0.0206
     42  CE         8.7060  -20.9200  -33.9250 C.3   174  LYS174      0.1093
     43  NZ         8.3450  -21.0120  -32.4850 N.3   174  LYS174     -0.1314
     44  N         12.9110  -18.8750  -38.4620 N.am  175  VAL175     -0.1963
     45  CA        13.0510  -17.9140  -39.5490 C.3   175  VAL175      0.1727
     46  C         14.1170  -18.3600  -40.5400 C.2   175  VAL175      0.2617
     47  O         13.9450  -18.2290  -41.7540 O.2   175  VAL175     -0.2715
     48  CB        13.3990  -16.5140  -39.0170 C.3   175  VAL175      0.0290
     49  CG1       13.6940  -15.5630  -40.1670 C.3   175  VAL175      0.0023
     50  CG2       12.2610  -15.9870  -38.1720 C.3   175  VAL175      0.0023
     51  N         15.2150  -18.9050  -40.0300 N.am  176  SER176     -0.1936
     52  CA        16.2930  -19.3450  -40.9050 C.3   176  SER176      0.2055
     53  C         16.8640  -20.7000  -40.5050 C.2   176  SER176      0.2643
     54  O         16.9100  -21.0270  -39.3210 O.2   176  SER176     -0.2714
     55  CB        17.4050  -18.3060  -40.9210 C.3   176  SER176      0.2130
     56  OG        18.5980  -18.8730  -41.4240 O.3   176  SER176     -0.2179
     57  N         17.3100  -21.4810  -41.4900 N.am  177  ASP177     -0.1971
     58  CA        17.8740  -22.7980  -41.2010 C.3   177  ASP177      0.1709
     59  C         19.4000  -22.8500  -41.3090 C.2   177  ASP177      0.2293
     60  O         19.9850  -23.9250  -41.1720 O.2   177  ASP177     -0.2864
     61  CB        17.2520  -23.8690  -42.1120 C.3   177  ASP177      0.1436
     62  CG        16.8840  -23.3400  -43.4870 C.2   177  ASP177      0.3671
     63  OD1       17.6620  -22.5540  -44.0690 O.co2 177  ASP177     -0.2456
     64  OD2       15.8050  -23.7190  -43.9890 O.co2 177  ASP177     -0.2456
     65  N          8.3950  -13.9220  -35.6350 N.3   208  TYR208     -0.1241
     66  CA         7.6880  -14.9910  -36.3240 C.3   208  TYR208      0.1605
     67  C          6.4270  -15.3820  -35.5540 C.2   208  TYR208      0.2264
     68  O          5.3680  -15.5810  -36.1530 O.2   208  TYR208     -0.2867
     69  CB         8.5830  -16.2180  -36.5230 C.3   208  TYR208      0.0534
     70  CG         7.8820  -17.3320  -37.2630 C.ar  208  TYR208     -0.0201
     71  CD1        7.8630  -17.3610  -38.6510 C.ar  208  TYR208     -0.0009
     72  CD2        7.2280  -18.3480  -36.5790 C.ar  208  TYR208     -0.0009
     73  CE1        7.2150  -18.3660  -39.3370 C.ar  208  TYR208      0.0417
     74  CE2        6.5760  -19.3700  -37.2630 C.ar  208  TYR208      0.0417
     75  CZ         6.5750  -19.3680  -38.6360 C.ar  208  TYR208      0.1957
     76  OH         5.9280  -20.3740  -39.3100 O.3   208  TYR208     -0.2866
     77  N          2.1180  -17.9630  -43.7080 N.3   219  THR219     -0.1204
     78  CA         3.5120  -17.9990  -44.1420 C.3   219  THR219      0.1979
     79  C          4.1290  -16.6090  -44.0310 C.2   219  THR219      0.2460
     80  O          4.0670  -15.8220  -44.9760 O.2   219  THR219     -0.2732
     81  CB         3.6480  -18.5050  -45.5970 C.3   219  THR219      0.1783
     82  OG1        2.3810  -18.4040  -46.2590 O.3   219  THR219     -0.2211
     83  CG2        4.0930  -19.9600  -45.6170 C.3   219  THR219      0.0376
     84  N          4.7100  -16.2850  -42.8680 N.am  220  PRO220     -0.2717
     85  CA         5.2000  -14.9100  -42.7310 C.3   220  PRO220      0.1536
     86  C          6.4100  -14.6320  -43.6100 C.2   220  PRO220      0.2599
     87  O          7.3200  -15.4610  -43.7020 O.2   220  PRO220     -0.2715
     88  CB         5.5750  -14.8010  -41.2390 C.3   220  PRO220      0.0310
     89  CG         4.8910  -15.9790  -40.5770 C.3   220  PRO220      0.0237
     90  CD         4.8650  -17.0570  -41.6260 C.3   220  PRO220      0.0939
     91  N          6.4090  -13.4640  -44.2460 N.am  221  THR221     -0.1937
     92  CA         7.5340  -13.0290  -45.0700 C.3   221  THR221      0.2028
     93  C          8.4960  -12.2040  -44.2190 C.2   221  THR221      0.2642
     94  O          8.1520  -11.7700  -43.1140 O.2   221  THR221     -0.2714
     95  CB         7.0810  -12.1830  -46.2930 C.3   221  THR221      0.1808
     96  OG1        6.4330  -10.9890  -45.8380 O.3   221  THR221     -0.2208
     97  CG2        6.1290  -12.9680  -47.1840 C.3   221  THR221      0.0379
     98  N          9.7050  -11.9940  -44.7300 N.am  222  TYR222     -0.1959
     99  CA        10.6470  -11.0760  -44.0970 C.3   222  TYR222      0.1771
    100  C         10.0500   -9.6800  -44.0520 C.2   222  TYR222      0.2620
    101  O         10.2960   -8.9150  -43.1090 O.2   222  TYR222     -0.2715
    102  CB        11.9790  -11.0530  -44.8480 C.3   222  TYR222      0.0574
    103  CG        12.9640  -12.1100  -44.4010 C.ar  222  TYR222     -0.0198
    104  CD1       13.3290  -12.2190  -43.0650 C.ar  222  TYR222     -0.0009
    105  CD2       13.5150  -13.0100  -45.3100 C.ar  222  TYR222     -0.0009
    106  CE1       14.2320  -13.1800  -42.6480 C.ar  222  TYR222      0.0417
    107  CE2       14.4180  -13.9770  -44.9040 C.ar  222  TYR222      0.0417
    108  CZ        14.7710  -14.0580  -43.5730 C.ar  222  TYR222      0.1957
    109  OH        15.6660  -15.0160  -43.1550 O.3   222  TYR222     -0.2866
    110  N          9.2760   -9.3490  -45.0860 N.am  223  GLY223     -0.1954
    111  CA         8.5730   -8.0790  -45.1420 C.3   223  GLY223      0.1869
    112  C          7.5950   -7.9320  -43.9860 C.2   223  GLY223      0.2309
    113  O          7.4730   -6.8580  -43.3850 O.2   223  GLY223     -0.2863
    114  N          7.8880   -9.4920  -41.0880 N.3   225  LEU225     -0.1231
    115  CA         8.6830   -9.3300  -39.8620 C.3   225  LEU225      0.1693
    116  C          9.1760   -7.9070  -39.7040 C.2   225  LEU225      0.2592
    117  O          9.1740   -7.3640  -38.6000 O.2   225  LEU225     -0.2718
    118  CB         9.8810  -10.2800  -39.8360 C.3   225  LEU225      0.0284
    119  CG         9.5910  -11.7700  -40.0370 C.3   225  LEU225      0.0019
    120  CD1       10.7980  -12.5760  -39.5830 C.3   225  LEU225      0.0001
    121  CD2        8.3410  -12.1950  -39.2680 C.3   225  LEU225      0.0001
    122  N          9.5980   -7.3050  -40.8100 N.am  226  ASN226     -0.1974
    123  CA        10.2100   -5.9780  -40.7670 C.3   226  ASN226      0.1688
    124  C          9.1880   -4.8840  -40.5050 C.2   226  ASN226      0.2292
    125  O          9.5220   -3.8030  -40.0270 O.2   226  ASN226     -0.2864
    126  CB        10.9590   -5.7070  -42.0660 C.3   226  ASN226      0.1181
    127  CG        12.1530   -6.6060  -42.2260 C.2   226  ASN226      0.2629
    128  OD1       12.5700   -7.2630  -41.2700 O.2   226  ASN226     -0.2716
    129  ND2       12.7370   -6.6190  -43.4160 N.am  226  ASN226     -0.0877
@<TRIPOS>BOND
     1     9     7   am
     2    18    16   am
     3    27    26    1
     4    17    16    2
     5    16    15    1
     6     7     8    2
     7     7     6    1
     8    97    95    1
     9    26    25    1
    10     6     5    1
    11    95    96    1
    12    95    92    1
    13    82    81    1
    14    15    14    1
    15     5     2    1
    16    83    81    1
    17    81    78    1
    18     2     1    1
    19     2     3    1
    20   105   107   ar
    21   105   103   ar
    22    25    24    1
    23   111   110    1
    24   111   112    1
    25   110   100   am
    26    92    91    1
    27    92    93    1
    28    80    79    2
    29    11    14    1
    30    11    10    1
    31    11    12    1
    32   107   108   ar
    33   102   103    1
    34   102    99    1
    35     4     3    2
    36    98    93   am
    37    98    99    1
    38   103   104   ar
    39    91    86   am
    40    93    94    2
    41    13    12    2
    42    24    23    1
    43    78    79    1
    44    78    77    1
    45    99   100    1
    46    63    62   ar
    47    19    20    1
    48   100   101    2
    49    79    84   am
    50    64    62   ar
    51   112   113    2
    52    87    86    2
    53    86    85    1
    54    20    23    1
    55    20    21    1
    56   108   109    1
    57   108   106   ar
    58    62    61    1
    59   129   127   am
    60   104   106   ar
    61    84    85    1
    62    84    90    1
    63    85    88    1
    64    21    22    2
    65   127   126    1
    66   127   128    2
    67    61    58    1
    68   126   123    1
    69    47    46    2
    70    90    89    1
    71    57    58    1
    72    57    53   am
    73    56    55    1
    74    59    58    1
    75    59    60    2
    76    88    89    1
    77   114   115    1
    78    55    52    1
    79    52    53    1
    80    52    51    1
    81   122   123    1
    82   122   116   am
    83   123   124    1
    84    46    51   am
    85    46    45    1
    86    53    54    2
    87   124   125    2
    88    49    48    1
    89   119   118    1
    90   119   120    1
    91   119   121    1
    92   115   118    1
    93   115   116    1
    94   116   117    2
    95    38    37    2
    96    45    48    1
    97    45    44    1
    98    73    71   ar
    99    73    75   ar
   100    76    75    1
   101    48    50    1
   102    71    70   ar
   103    75    74   ar
   104    37    44   am
   105    37    36    1
   106    31    30    2
   107    36    35    1
   108    36    39    1
   109    70    72   ar
   110    70    69    1
   111    74    72   ar
   112    30    35   am
   113    30    29    1
   114    69    66    1
   115    39    40    1
   116    29    32    1
   117    29    28    1
   118    66    65    1
   119    66    67    1
   120    68    67    2
   121    32    33    1
   122    28    34    1
   123    40    41    1
   124    33    34    1
   125    41    42    1
   126    42    43    1
