@<TRIPOS>MOLECULE
tmp/5iz0E00.pdb
 69 64 0 0 0
SMALL
GASTEIGER

@<TRIPOS>ATOM
      1  N        -40.6160   17.4810    7.3600 N.3    68  VAL68      -0.1245
      2  CA       -40.8900   18.3840    6.2320 C.3    68  VAL68       0.1561
      3  C        -41.4190   17.5470    5.0670 C.2    68  VAL68       0.2260
      4  O        -42.3940   17.9080    4.4370 O.2    68  VAL68      -0.2867
      5  CB       -39.6340   19.1660    5.7950 C.3    68  VAL68       0.0252
      6  CG1      -39.8590   19.9050    4.4940 C.3    68  VAL68       0.0019
      7  CG2      -39.2390   20.1590    6.8750 C.3    68  VAL68       0.0019
      8  N        -45.0020   17.9130    3.1110 N.3    72  LYS72      -0.1245
      9  CA       -45.0940   18.0780    1.6400 C.3    72  LYS72       0.1561
     10  C        -45.9390   16.9890    1.0020 C.2    72  LYS72       0.2260
     11  O        -46.5340   17.2030   -0.0550 O.2    72  LYS72      -0.2867
     12  CB       -43.7240   18.0870    0.9610 C.3    72  LYS72       0.0271
     13  CG       -42.8310   19.2570    1.3690 C.3    72  LYS72       0.0035
     14  CD       -41.9090   19.7600    0.2570 C.3    72  LYS72       0.0206
     15  CE       -41.0250   18.6620   -0.3070 C.3    72  LYS72       0.1093
     16  NZ       -39.9190   19.2370   -1.1080 N.3    72  LYS72      -0.1314
     17  N        -51.4230   20.3290    2.2630 N.3    77  PHE77      -0.1227
     18  CA       -50.3930   21.1760    2.8790 C.3    77  PHE77       0.1736
     19  C        -49.6790   22.0830    1.8720 C.2    77  PHE77       0.2595
     20  O        -49.4790   23.2690    2.1360 O.2    77  PHE77      -0.2718
     21  CB       -49.3610   20.3720    3.6780 C.3    77  PHE77       0.0547
     22  CG       -48.3100   21.2230    4.3610 C.ar   77  PHE77      -0.0202
     23  CD1      -48.5860   21.8850    5.5530 C.ar   77  PHE77      -0.0042
     24  CD2      -47.0360   21.3580    3.8190 C.ar   77  PHE77      -0.0042
     25  CE1      -47.6160   22.6730    6.1870 C.ar   77  PHE77      -0.0003
     26  CE2      -46.0720   22.1500    4.4420 C.ar   77  PHE77      -0.0003
     27  CZ       -46.3630   22.8130    5.6240 C.ar   77  PHE77      -0.0000
     28  N        -49.2640   21.5100    0.7440 N.am   78  MET78      -0.1979
     29  CA       -48.5970   22.2970   -0.3260 C.3    78  MET78       0.1605
     30  C        -49.5330   23.2820   -1.0450 C.2    78  MET78       0.2287
     31  O        -49.0760   24.1260   -1.8290 O.2    78  MET78      -0.2864
     32  CB       -47.9690   21.3740   -1.3840 C.3    78  MET78       0.0413
     33  CG       -46.7770   20.5780   -0.8930 C.3    78  MET78       0.0598
     34  SD       -45.5080   21.6810   -0.2430 S.3    78  MET78      -0.1393
     35  CE       -44.4830   21.9150   -1.7010 C.3    78  MET78       0.0692
     36  N        -46.9240   30.0060    1.2530 N.3    82  GLN82      -0.1245
     37  CA       -45.5800   29.8120    1.7960 C.3    82  GLN82       0.1566
     38  C        -45.4450   30.2290    3.2660 C.2    82  GLN82       0.2260
     39  O        -44.8450   29.4920    4.0670 O.2    82  GLN82      -0.2867
     40  CB       -44.5510   30.4400    0.8870 C.3    82  GLN82       0.0367
     41  CG       -44.4600   29.6730   -0.4290 C.3    82  GLN82       0.0905
     42  CD       -43.2970   30.1070   -1.3110 C.2    82  GLN82       0.2608
     43  OE1      -42.7320   31.2030   -1.1590 O.2    82  GLN82      -0.2717
     44  NE2      -42.9370   29.2450   -2.2510 N.am   82  GLN82      -0.0878
     45  N        -47.1050   27.5660    5.4950 N.3    85  GLN85      -0.1231
     46  CA       -46.2670   26.3620    5.5320 C.3    85  GLN85       0.1698
     47  C        -45.1090   26.5640    6.5230 C.2    85  GLN85       0.2592
     48  O        -44.8560   25.7230    7.3810 O.2    85  GLN85      -0.2718
     49  CB       -45.7160   26.0490    4.1360 C.3    85  GLN85       0.0381
     50  CG       -46.7580   25.5820    3.1250 C.3    85  GLN85       0.0905
     51  CD       -46.1920   25.4930    1.7300 C.2    85  GLN85       0.2608
     52  OE1      -45.0220   25.1750    1.5470 O.2    85  GLN85      -0.2717
     53  NE2      -47.0120   25.7750    0.7380 N.am   85  GLN85      -0.0878
     54  N        -44.4250   27.6930    6.4100 N.am   86  ILE86      -0.1980
     55  CA       -43.3340   28.0410    7.3320 C.3    86  ILE86       0.1595
     56  C        -43.7810   28.1400    8.8130 C.2    86  ILE86       0.2287
     57  O        -43.1220   27.5830    9.7060 O.2    86  ILE86      -0.2864
     58  CB       -42.6540   29.3460    6.8280 C.3    86  ILE86       0.0276
     59  CG1      -41.7160   28.9950    5.6740 C.3    86  ILE86       0.0022
     60  CG2      -41.9050   30.0970    7.9130 C.3    86  ILE86       0.0022
     61  CD1      -41.5210   30.1190    4.6970 C.3    86  ILE86       0.0001
     62  N        -44.6050   24.5860   10.1580 N.3    89  LEU89      -0.1245
     63  CA       -43.3580   23.8170   10.3630 C.3    89  LEU89       0.1561
     64  C        -42.4570   24.3630   11.4800 C.2    89  LEU89       0.2260
     65  O        -41.8820   23.5700   12.2690 O.2    89  LEU89      -0.2867
     66  CB       -42.6180   23.5330    9.0420 C.3    89  LEU89       0.0270
     67  CG       -43.3170   22.4200    8.2320 C.3    89  LEU89       0.0019
     68  CD1      -42.9480   22.4540    6.7560 C.3    89  LEU89       0.0001
     69  CD2      -43.0160   21.0400    8.7960 C.3    89  LEU89       0.0001
@<TRIPOS>BOND
     1    44    42   am
     2    31    30    2
     3    35    34    1
     4    32    33    1
     5    32    29    1
     6    42    43    2
     7    42    41    1
     8    16    15    1
     9    30    29    1
    10    33    34    1
    11    41    40    1
    12    29    28    1
    13    15    14    1
    14    11    10    2
    15    14    13    1
    16    53    51   am
    17    28    19   am
    18    40    37    1
    19    12    13    1
    20    12     9    1
    21    10     9    1
    22    36    37    1
    23    52    51    2
    24     9     8    1
    25    51    50    1
    26    37    38    1
    27    19    20    2
    28    19    18    1
    29    17    18    1
    30    18    21    1
    31    50    49    1
    32    38    39    2
    33    21    22    1
    34    24    22   ar
    35    24    26   ar
    36    49    46    1
    37    22    23   ar
    38     4     3    2
    39    26    27   ar
    40     6     5    1
    41    61    59    1
    42     3     2    1
    43    45    46    1
    44    46    47    1
    45    23    25   ar
    46    27    25   ar
    47    59    58    1
    48     5     2    1
    49     5     7    1
    50     2     1    1
    51    54    47   am
    52    54    55    1
    53    47    48    2
    54    68    67    1
    55    58    55    1
    56    58    60    1
    57    55    56    1
    58    67    69    1
    59    67    66    1
    60    56    57    2
    61    66    63    1
    62    62    63    1
    63    63    64    1
    64    64    65    2
