@<TRIPOS>MOLECULE
tmp/5iz0E01.pdb
 216 208 0 0 0
SMALL
GASTEIGER

@<TRIPOS>ATOM
      1  N        -39.0510    7.2160    8.5700 N.3    22  GLN22      -0.1245
      2  CA       -37.5970    7.0990    8.8180 C.3    22  GLN22       0.1566
      3  C        -36.9460    6.0260    9.7120 C.2    22  GLN22       0.2260
      4  O        -35.7590    6.1420    9.9890 O.2    22  GLN22      -0.2867
      5  CB       -37.0820    8.1980    9.7580 C.3    22  GLN22       0.0367
      6  CG       -35.5770    8.3160    9.7880 C.3    22  GLN22       0.0905
      7  CD       -35.0870    9.4200   10.7120 C.2    22  GLN22       0.2608
      8  OE1      -35.8770   10.1620   11.3290 O.2    22  GLN22      -0.2717
      9  NE2      -33.7630    9.5330   10.8160 N.am   22  GLN22      -0.0878
     10  N        -23.7950   18.0400   22.0720 N.3    53  TRP53      -0.1241
     11  CA       -24.7440   18.9900   21.4440 C.3    53  TRP53       0.1605
     12  C        -24.7550   18.9090   19.9370 C.2    53  TRP53       0.2264
     13  O        -25.8050   18.8890   19.2990 O.2    53  TRP53      -0.2867
     14  CB       -24.6170   20.4230   21.9570 C.3    53  TRP53       0.0550
     15  CG       -25.4380   20.6700   23.1640 C.ar   53  TRP53       0.0003
     16  CD1      -25.1030   20.4000   24.4700 C.ar   53  TRP53       0.0946
     17  CD2      -26.7410   21.2360   23.1910 C.ar   53  TRP53       0.0152
     18  NE1      -26.1330   20.7500   25.3030 N.ar   53  TRP53      -0.2442
     19  CE2      -27.1470   21.2860   24.5510 C.ar   53  TRP53       0.0810
     20  CE3      -27.6060   21.7130   22.2060 C.ar   53  TRP53       0.0012
     21  CZ2      -28.3950   21.7910   24.9460 C.ar   53  TRP53       0.0191
     22  CZ3      -28.8410   22.2260   22.5990 C.ar   53  TRP53       0.0001
     23  CH2      -29.2240   22.2630   23.9640 C.ar   53  TRP53       0.0015
     24  N        -26.4370   15.6840   18.7450 N.3    56  CYS56      -0.1221
     25  CA       -27.8740   15.7140   18.8980 C.3    56  CYS56       0.1808
     26  C        -28.5090   16.6650   17.8810 C.2    56  CYS56       0.2601
     27  O        -29.5550   16.3450   17.3500 O.2    56  CYS56      -0.2717
     28  CB       -28.2570   16.1040   20.3310 C.3    56  CYS56       0.0970
     29  SG       -27.9770   14.7620   21.5290 S.3    56  CYS56      -0.0800
     30  N        -27.8560   17.7960   17.6060 N.am   57  ALA57      -0.1979
     31  CA       -28.3820   18.8000   16.6520 C.3    57  ALA57       0.1597
     32  C        -28.4370   18.1510   15.2640 C.2    57  ALA57       0.2287
     33  O        -29.4430   18.3170   14.5330 O.2    57  ALA57      -0.2864
     34  CB       -27.4590   20.0090   16.6020 C.3    57  ALA57       0.0319
     35  N        -28.7500   14.8760   14.5140 N.3    59  HIS59      -0.1226
     36  CA       -29.8480   13.8750   14.5110 C.3    59  HIS59       0.1752
     37  C        -31.2180   14.5010   14.4980 C.2    59  HIS59       0.2595
     38  O        -32.1140   14.0360   13.7970 O.2    59  HIS59      -0.2718
     39  CB       -29.7810   13.0040   15.7420 C.3    59  HIS59       0.0759
     40  CG       -28.4660   12.3480   15.9200 C.ar   59  HIS59       0.0818
     41  ND1      -27.7610   11.8220   14.8630 N.ar   59  HIS59      -0.2268
     42  CD2      -27.7250   12.1240   17.0260 C.ar   59  HIS59       0.1154
     43  CE1      -26.6420   11.2930   15.3160 C.ar   59  HIS59       0.1986
     44  NE2      -26.5970   11.4550   16.6250 N.ar   59  HIS59      -0.2212
     45  N        -31.4050   15.5500   15.2950 N.am   60  LEU60      -0.1980
     46  CA       -32.6920   16.3010   15.3010 C.3    60  LEU60       0.1596
     47  C        -32.9920   16.8950   13.9230 C.2    60  LEU60       0.2287
     48  O        -34.1490   16.7630   13.4240 O.2    60  LEU60      -0.2864
     49  CB       -32.7300   17.4520   16.3280 C.3    60  LEU60       0.0297
     50  CG       -34.0420   18.2570   16.4210 C.3    60  LEU60       0.0022
     51  CD1      -35.2250   17.3520   16.7080 C.3    60  LEU60       0.0001
     52  CD2      -33.9450   19.3710   17.4670 C.3    60  LEU60       0.0001
     53  N        -34.2230   14.1650   11.5480 N.3    63  ALA63      -0.1245
     54  CA       -35.6540   13.8850   11.8800 C.3    63  ALA63       0.1562
     55  C        -36.5640   14.9620   11.3820 C.2    63  ALA63       0.2260
     56  O        -37.6360   14.6650   10.8420 O.2    63  ALA63      -0.2867
     57  CB       -35.8160   13.6870   13.3740 C.3    63  ALA63       0.0290
     58  N        -40.6240   20.1910   15.4530 N.3    94  MET94      -0.1245
     59  CA       -40.0940   19.6340   16.6980 C.3    94  MET94       0.1570
     60  C        -41.1250   18.8490   17.5350 C.2    94  MET94       0.2261
     61  O        -40.8290   17.7640   18.0520 O.2    94  MET94      -0.2867
     62  CB       -39.5980   20.8160   17.5200 C.3    94  MET94       0.0387
     63  CG       -39.0550   20.4910   18.8870 C.3    94  MET94       0.0595
     64  SD       -37.5110   19.5810   18.7930 S.3    94  MET94      -0.1393
     65  CE       -36.8420   20.1600   20.3370 C.3    94  MET94       0.0692
     66  N        -41.4830   15.4620   15.8720 N.3    97  VAL97      -0.1231
     67  CA       -40.3520   14.5980   16.1970 C.3    97  VAL97       0.1692
     68  C        -40.5170   14.0080   17.6160 C.2    97  VAL97       0.2591
     69  O        -40.3280   12.8120   17.8370 O.2    97  VAL97      -0.2718
     70  CB       -39.0340   15.3610   16.0420 C.3    97  VAL97       0.0266
     71  CG1      -37.8980   14.5810   16.6550 C.3    97  VAL97       0.0020
     72  CG2      -38.7550   15.6270   14.5730 C.3    97  VAL97       0.0020
     73  N        -40.8920   14.8580   18.5660 N.am   98  LEU98      -0.1980
     74  CA       -41.0910   14.4130   19.9610 C.3    98  LEU98       0.1596
     75  C        -42.1540   13.3330   20.0620 C.2    98  LEU98       0.2287
     76  O        -42.0040   12.3800   20.8090 O.2    98  LEU98      -0.2864
     77  CB       -41.4230   15.5990   20.8470 C.3    98  LEU98       0.0297
     78  CG       -40.2510   16.5360   21.0800 C.3    98  LEU98       0.0022
     79  CD1      -40.7760   17.9070   21.5160 C.3    98  LEU98       0.0001
     80  CD2      -39.2650   15.9610   22.0910 C.3    98  LEU98       0.0001
     81  N        -40.8020   10.1060   18.5980 N.3   101  MET101     -0.1245
     82  CA       -39.8580    9.5060   19.5510 C.3   101  MET101      0.1570
     83  C        -40.3990    8.3530   20.3640 C.2   101  MET101      0.2261
     84  O        -39.6430    7.4730   20.7470 O.2   101  MET101     -0.2867
     85  CB       -39.1470   10.5740   20.3830 C.3   101  MET101      0.0387
     86  CG       -38.0150   11.2430   19.6090 C.3   101  MET101      0.0595
     87  SD       -37.4210   12.8310   20.2440 S.3   101  MET101     -0.1393
     88  CE       -36.8380   12.3130   21.8650 C.3   101  MET101      0.0692
     89  N        -34.0170    4.8920   25.4720 N.3   112  VAL112     -0.1231
     90  CA       -34.2770    5.4570   24.1580 C.3   112  VAL112      0.1692
     91  C        -33.2190    4.9670   23.1570 C.2   112  VAL112      0.2592
     92  O        -32.0460    4.7630   23.5170 O.2   112  VAL112     -0.2718
     93  CB       -34.3050    6.9910   24.2700 C.3   112  VAL112      0.0266
     94  CG1      -32.9020    7.5800   24.2380 C.3   112  VAL112      0.0020
     95  CG2      -35.1610    7.5770   23.1640 C.3   112  VAL112      0.0020
     96  N        -33.6400    4.8240   21.8950 N.am  113  PHE113     -0.1962
     97  CA       -32.7360    4.5420   20.7800 C.3   113  PHE113      0.1771
     98  C        -31.9070    5.7640   20.3800 C.2   113  PHE113      0.2620
     99  O        -32.4550    6.7880   19.9330 O.2   113  PHE113     -0.2715
    100  CB       -33.5490    4.0530   19.5780 C.3   113  PHE113      0.0574
    101  CG       -32.7110    3.3910   18.5420 C.ar  113  PHE113     -0.0200
    102  CD1      -32.0290    2.2290   18.8410 C.ar  113  PHE113     -0.0042
    103  CD2      -32.5680    3.9360   17.2820 C.ar  113  PHE113     -0.0042
    104  CE1      -31.2210    1.6190   17.9020 C.ar  113  PHE113     -0.0003
    105  CE2      -31.7630    3.3310   16.3350 C.ar  113  PHE113     -0.0003
    106  CZ       -31.0900    2.1730   16.6510 C.ar  113  PHE113     -0.0000
    107  N        -30.5840    5.6550   20.5720 N.am  114  PHE114     -0.1960
    108  CA       -29.6710    6.7600   20.2740 C.3   114  PHE114      0.1771
    109  C        -28.3450    6.2450   19.7110 C.2   114  PHE114      0.2619
    110  O        -27.6800    5.4580   20.3720 O.2   114  PHE114     -0.2715
    111  CB       -29.4590    7.5690   21.5490 C.3   114  PHE114      0.0574
    112  CG       -28.4850    8.6990   21.4130 C.ar  114  PHE114     -0.0200
    113  CD1      -28.8850    9.9220   20.8920 C.ar  114  PHE114     -0.0042
    114  CD2      -27.1950    8.5680   21.8530 C.ar  114  PHE114     -0.0042
    115  CE1      -27.9870   10.9950   20.7910 C.ar  114  PHE114     -0.0003
    116  CE2      -26.2860    9.6210   21.7440 C.ar  114  PHE114     -0.0003
    117  CZ       -26.6780   10.8370   21.2140 C.ar  114  PHE114     -0.0000
    118  N        -27.9910    6.7030   18.5130 N.am  115  GLU115     -0.1977
    119  CA       -26.7240    6.2780   17.8540 C.3   115  GLU115      0.1602
    120  C        -26.5570    4.7460   17.8240 C.2   115  GLU115      0.2287
    121  O        -25.5010    4.1740   18.1080 O.2   115  GLU115     -0.2864
    122  CB       -25.5510    6.9890   18.5220 C.3   115  GLU115      0.0415
    123  CG       -25.8280    8.4810   18.5990 C.3   115  GLU115      0.1163
    124  CD       -24.6220    9.3460   18.8170 C.2   115  GLU115      0.3649
    125  OE1      -23.6390    8.9150   19.4520 O.co2 115  GLU115     -0.2457
    126  OE2      -24.6600   10.4870   18.3260 O.co2 115  GLU115     -0.2457
    127  N        -27.0750   10.8880   28.6730 N.3   124  PHE124     -0.1241
    128  CA       -27.0780   12.2650   28.1650 C.3   124  PHE124      0.1605
    129  C        -26.5330   13.3000   29.1530 C.2   124  PHE124      0.2264
    130  O        -26.6870   14.5170   28.9530 O.2   124  PHE124     -0.2867
    131  CB       -28.4990   12.5960   27.7160 C.3   124  PHE124      0.0534
    132  CG       -29.0320   11.6330   26.6860 C.ar  124  PHE124     -0.0203
    133  CD1      -29.6480   10.4510   27.0710 C.ar  124  PHE124     -0.0042
    134  CD2      -28.8960   11.9090   25.3170 C.ar  124  PHE124     -0.0042
    135  CE1      -30.1400    9.5710   26.1270 C.ar  124  PHE124     -0.0003
    136  CE2      -29.3650   11.0170   24.3600 C.ar  124  PHE124     -0.0003
    137  CZ       -29.9920    9.8450   24.7680 C.ar  124  PHE124     -0.0000
    138  N        -24.5910   16.5550   28.1370 N.3   127  LEU127     -0.1245
    139  CA       -25.3240   17.6950   27.5660 C.3   127  LEU127      0.1561
    140  C        -25.4780   18.8440   28.5730 C.2   127  LEU127      0.2260
    141  O        -25.5300   20.0020   28.1930 O.2   127  LEU127     -0.2867
    142  CB       -26.7030   17.2970   27.0240 C.3   127  LEU127      0.0270
    143  CG       -26.7790   16.5440   25.7020 C.3   127  LEU127      0.0019
    144  CD1      -28.2150   16.1510   25.4440 C.3   127  LEU127      0.0001
    145  CD2      -26.2700   17.3840   24.5550 C.3   127  LEU127      0.0001
    146  N        -28.1210   19.4090   30.4380 N.3   129  CYS129     -0.1235
    147  CA       -29.5330   19.8790   30.4480 C.3   129  CYS129      0.1677
    148  C        -30.4600   18.7940   31.0010 C.2   129  CYS129      0.2270
    149  O        -31.3950   18.2930   30.3510 O.2   129  CYS129     -0.2867
    150  CB       -29.9440   20.3980   29.0670 C.3   129  CYS129      0.0956
    151  SG       -29.8420   19.1320   27.7830 S.3   129  CYS129     -0.0801
    152  N        -34.4340   19.1040   30.9020 N.3   132  LEU132     -0.1231
    153  CA       -34.9560   18.8680   29.5440 C.3   132  LEU132      0.1693
    154  C        -34.9510   17.3890   29.1760 C.2   132  LEU132      0.2591
    155  O        -35.9640   16.8330   28.7150 O.2   132  LEU132     -0.2718
    156  CB       -34.1160   19.6430   28.5190 C.3   132  LEU132      0.0284
    157  CG       -34.3030   19.4010   27.0270 C.3   132  LEU132      0.0019
    158  CD1      -35.7520   19.3700   26.5670 C.3   132  LEU132      0.0001
    159  CD2      -33.5380   20.4820   26.2980 C.3   132  LEU132      0.0001
    160  N        -33.8170   16.7310   29.4040 N.am  133  ILE133     -0.1980
    161  CA       -33.7400   15.3030   29.0840 C.3   133  ILE133      0.1595
    162  C        -34.8100   14.4970   29.8400 C.2   133  ILE133      0.2287
    163  O        -35.5570   13.7280   29.2550 O.2   133  ILE133     -0.2864
    164  CB       -32.3550   14.7120   29.4530 C.3   133  ILE133      0.0276
    165  CG1      -31.2410   15.3310   28.5950 C.3   133  ILE133      0.0022
    166  CG2      -32.3370   13.1930   29.3000 C.3   133  ILE133      0.0022
    167  CD1      -31.5360   15.4350   27.1040 C.3   133  ILE133      0.0001
    168  N        -38.1720   15.0760   28.3560 N.3   136  ILE136     -0.1231
    169  CA       -38.3410   14.3340   27.0840 C.3   136  ILE136      0.1692
    170  C        -38.6820   12.8760   27.3660 C.2   136  ILE136      0.2592
    171  O        -39.6020   12.2770   26.7540 O.2   136  ILE136     -0.2718
    172  CB       -36.9760   14.3200   26.3010 C.3   136  ILE136      0.0266
    173  CG1      -36.7530   15.6540   25.5800 C.3   136  ILE136      0.0019
    174  CG2      -36.8640   13.1340   25.3130 C.3   136  ILE136      0.0020
    175  CD1      -35.3420   15.8550   25.0370 C.3   136  ILE136      0.0001
    176  N        -37.9470   12.2940   28.3130 N.am  137  PHE137     -0.1976
    177  CA       -38.1800   10.8960   28.6430 C.3   137  PHE137      0.1639
    178  C        -39.5630   10.7270   29.2520 C.2   137  PHE137      0.2290
    179  O        -40.2470    9.7390   28.9650 O.2   137  PHE137     -0.2864
    180  CB       -37.1920   10.4100   29.7200 C.3   137  PHE137      0.0560
    181  CG       -35.9500    9.7540   29.1740 C.ar  137  PHE137     -0.0200
    182  CD1      -34.9260   10.5190   28.6060 C.ar  137  PHE137     -0.0042
    183  CD2      -35.7860    8.3680   29.2540 C.ar  137  PHE137     -0.0042
    184  CE1      -33.7900    9.9190   28.1030 C.ar  137  PHE137     -0.0003
    185  CE2      -34.6420    7.7610   28.7500 C.ar  137  PHE137     -0.0003
    186  CZ       -33.6410    8.5380   28.1680 C.ar  137  PHE137     -0.0000
    187  N        -41.5730   21.5850   26.4660 N.3   211  LEU211     -0.1245
    188  CA       -40.4460   20.8660   25.9370 C.3   211  LEU211      0.1561
    189  C        -39.7150   21.6460   24.8620 C.2   211  LEU211      0.2260
    190  O        -38.5310   21.6290   24.8030 O.2   211  LEU211     -0.2867
    191  CB       -40.9080   19.5320   25.4250 C.3   211  LEU211      0.0270
    192  CG       -41.4160   18.6760   26.5390 C.3   211  LEU211      0.0019
    193  CD1      -41.9720   17.4630   25.9000 C.3   211  LEU211      0.0001
    194  CD2      -40.2710   18.2590   27.3830 C.3   211  LEU211      0.0001
    195  N        -35.9660   23.4460   25.1920 N.3   215  HIS215     -0.1241
    196  CA       -34.9600   23.2590   24.1300 C.3   215  HIS215      0.1621
    197  C        -34.3480   24.5830   23.7580 C.2   215  HIS215      0.2264
    198  O        -33.1180   24.7350   23.7930 O.2   215  HIS215     -0.2867
    199  CB       -35.5550   22.5450   22.9190 C.3   215  HIS215      0.0745
    200  CG       -34.5810   22.3890   21.7980 C.ar  215  HIS215      0.0817
    201  ND1      -34.8950   22.6740   20.4870 N.ar  215  HIS215     -0.2268
    202  CD2      -33.2710   22.0640   21.8090 C.ar  215  HIS215      0.1154
    203  CE1      -33.8350   22.4700   19.7300 C.ar  215  HIS215      0.1986
    204  NE2      -32.8330   22.1090   20.5100 N.ar  215  HIS215     -0.2212
    205  N        -31.2500   24.0090   11.7070 N.3   238  TYR238     -0.1241
    206  CA       -31.3710   23.9210   13.1630 C.3   238  TYR238      0.1605
    207  C        -31.1940   25.3080   13.8070 C.2   238  TYR238      0.2264
    208  O        -32.0230   25.7500   14.5870 O.2   238  TYR238     -0.2867
    209  CB       -30.2800   22.9840   13.6980 C.3   238  TYR238      0.0534
    210  CG       -30.2830   22.8210   15.2030 C.ar  238  TYR238     -0.0201
    211  CD1      -29.6670   23.7630   16.0260 C.ar  238  TYR238     -0.0009
    212  CD2      -30.9070   21.7350   15.8150 C.ar  238  TYR238     -0.0009
    213  CE1      -29.6720   23.6400   17.4030 C.ar  238  TYR238      0.0417
    214  CE2      -30.9010   21.6100   17.2020 C.ar  238  TYR238      0.0417
    215  CZ       -30.2810   22.5670   17.9890 C.ar  238  TYR238      0.1957
    216  OH       -30.2590   22.4500   19.3630 O.3   238  TYR238     -0.2866
@<TRIPOS>BOND
     1     1     2    1
     2     2     3    1
     3     2     5    1
     4     3     4    2
     5     5     6    1
     6     6     7    1
     7     7     9   am
     8     7     8    2
     9    56    55    2
    10    55    54    1
    11    53    54    1
    12   205   206    1
    13    54    57    1
    14   206   209    1
    15   206   207    1
    16    48    47    2
    17   209   210    1
    18    38    37    2
    19   207   208    2
    20    47    46    1
    21    37    36    1
    22    37    45   am
    23    36    35    1
    24    36    39    1
    25    33    32    2
    26    72    70    1
    27    41    43   ar
    28    41    40   ar
    29   210   212   ar
    30   210   211   ar
    31    32    31    1
    32    45    46    1
    33    46    49    1
    34    43    44   ar
    35    58    59    1
    36    39    40    1
    37   212   214   ar
    38    66    67    1
    39    40    42   ar
    40   211   213   ar
    41    70    67    1
    42    70    71    1
    43    67    68    1
    44    49    50    1
    45   105   106   ar
    46   105   103   ar
    47    50    51    1
    48    50    52    1
    49    34    31    1
    50    44    42   ar
    51   106   104   ar
    52    31    30    1
    53    59    62    1
    54    59    60    1
    55   214   215   ar
    56   103   101   ar
    57    27    26    2
    58   213   215   ar
    59    62    63    1
    60    60    61    2
    61    30    26   am
    62    68    69    2
    63    68    73   am
    64   120   119    1
    65   120   121    2
    66   119   118    1
    67   119   122    1
    68    26    25    1
    69   104   102   ar
    70   215   216    1
    71   126   124   ar
    72   118   109   am
    73   122   123    1
    74   101   102   ar
    75   101   100    1
    76    73    74    1
    77    81    82    1
    78   123   124    1
    79    24    25    1
    80    64    63    1
    81    64    65    1
    82   124   125   ar
    83    25    28    1
    84    13    12    2
    85    82    83    1
    86    82    85    1
    87   100    97    1
    88    86    87    1
    89    86    85    1
    90   109   108    1
    91   109   110    2
    92   203   201   ar
    93   203   204   ar
    94    99    98    2
    95    12    11    1
    96    74    75    1
    97    74    77    1
    98    75    76    2
    99    87    88    1
   100   108   107    1
   101   108   111    1
   102    28    29    1
   103    83    84    2
   104    98   107   am
   105    98    97    1
   106   201   200   ar
   107   204   202   ar
   108    97    96    1
   109   115   113   ar
   110   115   117   ar
   111    77    78    1
   112   113   112   ar
   113    78    79    1
   114    78    80    1
   115   117   116   ar
   116   112   111    1
   117   112   114   ar
   118    11    14    1
   119    11    10    1
   120   116   114   ar
   121   200   202   ar
   122   200   199    1
   123    96    91   am
   124    14    15    1
   125    20    22   ar
   126    20    17   ar
   127    22    23   ar
   128   199   196    1
   129    91    92    2
   130    91    90    1
   131    15    17   ar
   132    15    16   ar
   133    95    93    1
   134    17    19   ar
   135   197   198    2
   136   197   196    1
   137    23    21   ar
   138   196   195    1
   139    90    93    1
   140    90    89    1
   141    94    93    1
   142   136   137   ar
   143   136   134   ar
   144    16    18   ar
   145    19    21   ar
   146    19    18   ar
   147   145   143    1
   148   137   135   ar
   149   190   189    2
   150   189   188    1
   151   175   173    1
   152   174   172    1
   153   134   132   ar
   154   191   188    1
   155   191   192    1
   156   144   143    1
   157   173   172    1
   158   143   142    1
   159   193   192    1
   160   188   187    1
   161   135   133   ar
   162   159   157    1
   163   172   169    1
   164   192   194    1
   165   158   157    1
   166   132   133   ar
   167   132   131    1
   168   171   170    2
   169   142   139    1
   170   157   156    1
   171   169   170    1
   172   169   168    1
   173   167   165    1
   174   170   176   am
   175   139   138    1
   176   139   140    1
   177   131   128    1
   178   151   150    1
   179   184   186   ar
   180   184   182   ar
   181   128   127    1
   182   128   129    1
   183   186   185   ar
   184   141   140    2
   185   176   177    1
   186   156   153    1
   187   165   164    1
   188   182   181   ar
   189   177   178    1
   190   177   180    1
   191   155   154    2
   192   185   183   ar
   193   130   129    2
   194   179   178    2
   195   150   147    1
   196   161   160    1
   197   161   164    1
   198   161   162    1
   199   181   183   ar
   200   181   180    1
   201   154   160   am
   202   154   153    1
   203   163   162    2
   204   166   164    1
   205   153   152    1
   206   149   148    2
   207   146   147    1
   208   147   148    1
