@<TRIPOS>MOLECULE
tmp/5iz4A00.pdb
 139 130 0 0 0
SMALL
GASTEIGER

@<TRIPOS>ATOM
      1  N        -27.7960   13.8920   14.0050 N.3    10  THR10      -0.1203
      2  CA       -28.7760   13.9660   12.9230 C.3    10  THR10       0.1994
      3  C        -29.9410   14.8470   13.3580 C.2    10  THR10       0.2618
      4  O        -30.1200   15.1330   14.5390 O.2    10  THR10      -0.2717
      5  CB       -29.3050   12.5930   12.4990 C.3    10  THR10       0.1784
      6  OG1      -30.0830   12.0100   13.5580 O.3    10  THR10      -0.2211
      7  CG2      -28.1650   11.6590   12.0920 C.3    10  THR10       0.0376
      8  N        -30.7390   15.2820   12.3840 N.am   11  GLY11      -0.1956
      9  CA       -31.7880   16.2310   12.7060 C.3    11  GLY11       0.1869
     10  C        -31.2450   17.5250   13.2540 C.2    11  GLY11       0.2309
     11  O        -31.9060   18.1790   14.0720 O.2    11  GLY11      -0.2863
     12  N        -30.5950   20.4620   11.9430 N.3    13  ALA13      -0.1231
     13  CA       -30.9480   21.7540   11.3660 C.3    13  ALA13       0.1694
     14  C        -31.8670   22.5790   12.2530 C.2    13  ALA13       0.2593
     15  O        -31.9790   23.7930   12.0430 O.2    13  ALA13      -0.2718
     16  CB       -31.6180   21.5590   10.0080 C.3    13  ALA13       0.0304
     17  N        -32.5300   21.9610   13.2300 N.am   14  SER14      -0.1938
     18  CA       -33.5480   22.6700   13.9900 C.3    14  SER14       0.2055
     19  C        -33.8260   21.9140   15.2780 C.2    14  SER14       0.2644
     20  O        -33.3150   20.8140   15.5010 O.2    14  SER14      -0.2714
     21  CB       -34.8380   22.8270   13.1850 C.3    14  SER14       0.2130
     22  OG       -35.3260   21.5520   12.8030 O.3    14  SER14      -0.2179
     23  N        -34.6450   22.5380   16.1240 N.am   15  GLY15      -0.1939
     24  CA       -35.1870   21.8800   17.3020 C.3    15  GLY15       0.2014
     25  C        -34.1190   21.3060   18.2100 C.2    15  GLY15       0.2639
     26  O        -33.0850   21.9320   18.4800 O.2    15  GLY15      -0.2714
     27  N        -34.3790   20.0880   18.6920 N.am   16  ILE16      -0.1963
     28  CA       -33.5060   19.4550   19.6810 C.3    16  ILE16       0.1727
     29  C        -32.1180   19.2080   19.1030 C.2    16  ILE16       0.2616
     30  O        -31.1030   19.4120   19.7780 O.2    16  ILE16      -0.2715
     31  CB       -34.1610   18.1550   20.1840 C.3    16  ILE16       0.0290
     32  CG1      -35.3620   18.4880   21.0710 C.3    16  ILE16       0.0022
     33  CG2      -33.1400   17.2620   20.9080 C.3    16  ILE16       0.0023
     34  CD1      -36.2630   17.2980   21.3430 C.3    16  ILE16       0.0001
     35  N        -32.0460   18.7460   17.8530 N.am   17  GLY17      -0.1955
     36  CA       -30.7450   18.4990   17.2550 C.3    17  GLY17       0.1869
     37  C        -29.9040   19.7570   17.1530 C.2    17  GLY17       0.2309
     38  O        -28.7100   19.7490   17.4740 O.2    17  GLY17      -0.2863
     39  N        -27.6260   17.7340    8.3010 N.3    35  ASN35      -0.1225
     40  CA       -28.6930   18.4320    7.6070 C.3    35  ASN35       0.1785
     41  C        -29.5210   17.4320    6.8100 C.2    35  ASN35       0.2597
     42  O        -28.9970   16.4420    6.2950 O.2    35  ASN35      -0.2718
     43  CB       -28.1110   19.4930    6.6610 C.3    35  ASN35       0.1169
     44  CG       -29.1780   20.2310    5.8940 C.2    35  ASN35       0.2627
     45  OD1      -30.0090   20.9140    6.4810 O.2    35  ASN35      -0.2716
     46  ND2      -29.1580   20.1060    4.5740 N.am   35  ASN35      -0.0877
     47  N        -30.8230   17.7100    6.6950 N.am   36  PHE36      -0.1976
     48  CA       -31.7090   16.8300    5.9250 C.3    36  PHE36       0.1639
     49  C        -31.5210   17.0410    4.4200 C.2    36  PHE36       0.2290
     50  O        -30.9350   16.1970    3.7330 O.2    36  PHE36      -0.2864
     51  CB       -33.1680   17.0480    6.3500 C.3    36  PHE36       0.0560
     52  CG       -34.1650   16.1350    5.6590 C.ar   36  PHE36      -0.0200
     53  CD1      -33.7590   14.9520    5.0520 C.ar   36  PHE36      -0.0042
     54  CD2      -35.5110   16.4800    5.6020 C.ar   36  PHE36      -0.0042
     55  CE1      -34.6830   14.1270    4.4070 C.ar   36  PHE36      -0.0003
     56  CE2      -36.4300   15.6640    4.9600 C.ar   36  PHE36      -0.0003
     57  CZ       -36.0170   14.4890    4.3630 C.ar   36  PHE36      -0.0000
     58  N        -33.8270   22.3970    4.4510 N.3    40  THR40      -0.1218
     59  CA       -33.3460   22.6680    5.8020 C.3    40  THR40       0.1862
     60  C        -31.9390   23.2580    5.8350 C.2    40  THR40       0.2287
     61  O        -31.4370   23.5750    6.9200 O.2    40  THR40      -0.2866
     62  CB       -33.3880   21.3870    6.6460 C.3    40  THR40       0.1770
     63  OG1      -32.5210   20.3970    6.0780 O.3    40  THR40      -0.2211
     64  CG2      -34.8050   20.8280    6.7020 C.3    40  THR40       0.0375
     65  N        -27.9340   14.0420    4.8370 N.3    63  ALA63      -0.1231
     66  CA       -28.3110   12.6330    4.8600 C.3    63  ALA63       0.1694
     67  C        -29.8060   12.4950    5.0890 C.2    63  ALA63       0.2592
     68  O        -30.3600   13.1030    6.0080 O.2    63  ALA63      -0.2718
     69  CB       -27.5490   11.8630    5.9420 C.3    63  ALA63       0.0304
     70  N        -30.4490   11.7020    4.2490 N.am   64  ASP64      -0.1960
     71  CA       -31.7870   11.1900    4.5120 C.3    64  ASP64       0.1840
     72  C        -31.5390    9.8760    5.2390 C.2    64  ASP64       0.2622
     73  O        -31.1170    8.8960    4.6270 O.2    64  ASP64      -0.2715
     74  CB       -32.5480   11.0140    3.1980 C.3    64  ASP64       0.1450
     75  CG       -33.9400   10.4130    3.3690 C.2    64  ASP64       0.3671
     76  OD1      -34.2330    9.8280    4.4240 O.co2  64  ASP64      -0.2456
     77  OD2      -34.7480   10.5080    2.4170 O.co2  64  ASP64      -0.2456
     78  N        -31.7500    9.8580    6.5590 N.am   65  VAL65      -0.1963
     79  CA       -31.3210    8.6910    7.3260 C.3    65  VAL65       0.1727
     80  C        -32.1090    7.4400    6.9520 C.2    65  VAL65       0.2616
     81  O        -31.6550    6.3230    7.2330 O.2    65  VAL65      -0.2715
     82  CB       -31.4010    8.9340    8.8530 C.3    65  VAL65       0.0290
     83  CG1      -30.3740    9.9880    9.3030 C.3    65  VAL65       0.0023
     84  CG2      -32.8120    9.3260    9.2800 C.3    65  VAL65       0.0023
     85  N        -33.2720    7.5810    6.3160 N.am   66  GLY66      -0.1955
     86  CA       -33.9790    6.4110    5.8320 C.3    66  GLY66       0.1869
     87  C        -33.2420    5.6570    4.7400 C.2    66  GLY66       0.2309
     88  O        -33.5760    4.5010    4.4550 O.2    66  GLY66      -0.2863
     89  N        -31.3960   12.6520   16.3080 N.3    91  CYS91      -0.1221
     90  CA       -32.5320   13.5610   16.4210 C.3    91  CYS91       0.1808
     91  C        -33.3620   13.6530   15.1480 C.2    91  CYS91       0.2601
     92  O        -34.4080   14.3090   15.1620 O.2    91  CYS91      -0.2717
     93  CB       -32.0760   14.9720   16.8110 C.3    91  CYS91       0.0970
     94  SG       -30.9550   15.0130   18.2330 S.3    91  CYS91      -0.0800
     95  N        -32.9310   13.0260   14.0610 N.am   92  ALA92      -0.1965
     96  CA       -33.7350   13.0320   12.8480 C.3    92  ALA92       0.1728
     97  C        -35.0590   12.3280   13.1160 C.2    92  ALA92       0.2617
     98  O        -35.0900   11.2550   13.7290 O.2    92  ALA92      -0.2715
     99  CB       -32.9800   12.3400   11.7150 C.3    92  ALA92       0.0334
    100  N        -36.1530   12.9410   12.6800 N.am   93  GLY93      -0.1940
    101  CA       -37.4490   12.3140   12.8790 C.3    93  GLY93       0.2014
    102  C        -38.5210   13.0380   12.1010 C.2    93  GLY93       0.2639
    103  O        -38.3050   14.1300   11.5690 O.2    93  GLY93      -0.2714
    104  N        -39.6890   12.4060   12.0300 N.am   94  THR94      -0.1950
    105  CA       -40.8010   13.0180   11.3250 C.3    94  THR94       0.1897
    106  C        -42.1090   12.5720   11.9550 C.2    94  THR94       0.2313
    107  O        -42.1650   11.5880   12.6970 O.2    94  THR94      -0.2863
    108  CB       -40.7900   12.6760    9.8280 C.3    94  THR94       0.1794
    109  OG1      -41.7170   13.5240    9.1420 O.3    94  THR94      -0.2208
    110  CG2      -41.2060   11.2310    9.6160 C.3    94  THR94       0.0378
    111  N        -38.0900    6.9480    9.0670 N.3   117  VAL117     -0.1245
    112  CA       -37.1700    7.9240    9.6470 C.3   117  VAL117      0.1561
    113  C        -36.8940    7.6020   11.1050 C.2   117  VAL117      0.2260
    114  O        -35.7410    7.5910   11.5550 O.2   117  VAL117     -0.2867
    115  CB       -37.7250    9.3520    9.5130 C.3   117  VAL117      0.0252
    116  CG1      -36.6880   10.3560   10.0140 C.3   117  VAL117      0.0019
    117  CG2      -38.1630    9.6560    8.0750 C.3   117  VAL117      0.0019
    118  N        -33.3900   10.2150   20.4380 N.3   148  VAL148     -0.1245
    119  CA       -34.4660   11.1060   20.8580 C.3   148  VAL148      0.1561
    120  C        -35.7730   10.3830   20.5640 C.2   148  VAL148      0.2260
    121  O        -36.2220   10.3070   19.4180 O.2   148  VAL148     -0.2867
    122  CB       -34.4040   12.4700   20.1740 C.3   148  VAL148      0.0252
    123  CG1      -35.5670   13.3400   20.6850 C.3   148  VAL148      0.0019
    124  CG2      -33.0830   13.1270   20.4650 C.3   148  VAL148      0.0019
    125  N        -42.4190   20.3920   23.8550 N.3   195  VAL195     -0.1245
    126  CA       -41.2240   21.1740   23.5560 C.3   195  VAL195      0.1561
    127  C        -41.6160   22.3280   22.6430 C.2   195  VAL195      0.2260
    128  O        -42.2320   22.1190   21.5880 O.2   195  VAL195     -0.2867
    129  CB       -40.1130   20.3180   22.9140 C.3   195  VAL195      0.0252
    130  CG1      -38.8960   21.1760   22.5990 C.3   195  VAL195      0.0019
    131  CG2      -39.7170   19.1770   23.8360 C.3   195  VAL195      0.0019
    132  N        -40.3620   24.9780   20.1300 N.3   197  ASP197     -0.1239
    133  CA       -39.2540   25.3190   19.2450 C.3   197  ASP197      0.1674
    134  C        -39.1710   26.8090   18.9340 C.2   197  ASP197      0.2266
    135  O        -38.2560   27.2230   18.2120 O.2   197  ASP197     -0.2867
    136  CB       -39.3670   24.5260   17.9360 C.3   197  ASP197      0.1410
    137  CG       -40.5640   24.9430   17.0940 C.2   197  ASP197      0.3668
    138  OD1      -41.4730   25.6120   17.6260 O.co2 197  ASP197     -0.2456
    139  OD2      -40.6010   24.5940   15.8940 O.co2 197  ASP197     -0.2456
@<TRIPOS>BOND
     1    77    75   ar
     2    74    75    1
     3    74    71    1
     4    75    76   ar
     5    50    49    2
     6    70    71    1
     7    70    67   am
     8    57    55   ar
     9    57    56   ar
    10    55    53   ar
    11    49    48    1
    12    58    59    1
    13    88    87    2
    14    71    72    1
    15    46    44   am
    16    73    72    2
    17    87    86    1
    18    65    66    1
    19    66    67    1
    20    66    69    1
    21    56    54   ar
    22    53    52   ar
    23    67    68    2
    24    72    78   am
    25    54    52   ar
    26    52    51    1
    27    59    60    1
    28    59    62    1
    29    86    85    1
    30    60    61    2
    31    44    45    2
    32    44    43    1
    33    48    51    1
    34    48    47    1
    35    63    62    1
    36    42    41    2
    37    85    80   am
    38    78    79    1
    39    62    64    1
    40    43    40    1
    41    47    41   am
    42    41    40    1
    43    80    81    2
    44    80    79    1
    45    79    82    1
    46    40    39    1
    47   117   115    1
    48    82    84    1
    49    82    83    1
    50   111   112    1
    51   109   108    1
    52   115   112    1
    53   115   116    1
    54   110   108    1
    55   112   113    1
    56   108   105    1
    57    16    13    1
    58   113   114    2
    59   105   106    1
    60   105   104    1
    61    13    12    1
    62    13    14    1
    63   103   102    2
    64    99    96    1
    65   106   107    2
    66   104   102   am
    67    15    14    2
    68     7     5    1
    69   102   101    1
    70    14    17   am
    71     8     9    1
    72     8     3   am
    73     5     2    1
    74     5     6    1
    75   100   101    1
    76   100    97   am
    77     9    10    1
    78    22    21    1
    79    96    97    1
    80    96    95    1
    81     2     3    1
    82     2     1    1
    83    97    98    2
    84    21    18    1
    85    17    18    1
    86    10    11    2
    87     3     4    2
    88    18    19    1
    89    95    91   am
    90    91    92    2
    91    91    90    1
    92    19    20    2
    93    19    23   am
    94   139   137   ar
    95    23    24    1
    96    89    90    1
    97    90    93    1
    98    93    94    1
    99   137   138   ar
   100   137   136    1
   101    37    36    1
   102    37    38    2
   103    36    35    1
   104    24    25    1
   105    35    29   am
   106   136   133    1
   107    25    26    2
   108    25    27   am
   109   135   134    2
   110    27    28    1
   111   134   133    1
   112    29    28    1
   113    29    30    2
   114   133   132    1
   115   121   120    2
   116    28    31    1
   117   122   124    1
   118   122   123    1
   119   122   119    1
   120    31    33    1
   121    31    32    1
   122   118   119    1
   123   120   119    1
   124    32    34    1
   125   128   127    2
   126   130   129    1
   127   127   126    1
   128   129   126    1
   129   129   131    1
   130   126   125    1
