@<TRIPOS>MOLECULE
tmp/5iz6A00.pdb
 227 215 0 0 0
SMALL
GASTEIGER

@<TRIPOS>ATOM
      1  N          2.1570   29.1390  108.3080 N.3    48  PHE48      -0.1241
      2  CA         1.9420   29.0410  106.8440 C.3    48  PHE48       0.1605
      3  C          2.7990   30.0170  106.0500 C.2    48  PHE48       0.2264
      4  O          3.0580   29.7970  104.8750 O.2    48  PHE48      -0.2867
      5  CB         0.4570   29.2590  106.4740 C.3    48  PHE48       0.0534
      6  CG        -0.3920   28.0900  106.8190 C.ar   48  PHE48      -0.0203
      7  CD1       -0.4440   26.9850  105.9720 C.ar   48  PHE48      -0.0042
      8  CD2       -1.0760   28.0400  108.0390 C.ar   48  PHE48      -0.0042
      9  CE1       -1.1890   25.8670  106.3230 C.ar   48  PHE48      -0.0003
     10  CE2       -1.8150   26.9160  108.3880 C.ar   48  PHE48      -0.0003
     11  CZ        -1.8780   25.8320  107.5380 C.ar   48  PHE48      -0.0000
     12  N          7.8960   31.5990  109.7440 N.3    53  ARG53      -0.1245
     13  CA         8.5320   30.3510  110.1420 C.3    53  ARG53       0.1563
     14  C          9.9770   30.5860  110.5800 C.2    53  ARG53       0.2260
     15  O         10.4020   30.0760  111.6190 O.2    53  ARG53      -0.2867
     16  CB         8.4970   29.3250  109.0260 C.3    53  ARG53       0.0307
     17  CG         7.1430   28.7090  108.8130 C.3    53  ARG53       0.0489
     18  CD         7.2810   27.3620  108.1440 C.3    53  ARG53       0.2205
     19  NE         7.6580   27.5100  106.7480 N.pl3  53  ARG53      -0.0865
     20  CZ         6.8300   27.8230  105.7480 C.cat  53  ARG53       0.5346
     21  NH1        5.5390   28.0630  105.9590 N.pl3  53  ARG53       0.1354
     22  NH2        7.3070   27.9120  104.5070 N.pl3  53  ARG53       0.1354
     23  N         -4.6390   19.2890  117.2230 N.3    89  ARG89      -0.1245
     24  CA        -4.8110   19.6380  115.8190 C.3    89  ARG89       0.1563
     25  C         -4.0080   20.8660  115.4100 C.2    89  ARG89       0.2260
     26  O         -3.2790   20.8010  114.4240 O.2    89  ARG89      -0.2867
     27  CB        -6.2880   19.8670  115.4560 C.3    89  ARG89       0.0307
     28  CG        -7.1340   18.5950  115.4090 C.3    89  ARG89       0.0489
     29  CD        -8.5730   18.9090  115.0150 C.3    89  ARG89       0.2205
     30  NE        -8.6080   19.4490  113.6510 N.pl3  89  ARG89      -0.0865
     31  CZ        -8.9330   20.6890  113.2950 C.cat  89  ARG89       0.5346
     32  NH1       -8.8700   21.0240  112.0080 N.pl3  89  ARG89       0.1354
     33  NH2       -9.2990   21.6060  114.1950 N.pl3  89  ARG89       0.1354
     34  N         -0.6640   20.9190  112.9800 N.3    93  MET93      -0.1245
     35  CA        -0.5520   21.7210  111.7680 C.3    93  MET93       0.1570
     36  C          0.7200   22.5700  111.7870 C.2    93  MET93       0.2261
     37  O          1.4510   22.6200  110.8210 O.2    93  MET93      -0.2867
     38  CB        -1.7840   22.6070  111.5870 C.3    93  MET93       0.0387
     39  CG        -3.1070   21.8830  111.3900 C.3    93  MET93       0.0595
     40  SD        -4.5070   23.0460  111.4800 S.3    93  MET93      -0.1393
     41  CE        -5.9050   22.0140  111.8280 C.3    93  MET93       0.0692
     42  N          3.5950   20.3410  111.1120 N.3    96  THR96      -0.1203
     43  CA         3.6270   20.0300  109.7000 C.3    96  THR96       0.1994
     44  C          4.3500   21.1490  108.9690 C.2    96  THR96       0.2617
     45  O          5.3160   20.8880  108.2500 O.2    96  THR96      -0.2717
     46  CB         2.2150   19.7920  109.1030 C.3    96  THR96       0.1784
     47  OG1        1.6090   18.6610  109.7410 O.3    96  THR96      -0.2211
     48  CG2        2.2790   19.5400  107.5940 C.3    96  THR96       0.0376
     49  N          3.9070   22.3860  109.1690 N.am   97  ASN97      -0.1974
     50  CA         4.4680   23.5050  108.4180 C.3    97  ASN97       0.1688
     51  C          5.9320   23.6980  108.7570 C.2    97  ASN97       0.2292
     52  O          6.7520   23.9280  107.8520 O.2    97  ASN97      -0.2864
     53  CB         3.6840   24.7880  108.6310 C.3    97  ASN97       0.1181
     54  CG         2.2730   24.7120  108.0670 C.2    97  ASN97       0.2629
     55  OD1        1.9960   23.8980  107.1850 O.2    97  ASN97      -0.2716
     56  ND2        1.3650   25.5390  108.5960 N.am   97  ASN97      -0.0877
     57  N          8.3600   21.0340  107.0830 N.3   100  PHE100     -0.1227
     58  CA         8.4630   21.1000  105.6300 C.3   100  PHE100      0.1736
     59  C          9.8290   21.6060  105.1720 C.2   100  PHE100      0.2596
     60  O         10.1520   22.7680  105.3540 O.2   100  PHE100     -0.2718
     61  CB         7.3530   22.0020  105.0710 C.3   100  PHE100      0.0547
     62  CG         7.4760   22.2920  103.6000 C.ar  100  PHE100     -0.0202
     63  CD1        7.3010   21.2820  102.6610 C.ar  100  PHE100     -0.0042
     64  CD2        7.7440   23.5880  103.1490 C.ar  100  PHE100     -0.0042
     65  CE1        7.4020   21.5460  101.2850 C.ar  100  PHE100     -0.0003
     66  CE2        7.8410   23.8600  101.7850 C.ar  100  PHE100     -0.0003
     67  CZ         7.6740   22.8370  100.8510 C.ar  100  PHE100     -0.0000
     68  N         10.6320   20.7120  104.6080 N.am  101  GLY101     -0.1957
     69  CA        11.9260   21.0640  103.9960 C.3   101  GLY101      0.1869
     70  C         12.9910   21.5050  104.9990 C.2   101  GLY101      0.2309
     71  O         13.9830   22.1240  104.6090 O.2   101  GLY101     -0.2863
     72  N         13.1460   18.3780  111.4700 N.3   106  LYS106     -0.1245
     73  CA        12.7490   16.9810  111.3190 C.3   106  LYS106      0.1561
     74  C         13.5520   16.1340  112.2470 C.2   106  LYS106      0.2260
     75  O         13.0000   15.2390  112.8900 O.2   106  LYS106     -0.2867
     76  CB        12.9580   16.4730  109.8840 C.3   106  LYS106      0.0271
     77  CG        11.9740   17.0090  108.8500 C.3   106  LYS106      0.0035
     78  CD        12.2960   16.4250  107.4760 C.3   106  LYS106      0.0206
     79  CE        11.6340   17.1930  106.3440 C.3   106  LYS106      0.1093
     80  NZ        11.9550   16.6420  105.0000 N.3   106  LYS106     -0.1314
     81  N        -10.0810   14.1460  111.6050 N.3   129  ASP129     -0.1239
     82  CA        -9.3170   15.2840  111.1460 C.3   129  ASP129      0.1674
     83  C         -7.9530   15.3250  111.8690 C.2   129  ASP129      0.2266
     84  O         -6.9300   15.5950  111.2440 O.2   129  ASP129     -0.2867
     85  CB       -10.0710   16.5770  111.3130 C.3   129  ASP129      0.1410
     86  CG        -9.3620   17.7420  110.6380 C.2   129  ASP129      0.3668
     87  OD1       -8.3830   18.2800  111.2080 O.co2 129  ASP129     -0.2456
     88  OD2       -9.7750   18.1050  109.5270 O.co2 129  ASP129     -0.2456
     89  N         -5.4990   12.9850  110.1950 N.3   132  GLN132     -0.1231
     90  CA        -4.9540   13.5610  108.9750 C.3   132  GLN132      0.1698
     91  C         -3.8060   14.5210  109.3070 C.2   132  GLN132      0.2592
     92  O         -2.7900   14.5750  108.5920 O.2   132  GLN132     -0.2718
     93  CB        -6.0700   14.3180  108.2240 C.3   132  GLN132      0.0381
     94  CG        -5.6870   14.9160  106.8770 C.3   132  GLN132      0.0905
     95  CD        -5.3190   16.3820  106.9500 C.2   132  GLN132      0.2608
     96  OE1       -5.7900   17.1150  107.8150 O.2   132  GLN132     -0.2717
     97  NE2       -4.4610   16.8160  106.0460 N.am  132  GLN132     -0.0878
     98  N         -3.9830   15.2700  110.4000 N.am  133  VAL133     -0.1980
     99  CA        -2.9890   16.2250  110.8380 C.3   133  VAL133      0.1595
    100  C         -1.7360   15.4780  111.2560 C.2   133  VAL133      0.2287
    101  O         -0.6660   15.7970  110.7690 O.2   133  VAL133     -0.2864
    102  CB        -3.5200   17.1630  111.9570 C.3   133  VAL133      0.0276
    103  CG1       -2.3950   17.9960  112.5620 C.3   133  VAL133      0.0022
    104  CG2       -4.5850   18.0880  111.4020 C.3   133  VAL133      0.0022
    105  N          0.1200   14.0180  108.2760 N.3   136  SER136     -0.1217
    106  CA         0.8510   15.0830  107.5840 C.3   136  SER136      0.1889
    107  C          2.2390   15.3410  108.2350 C.2   136  SER136      0.2288
    108  O          3.2320   15.5370  107.5320 O.2   136  SER136     -0.2866
    109  CB         0.0050   16.3660  107.5180 C.3   136  SER136      0.2089
    110  OG        -1.2310   16.1290  106.8270 O.3   136  SER136     -0.2183
    111  N          4.3550   12.2980  107.4490 N.3   139  ARG139     -0.1231
    112  CA         4.7680   12.3560  106.0500 C.3   139  ARG139      0.1694
    113  C          6.0720   13.1440  105.8610 C.2   139  ARG139      0.2592
    114  O          6.9920   12.6640  105.2090 O.2   139  ARG139     -0.2718
    115  CB         3.6670   12.9670  105.1920 C.3   139  ARG139      0.0321
    116  CG         4.0640   13.2010  103.7380 C.3   139  ARG139      0.0489
    117  CD         3.0270   14.0190  103.0100 C.3   139  ARG139      0.2205
    118  NE         3.4670   14.3780  101.6630 N.pl3 139  ARG139     -0.0865
    119  CZ         2.7740   15.1300  100.8140 C.cat 139  ARG139      0.5346
    120  NH1        1.5770   15.6380  101.1480 N.pl3 139  ARG139      0.1354
    121  NH2        3.2770   15.3730   99.6150 N.pl3 139  ARG139      0.1354
    122  N          6.1130   14.3590  106.4120 N.am  140  ASN140     -0.1974
    123  CA         7.2760   15.2330  106.3070 C.3   140  ASN140      0.1688
    124  C          8.4890   14.6480  107.0230 C.2   140  ASN140      0.2292
    125  O          9.6070   14.6730  106.4920 O.2   140  ASN140     -0.2864
    126  CB         6.9690   16.6400  106.8620 C.3   140  ASN140      0.1181
    127  CG         5.9980   17.4570  105.9850 C.2   140  ASN140      0.2629
    128  OD1        5.6080   17.0540  104.8940 O.2   140  ASN140     -0.2716
    129  ND2        5.6300   18.6250  106.4720 N.am  140  ASN140     -0.0877
    130  N         10.2090   11.9940  104.9860 N.3   143  TRP143     -0.1227
    131  CA        10.8440   12.3830  103.7180 C.3   143  TRP143      0.1737
    132  C         12.2610   12.7900  103.9960 C.2   143  TRP143      0.2595
    133  O         12.4800   13.6830  104.8090 O.2   143  TRP143     -0.2718
    134  CB        10.1130   13.5440  103.0780 C.3   143  TRP143      0.0564
    135  CG        10.6880   14.0170  101.7670 C.ar  143  TRP143      0.0003
    136  CD1       11.2320   15.2460  101.5180 C.ar  143  TRP143      0.0946
    137  CD2       10.7350   13.3030  100.5250 C.ar  143  TRP143      0.0152
    138  NE1       11.6070   15.3470  100.2100 N.ar  143  TRP143     -0.2442
    139  CE2       11.3280   14.1680   99.5700 C.ar  143  TRP143      0.0810
    140  CE3       10.3430   12.0230  100.1250 C.ar  143  TRP143      0.0012
    141  CZ2       11.5350   13.7910   98.2230 C.ar  143  TRP143      0.0191
    142  CZ3       10.5520   11.6370   98.7850 C.ar  143  TRP143      0.0001
    143  CH2       11.1380   12.5190   97.8470 C.ar  143  TRP143      0.0015
    144  N         13.2060   12.1390  103.3150 N.am  144  ARG144     -0.1980
    145  CA        14.6440   12.4000  103.4550 C.3   144  ARG144      0.1597
    146  C         15.0890   12.3510  104.9110 C.2   144  ARG144      0.2287
    147  O         15.8320   13.2150  105.3850 O.2   144  ARG144     -0.2864
    148  CB        15.0010   13.7250  102.7800 C.3   144  ARG144      0.0334
    149  CG        14.9540   13.5930  101.2680 C.3   144  ARG144      0.0492
    150  CD        14.5980   14.8800  100.5500 C.3   144  ARG144      0.2205
    151  NE        15.7390   15.7330  100.2360 N.pl3 144  ARG144     -0.0865
    152  CZ        15.7040   16.7690   99.3880 C.cat 144  ARG144      0.5346
    153  NH1       14.5860   17.1090   98.7300 N.pl3 144  ARG144      0.1354
    154  NH2       16.8110   17.4750   99.1840 N.pl3 144  ARG144      0.1354
    155  N         -9.1870   13.2380  102.2220 N.3   173  SER173     -0.1217
    156  CA        -8.1110   14.0650  102.7390 C.3   173  SER173      0.1889
    157  C         -7.2850   13.2890  103.7890 C.2   173  SER173      0.2288
    158  O         -6.0550   13.2860  103.7210 O.2   173  SER173     -0.2866
    159  CB        -8.6700   15.3740  103.2970 C.3   173  SER173      0.2089
    160  OG        -9.6190   15.1080  104.3110 O.3   173  SER173     -0.2183
    161  N         -5.2600   10.5250  101.9220 N.3   176  LYS176     -0.1231
    162  CA        -4.1530   11.1000  101.1790 C.3   176  LYS176      0.1693
    163  C         -2.9290   11.3250  102.0560 C.2   176  LYS176      0.2592
    164  O         -1.8140   11.0270  101.6510 O.2   176  LYS176     -0.2718
    165  CB        -4.5700   12.4340  100.5370 C.3   176  LYS176      0.0285
    166  CG        -3.5450   12.9550   99.5390 C.3   176  LYS176      0.0035
    167  CD        -3.7090   14.4330   99.1960 C.3   176  LYS176      0.0206
    168  CE        -2.3900   14.9920   98.6590 C.3   176  LYS176      0.1093
    169  NZ        -2.5250   16.3660   98.1220 N.3   176  LYS176     -0.1314
    170  N         -3.1240   11.8940  103.2360 N.am  177  SER177     -0.1952
    171  CA        -2.0040   12.1680  104.1220 C.3   177  SER177      0.1924
    172  C         -1.4410   10.8650  104.7050 C.2   177  SER177      0.2314
    173  O         -0.2300   10.6970  104.8560 O.2   177  SER177     -0.2863
    174  CB        -2.4440   13.1130  105.2290 C.3   177  SER177      0.2116
    175  OG        -3.0970   14.2400  104.6630 O.3   177  SER177     -0.2180
    176  N          0.4660    8.9840  101.8560 N.3   180  SER180     -0.1217
    177  CA         1.6770    9.7130  101.5280 C.3   180  SER180      0.1889
    178  C          2.8070    9.4310  102.4990 C.2   180  SER180      0.2288
    179  O          3.9470    9.2370  102.0770 O.2   180  SER180     -0.2866
    180  CB         1.3830   11.2130  101.4780 C.3   180  SER180      0.2089
    181  OG         0.5980   11.4950  100.3350 O.3   180  SER180     -0.2183
    182  N          3.8760    5.8350  101.9290 N.3   183  TRP183     -0.1227
    183  CA         4.6960    5.7390  100.7330 C.3   183  TRP183      0.1737
    184  C          6.1510    6.0570  101.0780 C.2   183  TRP183      0.2595
    185  O          7.0350    5.2830  100.7290 O.2   183  TRP183     -0.2718
    186  CB         4.1440    6.6520   99.6630 C.3   183  TRP183      0.0564
    187  CG         4.8320    6.5830   98.3300 C.ar  183  TRP183      0.0003
    188  CD1        5.7460    5.6650   97.9120 C.ar  183  TRP183      0.0946
    189  CD2        4.6020    7.4520   97.2330 C.ar  183  TRP183      0.0152
    190  NE1        6.1230    5.9280   96.6230 N.ar  183  TRP183     -0.2442
    191  CE2        5.4280    7.0200   96.1790 C.ar  183  TRP183      0.0810
    192  CE3        3.7770    8.5630   97.0380 C.ar  183  TRP183      0.0012
    193  CZ2        5.4590    7.6560   94.9520 C.ar  183  TRP183      0.0191
    194  CZ3        3.8040    9.2020   95.8170 C.ar  183  TRP183      0.0001
    195  CH2        4.6500    8.7470   94.7830 C.ar  183  TRP183      0.0015
    196  N          6.3750    7.1280  101.8410 N.am  184  ASN184     -0.1974
    197  CA         7.7260    7.5520  102.2580 C.3   184  ASN184      0.1688
    198  C          8.3670    6.5350  103.1630 C.2   184  ASN184      0.2292
    199  O          9.5020    6.1280  102.9380 O.2   184  ASN184     -0.2864
    200  CB         7.6930    8.8920  103.0050 C.3   184  ASN184      0.1181
    201  CG         7.4580   10.0750  102.0980 C.2   184  ASN184      0.2629
    202  OD1        7.5430    9.9710  100.8770 O.2   184  ASN184     -0.2716
    203  ND2        7.1910   11.2380  102.7050 N.am  184  ASN184     -0.0877
    204  N          9.7620    3.1620  101.7510 N.3   187  ALA187     -0.1245
    205  CA        11.0940    3.2440  101.1280 C.3   187  ALA187      0.1562
    206  C         12.2660    3.1370  102.1020 C.2   187  ALA187      0.2260
    207  O         13.3990    3.0540  101.6620 O.2   187  ALA187     -0.2867
    208  CB        11.2270    4.5480  100.3530 C.3   187  ALA187      0.0290
    209  N          4.4470   -0.6240   94.9110 N.3   230  ARG230     -0.1231
    210  CA         5.7170   -0.8250   94.2430 C.3   230  ARG230      0.1694
    211  C          6.8360   -1.1080   95.2570 C.2   230  ARG230      0.2592
    212  O          7.6050   -2.0640   95.0940 O.2   230  ARG230     -0.2718
    213  CB         6.0430    0.3680   93.3250 C.3   230  ARG230      0.0321
    214  CG         7.3630    0.2540   92.5750 C.3   230  ARG230      0.0489
    215  CD         8.4270    1.0530   93.2910 C.3   230  ARG230      0.2205
    216  NE         9.7800    0.8040   92.8080 N.pl3 230  ARG230     -0.0865
    217  CZ        10.8900    1.1190   93.4790 C.cat 230  ARG230      0.5346
    218  NH1       10.8360    1.6860   94.7000 N.pl3 230  ARG230      0.1354
    219  NH2       12.0780    0.8590   92.9320 N.pl3 230  ARG230      0.1354
    220  N          6.8840   -0.3180   96.3240 N.am  231  ASN231     -0.1974
    221  CA         7.9100   -0.5130   97.3680 C.3   231  ASN231      0.1688
    222  C          7.7800   -1.8550   98.1070 C.2   231  ASN231      0.2292
    223  O          8.7890   -2.4720   98.4230 O.2   231  ASN231     -0.2864
    224  CB         7.9330    0.6530   98.3660 C.3   231  ASN231      0.1181
    225  CG         8.3000    1.9860   97.7230 C.2   231  ASN231      0.2629
    226  OD1        8.7130    2.0770   96.5790 O.2   231  ASN231     -0.2716
    227  ND2        8.0960    3.0260   98.4600 N.am  231  ASN231     -0.0877
@<TRIPOS>BOND
     1   214   215    1
     2   214   213    1
     3   216   215    1
     4   216   217    2
     5   219   217    1
     6   213   210    1
     7   217   218    1
     8   210   209    1
     9   210   211    1
    10   195   193   ar
    11   195   194   ar
    12   193   191   ar
    13   212   211    2
    14   211   220   am
    15   194   192   ar
    16   191   190   ar
    17   191   189   ar
    18   220   221    1
    19   226   225    2
    20   190   188   ar
    21   192   189   ar
    22   189   187   ar
    23   221   222    1
    24   221   224    1
    25   225   224    1
    26   225   227   am
    27   143   141   ar
    28   143   142   ar
    29   188   187   ar
    30   222   223    2
    31   169   168    1
    32   141   139   ar
    33   187   186    1
    34   168   167    1
    35   153   152    1
    36   142   140   ar
    37   154   152    1
    38   167   166    1
    39   152   151    2
    40   166   165    1
    41   139   138   ar
    42   139   137   ar
    43   121   119    1
    44   186   183    1
    45   140   137   ar
    46   138   136   ar
    47   151   150    1
    48   181   180    1
    49   208   205    1
    50   137   135   ar
    51   165   162    1
    52   150   149    1
    53   185   184    2
    54   183   184    1
    55   183   182    1
    56   119   120    1
    57   119   118    2
    58    67    65   ar
    59    67    66   ar
    60   202   201    2
    61   184   196   am
    62   205   204    1
    63   205   206    1
    64   162   161    1
    65   162   163    1
    66   149   148    1
    67    65    63   ar
    68   180   177    1
    69   136   135   ar
    70   177   176    1
    71   177   178    1
    72   164   163    2
    73   207   206    2
    74   118   117    1
    75   135   134    1
    76    66    64   ar
    77   196   197    1
    78   163   170   am
    79   179   178    2
    80   201   203   am
    81   201   200    1
    82   155   156    1
    83   197   200    1
    84   197   198    1
    85    63    62   ar
    86   156   159    1
    87   156   157    1
    88   148   145    1
    89   199   198    2
    90   117   116    1
    91   134   131    1
    92    64    62   ar
    93   170   171    1
    94   159   160    1
    95   144   145    1
    96   144   132   am
    97   145   146    1
    98    62    61    1
    99   131   132    1
   100   131   130    1
   101   158   157    2
   102   116   115    1
   103   132   133    2
   104    69    68    1
   105    69    70    1
   106   171   172    1
   107   171   174    1
   108    22    20    1
   109    68    59   am
   110    71    70    2
   111   175   174    1
   112   172   173    2
   113     4     3    2
   114   128   127    2
   115   146   147    2
   116    80    79    1
   117    61    58    1
   118    59    60    2
   119    59    58    1
   120   115   112    1
   121   114   113    2
   122    58    57    1
   123    20    21    1
   124    20    19    2
   125   113   112    1
   126   113   122   am
   127     7     9   ar
   128     7     6   ar
   129   127   129   am
   130   127   126    1
   131    97    95   am
   132   112   111    1
   133     3     2    1
   134   123   122    1
   135   123   126    1
   136   123   124    1
   137     9    11   ar
   138    79    78    1
   139     5     6    1
   140     5     2    1
   141   125   124    2
   142    19    18    1
   143     6     8   ar
   144   110   109    1
   145     2     1    1
   146    94    95    1
   147    94    93    1
   148    95    96    2
   149    55    54    2
   150    78    77    1
   151   109   106    1
   152   108   107    2
   153    11    10   ar
   154   106   107    1
   155   106   105    1
   156    48    46    1
   157    52    51    2
   158     8    10   ar
   159    54    56   am
   160    54    53    1
   161    18    17    1
   162    93    90    1
   163    45    44    2
   164    50    53    1
   165    50    51    1
   166    50    49    1
   167    92    91    2
   168    17    16    1
   169    77    76    1
   170    44    49   am
   171    44    43    1
   172    90    91    1
   173    90    89    1
   174    16    13    1
   175    46    43    1
   176    46    47    1
   177    91    98   am
   178    88    86   ar
   179    43    42    1
   180    12    13    1
   181    76    73    1
   182    13    14    1
   183    98    99    1
   184    14    15    2
   185    86    87   ar
   186    86    85    1
   187   101   100    2
   188    37    36    2
   189    99   100    1
   190    99   102    1
   191    82    85    1
   192    82    81    1
   193    82    83    1
   194    84    83    2
   195    73    72    1
   196    73    74    1
   197    39    40    1
   198    39    38    1
   199   104   102    1
   200    40    41    1
   201    38    35    1
   202    35    36    1
   203    35    34    1
   204   102   103    1
   205    32    31    1
   206    74    75    2
   207    31    30    2
   208    31    33    1
   209    30    29    1
   210    26    25    2
   211    29    28    1
   212    28    27    1
   213    25    24    1
   214    27    24    1
   215    24    23    1
