@<TRIPOS>MOLECULE
tmp/5iz8A00.pdb
 192 181 0 0 0
SMALL
GASTEIGER

@<TRIPOS>ATOM
      1  N         26.1470   92.5190  314.8970 N.3    58  PHE58      -0.1241
      2  CA        26.1060   91.4960  313.8580 C.3    58  PHE58       0.1605
      3  C         27.4940   91.0110  313.4520 C.2    58  PHE58       0.2264
      4  O         27.7000   89.8270  313.2080 O.2    58  PHE58      -0.2867
      5  CB        25.3560   91.9840  312.6220 C.3    58  PHE58       0.0534
      6  CG        23.8810   91.9960  312.7900 C.ar   58  PHE58      -0.0203
      7  CD1       23.1460   90.8520  312.5810 C.ar   58  PHE58      -0.0042
      8  CD2       23.2100   93.1600  313.1810 C.ar   58  PHE58      -0.0042
      9  CE1       21.7700   90.8510  312.7500 C.ar   58  PHE58      -0.0003
     10  CE2       21.8220   93.1610  313.3550 C.ar   58  PHE58      -0.0003
     11  CZ        21.1030   92.0000  313.1290 C.ar   58  PHE58      -0.0000
     12  N         31.8650   92.4490  317.9600 N.3    63  ARG63      -0.1245
     13  CA        31.4650   91.7400  319.1660 C.3    63  ARG63       0.1563
     14  C         32.6600   91.5140  320.0880 C.2    63  ARG63       0.2260
     15  O         32.5520   91.6820  321.2850 O.2    63  ARG63      -0.2867
     16  CB        30.7850   90.4140  318.8420 C.3    63  ARG63       0.0307
     17  CG        29.3930   90.5440  318.2710 C.3    63  ARG63       0.0489
     18  CD        28.6230   89.2330  318.4140 C.3    63  ARG63       0.2205
     19  NE        29.2050   88.1260  317.6390 N.pl3  63  ARG63      -0.0865
     20  CZ        28.9580   87.8650  316.3530 C.cat  63  ARG63       0.5346
     21  NH1       29.5600   86.8430  315.7690 N.pl3  63  ARG63       0.1354
     22  NH2       28.1390   88.6150  315.6320 N.pl3  63  ARG63       0.1354
     23  N         18.0850   92.5470  320.4080 N.3   103  MET103     -0.1245
     24  CA        18.8200   92.0690  319.2450 C.3   103  MET103      0.1570
     25  C         20.3300   92.0320  319.4990 C.2   103  MET103      0.2261
     26  O         21.0010   91.0490  319.1890 O.2   103  MET103     -0.2867
     27  CB        18.5060   92.9290  318.0390 C.3   103  MET103      0.0387
     28  CG        17.0740   92.7660  317.5620 C.3   103  MET103      0.0595
     29  SD        16.5580   94.1160  316.5030 S.3   103  MET103     -0.1393
     30  CE        17.4620   93.6770  315.0290 C.3   103  MET103      0.0692
     31  N         20.8620   89.0990  321.5870 N.3   106  THR106     -0.1203
     32  CA        20.8320   87.9130  320.7620 C.3   106  THR106      0.1994
     33  C         22.2220   87.7170  320.1290 C.2   106  THR106      0.2617
     34  O         22.8260   86.6590  320.2720 O.2   106  THR106     -0.2717
     35  CB        19.7590   87.9870  319.6700 C.3   106  THR106      0.1784
     36  OG1       18.4780   88.2760  320.2430 O.3   106  THR106     -0.2211
     37  CG2       19.6860   86.6620  318.9310 C.3   106  THR106      0.0376
     38  N         22.7370   88.7500  319.4720 N.am  107  ASN107     -0.1974
     39  CA        24.0200   88.6570  318.8000 C.3   107  ASN107      0.1688
     40  C         25.1750   88.4040  319.7570 C.2   107  ASN107      0.2292
     41  O         26.1110   87.6890  319.4310 O.2   107  ASN107     -0.2864
     42  CB        24.2970   89.9220  317.9720 C.3   107  ASN107      0.1181
     43  CG        23.3210   90.1080  316.7960 C.2   107  ASN107      0.2629
     44  OD1       22.6590   89.1810  316.3640 O.2   107  ASN107     -0.2716
     45  ND2       23.2600   91.3190  316.2700 N.am  107  ASN107     -0.0877
     46  N         25.0180   84.7050  320.8940 N.3   110  PHE110     -0.1227
     47  CA        25.3410   83.8110  319.7610 C.3   110  PHE110      0.1736
     48  C         26.7800   83.3100  319.7280 C.2   110  PHE110      0.2596
     49  O         27.7260   84.0930  319.5890 O.2   110  PHE110     -0.2718
     50  CB        25.0920   84.5320  318.4470 C.3   110  PHE110      0.0547
     51  CG        25.3640   83.7120  317.2500 C.ar  110  PHE110     -0.0202
     52  CD1       24.4510   82.7540  316.8490 C.ar  110  PHE110     -0.0042
     53  CD2       26.5030   83.9240  316.4900 C.ar  110  PHE110     -0.0042
     54  CE1       24.6850   81.9880  315.7270 C.ar  110  PHE110     -0.0003
     55  CE2       26.7500   83.1690  315.3630 C.ar  110  PHE110     -0.0003
     56  CZ        25.8390   82.1950  314.9870 C.ar  110  PHE110     -0.0000
     57  N         26.9330   82.0030  319.8660 N.am  111  GLY111     -0.1957
     58  CA        28.2380   81.3620  319.7710 C.3   111  GLY111      0.1869
     59  C         29.2280   81.6210  320.9080 C.2   111  GLY111      0.2309
     60  O         30.3650   81.1700  320.8320 O.2   111  GLY111     -0.2863
     61  N         26.4890   83.7860  327.4160 N.3   116  LYS116     -0.1245
     62  CA        25.2600   83.0650  327.7730 C.3   116  LYS116      0.1561
     63  C         25.1860   82.8780  329.2880 C.2   116  LYS116      0.2260
     64  O         24.1780   83.1860  329.9180 O.2   116  LYS116     -0.2867
     65  CB        25.2280   81.6940  327.1100 C.3   116  LYS116      0.0271
     66  CG        25.0010   81.6570  325.6020 C.3   116  LYS116      0.0035
     67  CD        25.0020   80.1960  325.1520 C.3   116  LYS116      0.0206
     68  CE        25.5470   79.9650  323.7550 C.3   116  LYS116      0.1093
     69  NZ        24.5490   80.3370  322.7510 N.3   116  LYS116     -0.1314
     70  N          9.3780   88.4450  319.3740 N.3   142  GLN142     -0.1231
     71  CA        10.2230   87.7480  318.4320 C.3   142  GLN142      0.1698
     72  C         11.6690   87.8900  318.8710 C.2   142  GLN142      0.2592
     73  O         12.4130   86.9090  318.9000 O.2   142  GLN142     -0.2718
     74  CB         9.9900   88.2980  317.0140 C.3   142  GLN142      0.0381
     75  CG        10.6830   87.5270  315.8980 C.3   142  GLN142      0.0905
     76  CD        12.1570   87.8510  315.8190 C.2   142  GLN142      0.2608
     77  OE1       12.5160   89.0150  315.6780 O.2   142  GLN142     -0.2717
     78  NE2       13.0110   86.8520  315.9200 N.am  142  GLN142     -0.0878
     79  N         12.0480   89.1010  319.2640 N.am  143  VAL143     -0.1980
     80  CA        13.3970   89.3600  319.7720 C.3   143  VAL143      0.1595
     81  C         13.6500   88.6000  321.0780 C.2   143  VAL143      0.2287
     82  O         14.6850   87.9490  321.2150 O.2   143  VAL143     -0.2864
     83  CB        13.6760   90.8670  320.0000 C.3   143  VAL143      0.0276
     84  CG1       15.0740   91.0610  320.5560 C.3   143  VAL143      0.0022
     85  CG2       13.5480   91.6580  318.7090 C.3   143  VAL143      0.0022
     86  N         14.2170   85.0570  320.6410 N.3   146  SER146     -0.1217
     87  CA        15.5420   84.8620  320.0250 C.3   146  SER146      0.1889
     88  C         16.6970   84.8650  321.0070 C.2   146  SER146      0.2288
     89  O         17.6720   84.1250  320.8320 O.2   146  SER146     -0.2866
     90  CB        15.7910   85.9000  318.9490 C.3   146  SER146      0.2089
     91  OG        14.8010   85.7940  317.9450 O.3   146  SER146     -0.2183
     92  N         16.1780   81.5300  323.0500 N.3   149  ARG149     -0.1231
     93  CA        16.7240   80.5100  322.1790 C.3   149  ARG149      0.1694
     94  C         18.2250   80.3100  322.3050 C.2   149  ARG149      0.2592
     95  O         18.6780   79.1900  322.4470 O.2   149  ARG149     -0.2718
     96  CB        16.3940   80.8520  320.7420 C.3   149  ARG149      0.0321
     97  CG        17.0610   79.9390  319.7290 C.3   149  ARG149      0.0489
     98  CD        16.6460   80.3480  318.3470 C.3   149  ARG149      0.2205
     99  NE        17.4100   79.6360  317.3410 N.pl3 149  ARG149     -0.0865
    100  CZ        17.2340   79.7810  316.0300 C.cat 149  ARG149      0.5346
    101  NH1       16.3210   80.6120  315.5500 N.pl3 149  ARG149      0.1354
    102  NH2       17.9790   79.0890  315.1870 N.pl3 149  ARG149      0.1354
    103  N         18.9960   81.3890  322.2150 N.am  150  ASN150     -0.1974
    104  CA        20.4650   81.2900  322.2590 C.3   150  ASN150      0.1688
    105  C         20.9760   80.9650  323.6430 C.2   150  ASN150      0.2292
    106  O         21.9850   80.3000  323.7930 O.2   150  ASN150     -0.2864
    107  CB        21.1300   82.5690  321.7710 C.3   150  ASN150      0.1181
    108  CG        20.8910   82.8360  320.2900 C.2   150  ASN150      0.2629
    109  OD1       19.9100   82.3790  319.7000 O.2   150  ASN150     -0.2716
    110  ND2       21.7520   83.6330  319.6980 N.am  150  ASN150     -0.0877
    111  N         20.5300   77.2650  324.0960 N.3   153  TRP153     -0.1241
    112  CA        21.4010   76.4400  323.2560 C.3   153  TRP153      0.1605
    113  C         22.7380   76.2150  323.9400 C.2   153  TRP153      0.2264
    114  O         23.5080   77.1420  324.1240 O.2   153  TRP153     -0.2867
    115  CB        21.6160   77.0510  321.8650 C.3   153  TRP153      0.0550
    116  CG        22.3940   76.0960  320.9540 C.ar  153  TRP153      0.0003
    117  CD1       23.6900   76.2150  320.5320 C.ar  153  TRP153      0.0946
    118  CD2       21.9180   74.8610  320.4200 C.ar  153  TRP153      0.0152
    119  NE1       24.0480   75.1370  319.7620 N.ar  153  TRP153     -0.2442
    120  CE2       22.9760   74.2910  319.6730 C.ar  153  TRP153      0.0810
    121  CE3       20.6960   74.1830  320.4950 C.ar  153  TRP153      0.0012
    122  CZ2       22.8460   73.0770  319.0080 C.ar  153  TRP153      0.0191
    123  CZ3       20.5740   72.9920  319.8390 C.ar  153  TRP153      0.0001
    124  CH2       21.6430   72.4490  319.0950 C.ar  153  TRP153      0.0015
    125  N          6.8960   84.8660  311.7750 N.3   183  SER183     -0.1217
    126  CA         8.2830   85.1640  312.1760 C.3   183  SER183      0.1889
    127  C          8.4510   85.0790  313.6910 C.2   183  SER183      0.2288
    128  O          9.4050   84.4740  314.1910 O.2   183  SER183     -0.2866
    129  CB         8.6780   86.5600  311.6860 C.3   183  SER183      0.2089
    130  OG         7.6500   87.4900  311.9840 O.3   183  SER183     -0.2183
    131  N          8.1150   81.4130  314.7900 N.3   186  LYS186     -0.1231
    132  CA         9.3250   80.6600  314.4940 C.3   186  LYS186      0.1693
    133  C         10.3290   80.7110  315.6580 C.2   186  LYS186      0.2592
    134  O         10.8780   79.6830  316.0610 O.2   186  LYS186     -0.2718
    135  CB         9.9840   81.1240  313.1920 C.3   186  LYS186      0.0285
    136  CG        11.4310   80.6480  313.0800 C.3   186  LYS186      0.0035
    137  CD        12.0730   80.7710  311.7060 C.3   186  LYS186      0.0206
    138  CE        13.4710   80.1460  311.7600 C.3   186  LYS186      0.1093
    139  NZ        14.4210   80.7710  310.8000 N.3   186  LYS186     -0.1314
    140  N         10.5550   81.9050  316.1960 N.am  187  SER187     -0.1952
    141  CA        11.5270   82.0960  317.2850 C.3   187  SER187      0.1924
    142  C         11.0520   81.5250  318.6060 C.2   187  SER187      0.2314
    143  O         11.7970   80.8030  319.2760 O.2   187  SER187     -0.2863
    144  CB        11.8510   83.5720  317.4570 C.3   187  SER187      0.2116
    145  OG        12.6090   84.0160  316.3590 O.3   187  SER187     -0.2180
    146  N         11.4300   77.8470  318.2480 N.3   190  SER190     -0.1217
    147  CA        12.8590   77.5130  318.2400 C.3   190  SER190      0.1889
    148  C         13.4370   77.5010  319.6630 C.2   190  SER190      0.2288
    149  O         14.2370   76.6290  320.0120 O.2   190  SER190     -0.2866
    150  CB        13.6290   78.5020  317.3770 C.3   190  SER190      0.2089
    151  OG        13.1100   78.5700  316.0720 O.3   190  SER190     -0.2183
    152  N         11.9430   74.4640  321.4940 N.3   193  TRP193     -0.1227
    153  CA        12.6120   73.2710  321.0010 C.3   193  TRP193      0.1737
    154  C         13.9060   73.0620  321.7960 C.2   193  TRP193      0.2595
    155  O         14.1220   72.0000  322.3690 O.2   193  TRP193     -0.2718
    156  CB        12.8820   73.4080  319.5050 C.3   193  TRP193      0.0564
    157  CG        13.3770   72.1650  318.7710 C.ar  193  TRP193      0.0003
    158  CD1       13.6950   70.9550  319.3050 C.ar  193  TRP193      0.0946
    159  CD2       13.6530   72.0580  317.3660 C.ar  193  TRP193      0.0152
    160  NE1       14.1110   70.0860  318.3210 N.ar  193  TRP193     -0.2442
    161  CE2       14.1030   70.7410  317.1240 C.ar  193  TRP193      0.0810
    162  CE3       13.5570   72.9450  316.2890 C.ar  193  TRP193      0.0012
    163  CZ2       14.4600   70.2890  315.8510 C.ar  193  TRP193      0.0191
    164  CZ3       13.8970   72.4990  315.0310 C.ar  193  TRP193      0.0001
    165  CH2       14.3490   71.1780  314.8200 C.ar  193  TRP193      0.0015
    166  N         14.7480   74.0840  321.8770 N.am  194  ASN194     -0.1974
    167  CA        15.9950   73.9790  322.6430 C.3   194  ASN194      0.1688
    168  C         15.7430   73.6450  324.1050 C.2   194  ASN194      0.2292
    169  O         16.4490   72.8220  324.6900 O.2   194  ASN194     -0.2864
    170  CB        16.7910   75.2870  322.5780 C.3   194  ASN194      0.1181
    171  CG        17.3890   75.5510  321.2130 C.2   194  ASN194      0.2629
    172  OD1       17.2700   74.7530  320.2910 O.2   194  ASN194     -0.2716
    173  ND2       18.0460   76.6920  321.0790 N.am  194  ASN194     -0.0877
    174  N         14.6400   70.0470  325.3210 N.3   197  ALA197     -0.1245
    175  CA        15.7100   69.0670  325.4520 C.3   197  ALA197      0.1562
    176  C         16.4000   69.0020  326.8210 C.2   197  ALA197      0.2260
    177  O         17.2140   68.1040  327.0470 O.2   197  ALA197     -0.2867
    178  CB        16.7640   69.2950  324.3530 C.3   197  ALA197      0.0290
    179  N          9.8690   72.7500  313.8440 N.3   234  SER234     -0.1217
    180  CA        10.0960   73.1850  315.2120 C.3   234  SER234      0.1889
    181  C          9.0940   72.5900  316.1650 C.2   234  SER234      0.2288
    182  O          9.4670   71.9170  317.1290 O.2   234  SER234     -0.2866
    183  CB        10.0760   74.7050  315.2890 C.3   234  SER234      0.2089
    184  OG        11.2850   75.1980  314.7460 O.3   234  SER234     -0.2183
    185  N         10.5660   65.7710  321.5680 N.3   241  ASN241     -0.1240
    186  CA        11.3350   65.8240  322.8120 C.3   241  ASN241      0.1653
    187  C         10.4550   65.5630  324.0040 C.2   241  ASN241      0.2266
    188  O         10.8770   64.8780  324.9370 O.2   241  ASN241     -0.2867
    189  CB        12.0540   67.1720  322.9510 C.3   241  ASN241      0.1155
    190  CG        13.2930   67.2840  322.0690 C.2   241  ASN241      0.2627
    191  OD1       13.7990   66.2950  321.5290 O.2   241  ASN241     -0.2716
    192  ND2       13.8070   68.5010  321.9470 N.am  241  ASN241     -0.0877
@<TRIPOS>BOND
     1   139   138    1
     2   129   130    1
     3   129   126    1
     4   137   138    1
     5   137   136    1
     6   125   126    1
     7   126   127    1
     8     7     9   ar
     9     7     6   ar
    10     5     6    1
    11     5     2    1
    12     9    11   ar
    13     6     8   ar
    14   136   135    1
    15    11    10   ar
    16     8    10   ar
    17   135   132    1
    18     4     3    2
    19     3     2    1
    20   127   128    2
    21   179   180    1
    22     2     1    1
    23   132   131    1
    24   132   133    1
    25   184   183    1
    26   165   164   ar
    27   165   163   ar
    28    56    55   ar
    29    56    54   ar
    30    30    29    1
    31   164   162   ar
    32   102   100    1
    33   180   183    1
    34   180   181    1
    35    55    53   ar
    36   101   100    1
    37    22    20    1
    38   133   134    2
    39   133   140   am
    40    77    76    2
    41    54    52   ar
    42    21    20    1
    43    76    75    1
    44    76    78   am
    45   163   161   ar
    46    75    74    1
    47   100    99    2
    48   151   150    1
    49   181   182    2
    50   140   141    1
    51    45    43   am
    52   162   159   ar
    53    20    19    2
    54   145   144    1
    55    44    43    2
    56    53    51   ar
    57    29    28    1
    58    43    42    1
    59    52    51   ar
    60    74    71    1
    61   161   159   ar
    62   161   160   ar
    63    51    50    1
    64   141   144    1
    65   141   142    1
    66    99    98    1
    67   159   157   ar
    68   150   147    1
    69    28    27    1
    70    19    18    1
    71    91    90    1
    72    12    13    1
    73    42    39    1
    74    27    24    1
    75   147   146    1
    76   147   148    1
    77    17    18    1
    78    17    16    1
    79   160   158   ar
    80    98    97    1
    81    71    72    1
    82    71    70    1
    83    50    47    1
    84   142   143    2
    85    85    83    1
    86   157   158   ar
    87   157   156    1
    88    39    38    1
    89    39    40    1
    90    16    13    1
    91    72    73    2
    92    72    79   am
    93    37    35    1
    94    90    87    1
    95   122   124   ar
    96   122   120   ar
    97   124   123   ar
    98    13    14    1
    99    26    25    2
   100    24    25    1
   101    24    23    1
   102    79    80    1
   103    41    40    2
   104    38    33   am
   105   156   153    1
   106    49    48    2
   107   148   149    2
   108    35    36    1
   109    35    32    1
   110   120   119   ar
   111   120   118   ar
   112   110   108   am
   113   109   108    2
   114    48    47    1
   115    48    57   am
   116    97    96    1
   117    47    46    1
   118   119   117   ar
   119    58    57    1
   120    58    59    1
   121    80    83    1
   122    80    81    1
   123   123   121   ar
   124    83    84    1
   125    87    86    1
   126    87    88    1
   127    14    15    2
   128    33    34    2
   129    33    32    1
   130   108   107    1
   131   172   171    2
   132   118   121   ar
   133   118   116   ar
   134   117   116   ar
   135    96    93    1
   136    32    31    1
   137    60    59    2
   138    89    88    2
   139   116   115    1
   140   153   152    1
   141   153   154    1
   142    81    82    2
   143   173   171   am
   144   171   170    1
   145   191   190    2
   146   185   186    1
   147   107   104    1
   148   154   166   am
   149   154   155    2
   150   115   112    1
   151   166   167    1
   152   192   190   am
   153   190   189    1
   154    93    94    1
   155    93    92    1
   156   103   104    1
   157   103    94   am
   158   104   105    1
   159    94    95    2
   160   170   167    1
   161   167   168    1
   162    69    68    1
   163   186   189    1
   164   186   187    1
   165   112   113    1
   166   112   111    1
   167   105   106    2
   168    68    67    1
   169   113   114    2
   170   187   188    2
   171   168   169    2
   172   178   175    1
   173    67    66    1
   174   174   175    1
   175   175   176    1
   176    66    65    1
   177   176   177    2
   178    65    62    1
   179    61    62    1
   180    62    63    1
   181    63    64    2
