@<TRIPOS>MOLECULE
tmp/5iz8B00.pdb
 109 109 0 0 0
SMALL
GASTEIGER

@<TRIPOS>ATOM
      1  N         25.3610   87.9380  302.0610 N.3    24  TRP24      -0.1227
      2  CA        24.2330   87.7060  302.9330 C.3    24  TRP24       0.1737
      3  C         24.4710   88.3890  304.2530 C.2    24  TRP24       0.2595
      4  O         23.5510   88.9800  304.7860 O.2    24  TRP24      -0.2718
      5  CB        23.9750   86.2100  303.1350 C.3    24  TRP24       0.0564
      6  CG        22.9600   85.9410  304.1800 C.ar   24  TRP24       0.0003
      7  CD1       21.6210   85.8610  304.0100 C.ar   24  TRP24       0.0946
      8  CD2       23.2050   85.7330  305.5850 C.ar   24  TRP24       0.0152
      9  NE1       21.0080   85.6350  305.2180 N.ar   24  TRP24      -0.2442
     10  CE2       21.9530   85.5500  306.1980 C.ar   24  TRP24       0.0810
     11  CE3       24.3660   85.6970  306.3790 C.ar   24  TRP24       0.0012
     12  CZ2       21.8090   85.3270  307.5560 C.ar   24  TRP24       0.0191
     13  CZ3       24.2310   85.4850  307.7480 C.ar   24  TRP24       0.0001
     14  CH2       22.9500   85.2940  308.3230 C.ar   24  TRP24       0.0015
     15  N         25.6830   88.2930  304.7970 N.am   25  GLN25      -0.1979
     16  CA        25.9920   88.9250  306.0800 C.3    25  GLN25       0.1601
     17  C         25.7200   90.4340  306.0140 C.2    25  GLN25       0.2287
     18  O         25.2970   91.0190  306.9970 O.2    25  GLN25      -0.2864
     19  CB        27.4510   88.6560  306.5260 C.3    25  GLN25       0.0394
     20  CG        27.7400   87.2250  306.9640 C.3    25  GLN25       0.0908
     21  CD        29.1580   87.0240  307.5060 C.2    25  GLN25       0.2608
     22  OE1       30.1420   87.3500  306.8350 O.2    25  GLN25      -0.2717
     23  NE2       29.2690   86.4660  308.7350 N.am   25  GLN25      -0.0878
     24  N         22.0200   91.3070  305.7270 N.3    28  HIS28      -0.1241
     25  CA        21.4440   90.8590  306.9990 C.3    28  HIS28       0.1621
     26  C         21.5070   91.8300  308.1540 C.2    28  HIS28       0.2264
     27  O         20.7870   91.6760  309.1070 O.2    28  HIS28      -0.2867
     28  CB        21.9620   89.5100  307.4120 C.3    28  HIS28       0.0745
     29  CG        21.2960   88.9460  308.6220 C.ar   28  HIS28       0.0817
     30  ND1       21.9670   88.1690  309.5350 N.ar   28  HIS28      -0.2268
     31  CD2       20.0180   88.9990  309.0480 C.ar   28  HIS28       0.1154
     32  CE1       21.1370   87.7800  310.4780 C.ar   28  HIS28       0.1986
     33  NE2       19.9470   88.2710  310.2070 N.ar   28  HIS28      -0.2212
     34  N         20.2280   94.8010  309.9130 N.3    30  PRO30      -0.2102
     35  CA        18.7950   94.6420  309.7140 C.3    30  PRO30       0.1504
     36  C         18.1320   95.7030  308.8370 C.2    30  PRO30       0.2576
     37  O         18.6780   96.8010  308.6690 O.2    30  PRO30      -0.2718
     38  CB        18.2430   94.6830  311.1550 C.3    30  PRO30       0.0282
     39  CG        19.2290   95.5110  311.9140 C.3    30  PRO30       0.0208
     40  CD        20.5180   95.5640  311.1340 C.3    30  PRO30       0.0893
     41  N         16.9940   95.3440  308.2450 N.am   31  GLY31      -0.1957
     42  CA        16.0980   96.3340  307.6320 C.3    31  GLY31       0.1869
     43  C         15.3840   95.8710  306.4030 C.2    31  GLY31       0.2309
     44  O         14.2820   96.3210  306.1640 O.2    31  GLY31      -0.2863
     45  N         14.2140   90.1490  304.3380 N.3    34  GLN34      -0.1245
     46  CA        14.9060   88.8550  304.6340 C.3    34  GLN34       0.1566
     47  C         14.1580   87.6210  304.1050 C.2    34  GLN34       0.2260
     48  O         14.6460   86.4970  304.2360 O.2    34  GLN34      -0.2867
     49  CB        15.2860   88.6530  306.1250 C.3    34  GLN34       0.0367
     50  CG        16.2760   89.6610  306.7140 C.3    34  GLN34       0.0905
     51  CD        17.6830   89.5680  306.1260 C.2    34  GLN34       0.2608
     52  OE1       18.2890   88.4950  306.0880 O.2    34  GLN34      -0.2717
     53  NE2       18.2130   90.7030  305.6750 N.am   34  GLN34      -0.0878
     54  N         30.8310   81.7520  312.0330 N.3    85  GLU85      -0.1231
     55  CA        30.1440   83.0670  312.2380 C.3    85  GLU85       0.1699
     56  C         28.6830   83.1480  311.7880 C.2    85  GLU85       0.2592
     57  O         27.9170   83.9880  312.2610 O.2    85  GLU85      -0.2718
     58  CB        30.9390   84.1970  311.5830 C.3    85  GLU85       0.0402
     59  CG        32.2450   84.4610  312.3010 C.3    85  GLU85       0.1161
     60  CD        33.1000   85.5720  311.7020 C.2    85  GLU85       0.3649
     61  OE1       32.7100   86.1610  310.6520 O.co2  85  GLU85      -0.2457
     62  OE2       34.1850   85.8140  312.3260 O.co2  85  GLU85      -0.2457
     63  N         28.2990   82.2480  310.9080 N.am   86  MET86      -0.1965
     64  CA        26.9250   82.1700  310.4580 C.3    86  MET86       0.1736
     65  C         26.0620   81.2260  311.3090 C.2    86  MET86       0.2616
     66  O         24.9440   81.5670  311.6080 O.2    86  MET86      -0.2715
     67  CB        26.8870   81.7080  309.0070 C.3    86  MET86       0.0427
     68  CG        27.3590   82.7270  307.9900 C.3    86  MET86       0.0599
     69  SD        27.4980   81.9370  306.3830 S.3    86  MET86      -0.1393
     70  CE        25.7770   81.9310  305.8820 C.3    86  MET86       0.0692
     71  N         26.5760   80.0440  311.6640 N.am   87  TYR87      -0.1960
     72  CA        25.7940   78.9730  312.3060 C.3    87  TYR87       0.1771
     73  C         26.2160   78.5960  313.7200 C.2    87  TYR87       0.2620
     74  O         25.6830   77.6650  314.2850 O.2    87  TYR87      -0.2715
     75  CB        25.8780   77.7190  311.4390 C.3    87  TYR87       0.0574
     76  CG        25.3090   77.9280  310.0500 C.ar   87  TYR87      -0.0198
     77  CD1       23.9520   78.1450  309.8610 C.ar   87  TYR87      -0.0009
     78  CD2       26.1200   77.8840  308.9280 C.ar   87  TYR87      -0.0009
     79  CE1       23.4120   78.3200  308.6050 C.ar   87  TYR87       0.0417
     80  CE2       25.5840   78.0540  307.6570 C.ar   87  TYR87       0.0417
     81  CZ        24.2150   78.2820  307.5070 C.ar   87  TYR87       0.1957
     82  OH        23.6250   78.4400  306.2550 O.3    87  TYR87      -0.2866
     83  N         27.1850   79.2780  314.2850 N.am   88  GLY88      -0.1940
     84  CA        27.5370   79.0810  315.6890 C.3    88  GLY88       0.2014
     85  C         28.0440   77.6960  316.0510 C.2    88  GLY88       0.2639
     86  O         28.7040   77.0660  315.2340 O.2    88  GLY88      -0.2714
     87  N         27.7280   77.2360  317.2750 N.am   89  LEU89      -0.1963
     88  CA        28.0610   75.8880  317.7570 C.3    89  LEU89       0.1728
     89  C         26.9440   74.9560  317.3630 C.2    89  LEU89       0.2617
     90  O         26.2200   74.4130  318.2010 O.2    89  LEU89      -0.2715
     91  CB        28.2820   75.8500  319.2650 C.3    89  LEU89       0.0311
     92  CG        29.6550   76.3990  319.6440 C.3    89  LEU89       0.0022
     93  CD1       29.5830   77.6020  320.6080 C.3    89  LEU89       0.0001
     94  CD2       30.5240   75.2590  320.1930 C.3    89  LEU89       0.0001
     95  N         26.8230   74.7780  316.0580 N.am   90  THR90      -0.1937
     96  CA        25.8150   73.9220  315.4850 C.3    90  THR90       0.2028
     97  C         26.1720   72.4750  315.7110 C.2    90  THR90       0.2642
     98  O         27.3150   72.1250  316.0280 O.2    90  THR90      -0.2714
     99  CB        25.6600   74.1570  313.9640 C.3    90  THR90       0.1808
    100  OG1       24.4750   73.5110  313.4890 O.3    90  THR90      -0.2208
    101  CG2       26.8850   73.6500  313.1870 C.3    90  THR90       0.0379
    102  N         25.1470   71.6570  315.5390 N.am   91  ASN91      -0.1971
    103  CA        25.2400   70.2000  315.5460 C.3    91  ASN91       0.1688
    104  C         25.0070   69.6110  314.1330 C.2    91  ASN91       0.2292
    105  O         25.2660   68.4320  313.9290 O.2    91  ASN91      -0.2864
    106  CB        24.2250   69.6390  316.5990 C.3    91  ASN91       0.1181
    107  CG        22.7560   70.0300  316.2910 C.2    91  ASN91       0.2629
    108  OD1       22.4720   70.9850  315.5360 O.2    91  ASN91      -0.2716
    109  ND2       21.8180   69.2990  316.8970 N.am   91  ASN91      -0.0877
@<TRIPOS>BOND
     1     1     2    1
     2     2     5    1
     3     2     3    1
     4     5     6    1
     5     7     6   ar
     6     7     9   ar
     7    47    48    2
     8    47    46    1
     9     6     8   ar
    10     3     4    2
    11     3    15   am
    12    45    46    1
    13    46    49    1
    14    15    16    1
    15     9    10   ar
    16     8    10   ar
    17     8    11   ar
    18    53    51   am
    19    24    25    1
    20    70    69    1
    21    17    16    1
    22    17    18    2
    23    16    19    1
    24    52    51    2
    25    49    50    1
    26    51    50    1
    27    44    43    2
    28    10    12   ar
    29    82    81    1
    30    11    13   ar
    31    69    68    1
    32    43    42    1
    33    19    20    1
    34    22    21    2
    35    20    21    1
    36    25    28    1
    37    25    26    1
    38    28    29    1
    39    21    23   am
    40    81    80   ar
    41    81    79   ar
    42    12    14   ar
    43    42    41    1
    44    80    78   ar
    45    13    14   ar
    46    68    67    1
    47    26    27    2
    48    41    36   am
    49    79    77   ar
    50    29    31   ar
    51    29    30   ar
    52    37    36    2
    53    36    35    1
    54    78    76   ar
    55    67    64    1
    56    31    33   ar
    57    30    32   ar
    58    35    34    1
    59    35    38    1
    60    77    76   ar
    61    34    40    1
    62    76    75    1
    63    33    32   ar
    64    64    63    1
    65    64    65    1
    66    61    60   ar
    67    63    56   am
    68    40    39    1
    69    38    39    1
    70    65    66    2
    71    65    71   am
    72    75    72    1
    73    58    55    1
    74    58    59    1
    75    71    72    1
    76    60    59    1
    77    60    62   ar
    78    56    55    1
    79    56    57    2
    80    54    55    1
    81    72    73    1
    82   101    99    1
    83   100    99    1
    84    73    83   am
    85    73    74    2
    86   105   104    2
    87    99    96    1
    88   104   103    1
    89    83    84    1
    90    86    85    2
    91    96    97    1
    92    96    95    1
    93   108   107    2
    94   102   103    1
    95   102    97   am
    96   103   106    1
    97    84    85    1
    98    97    98    2
    99    85    87   am
   100    95    89   am
   101   107   106    1
   102   107   109   am
   103    87    88    1
   104    89    88    1
   105    89    90    2
   106    88    91    1
   107    91    92    1
   108    92    94    1
   109    92    93    1
