@<TRIPOS>MOLECULE
tmp/5iz8A01.pdb
 89 91 0 0 0
SMALL
GASTEIGER

@<TRIPOS>ATOM
      1  N         44.3890  110.7340  318.9850 N.3     1  HIS1       -0.1226
      2  CA        44.2820  109.8110  317.8110 C.3     1  HIS1        0.1752
      3  C         42.9740  109.0070  317.8350 C.2     1  HIS1        0.2596
      4  O         41.9910  109.4330  317.2370 O.2     1  HIS1       -0.2718
      5  CB        45.4870  108.8440  317.7060 C.3     1  HIS1        0.0759
      6  CG        46.7530  109.4640  317.2060 C.ar    1  HIS1        0.0818
      7  ND1       47.6540  108.7440  316.4570 N.ar    1  HIS1       -0.2268
      8  CD2       47.2830  110.7060  317.3410 C.ar    1  HIS1        0.1154
      9  CE1       48.6880  109.5050  316.1540 C.ar    1  HIS1        0.1986
     10  NE2       48.4880  110.7030  316.6750 N.ar    1  HIS1       -0.2212
     11  N         42.9770  107.8720  318.5500 N.am    2  HIS2       -0.1961
     12  CA        41.9610  106.8130  318.4110 C.3     2  HIS2        0.1787
     13  C         40.5980  107.2660  318.9090 C.2     2  HIS2        0.2620
     14  O         40.4980  107.8370  319.9890 O.2     2  HIS2       -0.2715
     15  CB        42.3900  105.5360  319.1580 C.3     2  HIS2        0.0785
     16  CG        43.3430  104.6800  318.3870 C.ar    2  HIS2        0.0821
     17  ND1       44.7100  104.7340  318.5690 N.ar    2  HIS2       -0.2267
     18  CD2       43.1280  103.7590  317.4170 C.ar    2  HIS2        0.1154
     19  CE1       45.2950  103.8800  317.7480 C.ar    2  HIS2        0.1986
     20  NE2       44.3570  103.2750  317.0390 N.ar    2  HIS2       -0.2212
     21  N         39.5470  107.0200  318.1320 N.am    3  HIS3       -0.1959
     22  CA        38.2350  107.5760  318.4960 C.3     3  HIS3        0.1787
     23  C         37.4490  106.9520  319.6370 C.2     3  HIS3        0.2620
     24  O         36.5210  107.5920  320.1490 O.2     3  HIS3       -0.2715
     25  CB        37.3370  107.5750  317.2900 C.3     3  HIS3        0.0785
     26  CG        37.8460  108.4450  316.2040 C.ar    3  HIS3        0.0821
     27  ND1       38.6250  107.9710  315.1740 N.ar    3  HIS3       -0.2267
     28  CD2       37.7340  109.7760  316.0190 C.ar    3  HIS3        0.1154
     29  CE1       38.9420  108.9730  314.3800 C.ar    3  HIS3        0.1986
     30  NE2       38.4200  110.0790  314.8760 N.ar    3  HIS3       -0.2212
     31  N         37.8080  105.7340  320.0310 N.am    4  HIS4       -0.1959
     32  CA        36.9730  104.8970  320.9100 C.3     4  HIS4        0.1787
     33  C         35.4310  105.0930  320.7640 C.2     4  HIS4        0.2620
     34  O         34.7100  105.4250  321.7190 O.2     4  HIS4       -0.2715
     35  CB        37.4530  105.0850  322.3460 C.3     4  HIS4        0.0785
     36  CG        38.9420  104.9300  322.4860 C.ar    4  HIS4        0.0821
     37  ND1       39.7520  105.8870  323.0630 N.ar    4  HIS4       -0.2267
     38  CD2       39.7690  103.9520  322.0520 C.ar    4  HIS4        0.1154
     39  CE1       41.0090  105.4910  323.0030 C.ar    4  HIS4        0.1986
     40  NE2       41.0470  104.3230  322.3890 N.ar    4  HIS4       -0.2212
     41  N         34.9560  104.9490  319.5230 N.am    5  HIS5       -0.1959
     42  CA        33.5360  105.1330  319.1560 C.3     5  HIS5        0.1787
     43  C         32.5970  104.2860  319.9750 C.2     5  HIS5        0.2620
     44  O         31.4740  104.6950  320.3220 O.2     5  HIS5       -0.2715
     45  CB        33.3180  104.6980  317.7040 C.3     5  HIS5        0.0785
     46  CG        33.8860  105.6200  316.6870 C.ar    5  HIS5        0.0821
     47  ND1       33.6040  106.9650  316.6660 N.ar    5  HIS5       -0.2267
     48  CD2       34.6740  105.3780  315.6140 C.ar    5  HIS5        0.1154
     49  CE1       34.2160  107.5190  315.6370 C.ar    5  HIS5        0.1986
     50  NE2       34.8670  106.5770  314.9790 N.ar    5  HIS5       -0.2212
     51  N         33.0440  103.0690  320.2190 N.am    6  MET6       -0.1963
     52  CA        32.2310  102.0770  320.8610 C.3     6  MET6        0.1736
     53  C         32.2000  102.3160  322.3370 C.2     6  MET6        0.2616
     54  O         31.1330  102.2410  322.9540 O.2     6  MET6       -0.2715
     55  CB        32.8000  100.7080  320.5930 C.3     6  MET6        0.0427
     56  CG        31.8670   99.6040  321.0350 C.3     6  MET6        0.0599
     57  SD        31.5930   98.4890  319.6580 S.3     6  MET6       -0.1393
     58  CE        33.0440   97.4850  319.9210 C.3     6  MET6        0.0692
     59  N         33.3690  102.6140  322.8900 N.am    7  LEU7       -0.1977
     60  CA        33.4560  103.0160  324.2720 C.3     7  LEU7        0.1596
     61  C         32.5190  104.1800  324.5730 C.2     7  LEU7        0.2287
     62  O         31.8110  104.1360  325.5550 O.2     7  LEU7       -0.2864
     63  CB        34.8880  103.4020  324.6560 C.3     7  LEU7        0.0297
     64  CG        35.0940  103.8040  326.1260 C.3     7  LEU7        0.0022
     65  CD1       34.4980  102.7690  327.0900 C.3     7  LEU7        0.0001
     66  CD2       36.5780  104.0110  326.3660 C.3     7  LEU7        0.0001
     67  N         33.4990   93.3120  315.8810 N.3    62  HIS62      -0.1241
     68  CA        32.9080   94.2680  316.7740 C.3    62  HIS62       0.1621
     69  C         32.4560   93.6300  318.0500 C.2    62  HIS62       0.2264
     70  O         32.6340   94.2010  319.1120 O.2    62  HIS62      -0.2867
     71  CB        31.7220   94.9390  316.1020 C.3    62  HIS62       0.0745
     72  CG        32.0950   95.8100  314.9390 C.ar   62  HIS62       0.0817
     73  ND1       33.2770   96.5220  314.8760 N.ar   62  HIS62      -0.2268
     74  CD2       31.4280   96.1000  313.8030 C.ar   62  HIS62       0.1154
     75  CE1       33.3160   97.2130  313.7570 C.ar   62  HIS62       0.1986
     76  NE2       32.2080   96.9690  313.0880 N.ar   62  HIS62      -0.2212
     77  N         35.3190   93.2790  320.3550 N.3    65  ALA65      -0.1245
     78  CA        35.6460   94.5740  320.9310 C.3    65  ALA65       0.1562
     79  C         34.6720   95.0060  322.0360 C.2    65  ALA65       0.2260
     80  O         35.1070   95.5220  323.0640 O.2    65  ALA65      -0.2867
     81  CB        35.7120   95.6150  319.8300 C.3    65  ALA65       0.0290
     82  N         35.0180   95.6340  326.3190 N.3    69  LEU69      -0.1245
     83  CA        34.4120   96.7870  326.9890 C.3    69  LEU69       0.1561
     84  C         33.1880   96.4900  327.8900 C.2    69  LEU69       0.2260
     85  O         32.5730   97.4260  328.4090 O.2    69  LEU69      -0.2867
     86  CB        34.0430   97.8340  325.9270 C.3    69  LEU69       0.0270
     87  CG        35.2120   98.2810  325.0360 C.3    69  LEU69       0.0019
     88  CD1       34.7700   99.2300  323.9340 C.3    69  LEU69       0.0001
     89  CD2       36.3240   98.9270  325.8430 C.3    69  LEU69       0.0001
@<TRIPOS>BOND
     1    76    75   ar
     2    76    74   ar
     3    75    73   ar
     4    74    72   ar
     5    29    30   ar
     6    29    27   ar
     7    73    72   ar
     8    30    28   ar
     9    72    71    1
    10    50    48   ar
    11    50    49   ar
    12    27    26   ar
    13    48    46   ar
    14    49    47   ar
    15    67    68    1
    16    28    26   ar
    17    71    68    1
    18     9     7   ar
    19     9    10   ar
    20    26    25    1
    21     7     6   ar
    22    47    46   ar
    23    10     8   ar
    24    46    45    1
    25    68    69    1
    26    20    18   ar
    27    20    19   ar
    28     6     8   ar
    29     6     5    1
    30     4     3    2
    31    25    22    1
    32    18    16   ar
    33    45    42    1
    34     5     2    1
    35    19    17   ar
    36     2     3    1
    37     2     1    1
    38     3    11   am
    39    69    70    2
    40    21    22    1
    41    21    13   am
    42    16    17   ar
    43    16    15    1
    44    12    11    1
    45    12    13    1
    46    12    15    1
    47    22    23    1
    48    13    14    2
    49    42    41    1
    50    42    43    1
    51    41    33   am
    52    23    31   am
    53    23    24    2
    54    57    58    1
    55    57    56    1
    56    81    78    1
    57    43    51   am
    58    43    44    2
    59    31    32    1
    60    51    52    1
    61    77    78    1
    62    55    52    1
    63    55    56    1
    64    33    32    1
    65    33    34    2
    66    52    53    1
    67    32    35    1
    68    78    79    1
    69    79    80    2
    70    38    40   ar
    71    38    36   ar
    72    53    59   am
    73    53    54    2
    74    35    36    1
    75    40    39   ar
    76    36    37   ar
    77    59    60    1
    78    39    37   ar
    79    88    87    1
    80    60    61    1
    81    60    63    1
    82    61    62    2
    83    63    64    1
    84    87    89    1
    85    87    86    1
    86    86    83    1
    87    64    66    1
    88    64    65    1
    89    82    83    1
    90    83    84    1
    91    84    85    2
