@<TRIPOS>MOLECULE
tmp/5izaA00.pdb
 194 184 0 0 0
SMALL
GASTEIGER

@<TRIPOS>ATOM
      1  N        -19.3120  -16.0820   26.5100 N.3    56  PHE56      -0.1241
      2  CA       -19.4160  -16.8370   25.2640 C.3    56  PHE56       0.1605
      3  C        -20.8240  -16.8720   24.6840 C.2    56  PHE56       0.2264
      4  O        -20.9690  -17.0650   23.4750 O.2    56  PHE56      -0.2867
      5  CB       -18.9190  -18.2720   25.4560 C.3    56  PHE56       0.0534
      6  CG       -17.4240  -18.3750   25.4900 C.ar   56  PHE56      -0.0203
      7  CD1      -16.7000  -18.4430   24.3020 C.ar   56  PHE56      -0.0042
      8  CD2      -16.7290  -18.3540   26.6950 C.ar   56  PHE56      -0.0042
      9  CE1      -15.3060  -18.5110   24.3270 C.ar   56  PHE56      -0.0003
     10  CE2      -15.3460  -18.4250   26.7280 C.ar   56  PHE56      -0.0003
     11  CZ       -14.6230  -18.4950   25.5410 C.ar   56  PHE56      -0.0000
     12  N        -24.1560  -11.9440   27.1130 N.3    61  ARG61      -0.1245
     13  CA       -23.5080  -10.6830   26.7440 C.3    61  ARG61       0.1563
     14  C        -24.4770   -9.5150   26.7370 C.2    61  ARG61       0.2260
     15  O        -24.1210   -8.4170   27.1660 O.2    61  ARG61      -0.2867
     16  CB       -22.8550  -10.7680   25.3700 C.3    61  ARG61       0.0307
     17  CG       -21.6860  -11.7050   25.3150 C.3    61  ARG61       0.0489
     18  CD       -20.7720  -11.4440   24.1270 C.3    61  ARG61       0.2205
     19  NE       -21.3030  -11.8600   22.8290 N.pl3  61  ARG61      -0.0865
     20  CZ       -21.2290  -13.0930   22.3060 C.cat  61  ARG61       0.5346
     21  NH1      -21.7170  -13.3170   21.0930 N.pl3  61  ARG61       0.1354
     22  NH2      -20.7040  -14.1090   22.9800 N.pl3  61  ARG61       0.1354
     23  N         -5.7680  -12.8600   32.0100 N.3    97  ARG97      -0.1245
     24  CA        -6.1980  -13.7120   30.8970 C.3    97  ARG97       0.1563
     25  C         -7.7250  -13.8040   30.8350 C.2    97  ARG97       0.2260
     26  O         -8.3090  -13.6110   29.7740 O.2    97  ARG97      -0.2867
     27  CB        -5.5610  -15.1150   30.9620 C.3    97  ARG97       0.0307
     28  CG        -4.0810  -15.1430   30.5660 C.3    97  ARG97       0.0489
     29  CD        -3.4680  -16.5480   30.6490 C.3    97  ARG97       0.2205
     30  NE        -4.3760  -17.5380   30.0950 N.pl3  97  ARG97      -0.0865
     31  CZ        -5.1040  -18.4340   30.7810 C.cat  97  ARG97       0.5346
     32  NH1       -5.0190  -18.5720   32.1080 N.pl3  97  ARG97       0.1354
     33  NH2       -5.9090  -19.2380   30.1020 N.pl3  97  ARG97       0.1354
     34  N        -10.0950  -12.3410   27.8860 N.3   101  MET101     -0.1245
     35  CA       -10.9830  -13.2430   27.1580 C.3   101  MET101      0.1570
     36  C        -12.4140  -12.7090   27.1570 C.2   101  MET101      0.2261
     37  O        -13.0760  -12.7320   26.1340 O.2   101  MET101     -0.2867
     38  CB       -10.9190  -14.6410   27.7770 C.3   101  MET101      0.0387
     39  CG        -9.6170  -15.3690   27.4760 C.3   101  MET101      0.0595
     40  SD        -9.3000  -16.7910   28.5470 S.3   101  MET101     -0.1393
     41  CE       -10.3720  -17.9830   27.7430 C.3   101  MET101      0.0692
     42  N        -12.5460   -9.8200   24.7830 N.3   104  THR104     -0.1203
     43  CA       -12.5990  -10.3460   23.4200 C.3   104  THR104      0.1994
     44  C        -14.0310  -10.7350   23.0360 C.2   104  THR104      0.2617
     45  O        -14.5090  -10.3320   21.9630 O.2   104  THR104     -0.2717
     46  CB       -11.6320  -11.5310   23.2650 C.3   104  THR104      0.1784
     47  OG1      -10.2950  -11.0780   23.5710 O.3   104  THR104     -0.2211
     48  CG2      -11.6320  -12.0900   21.8680 C.3   104  THR104      0.0376
     49  N        -14.7020  -11.4950   23.9060 N.am  105  ASN105     -0.1974
     50  CA       -16.0740  -11.9360   23.6200 C.3   105  ASN105      0.1688
     51  C        -17.0390  -10.7620   23.5580 C.2   105  ASN105      0.2292
     52  O        -17.8920  -10.7010   22.6790 O.2   105  ASN105     -0.2864
     53  CB       -16.5210  -12.9680   24.6470 C.3   105  ASN105      0.1181
     54  CG       -15.8640  -14.3090   24.4400 C.2   105  ASN105      0.2629
     55  OD1      -15.3400  -14.5950   23.3510 O.2   105  ASN105     -0.2716
     56  ND2      -15.8630  -15.1280   25.4740 N.am  105  ASN105     -0.0877
     57  N        -16.7020   -8.8170   20.2070 N.3   108  PHE108     -0.1227
     58  CA       -16.9660   -9.5850   18.9930 C.3   108  PHE108      0.1736
     59  C        -18.2980   -9.1700   18.3840 C.2   108  PHE108      0.2596
     60  O        -19.3380   -9.2250   19.0420 O.2   108  PHE108     -0.2718
     61  CB       -16.9730  -11.0830   19.3080 C.3   108  PHE108      0.0547
     62  CG       -17.2850  -11.9340   18.1280 C.ar  108  PHE108     -0.0202
     63  CD1      -16.3040  -12.2720   17.2110 C.ar  108  PHE108     -0.0042
     64  CD2      -18.5910  -12.3760   17.9110 C.ar  108  PHE108     -0.0042
     65  CE1      -16.5980  -13.0410   16.1120 C.ar  108  PHE108     -0.0003
     66  CE2      -18.8940  -13.1560   16.8150 C.ar  108  PHE108     -0.0003
     67  CZ       -17.8970  -13.4830   15.9000 C.ar  108  PHE108     -0.0000
     68  N        -18.2530   -8.7010   17.1450 N.am  109  GLY109     -0.1957
     69  CA       -19.4390   -8.3460   16.4110 C.3   109  GLY109      0.1869
     70  C        -20.2300   -7.1710   16.9530 C.2   109  GLY109      0.2309
     71  O        -21.3530   -6.9520   16.5080 O.2   109  GLY109     -0.2863
     72  N        -16.7540   -2.1000   20.8200 N.3   114  LYS114     -0.1245
     73  CA       -15.4150   -1.8020   20.3350 C.3   114  LYS114      0.1561
     74  C        -15.0600   -0.3260   20.5880 C.2   114  LYS114      0.2260
     75  O        -13.9790   -0.0180   21.0810 O.2   114  LYS114     -0.2867
     76  CB       -15.2640   -2.1190   18.8520 C.3   114  LYS114      0.0271
     77  CG       -15.3480   -3.5890   18.4610 C.3   114  LYS114      0.0035
     78  CD       -15.3390   -3.7010   16.9400 C.3   114  LYS114      0.0206
     79  CE       -15.9220   -4.9600   16.3820 C.3   114  LYS114      0.1093
     80  NZ       -15.1160   -6.1120   16.6520 N.3   114  LYS114     -0.1314
     81  N          0.7450  -16.8580   26.5910 N.3   137  ASP137     -0.1239
     82  CA        -0.7130  -17.0540   26.6470 C.3   137  ASP137      0.1674
     83  C         -1.4360  -15.7340   26.9120 C.2   137  ASP137      0.2266
     84  O         -2.4430  -15.4320   26.2880 O.2   137  ASP137     -0.2867
     85  CB        -1.0800  -18.1030   27.7120 C.3   137  ASP137      0.1410
     86  CG        -0.5250  -19.4850   27.3880 C.2   137  ASP137      0.3668
     87  OD1       -0.3830  -19.8230   26.2020 O.co2 137  ASP137     -0.2456
     88  OD2       -0.1930  -20.2340   28.3130 O.co2 137  ASP137     -0.2456
     89  N         -1.2510  -13.7320   23.6900 N.3   140  GLN140     -0.1231
     90  CA        -2.2980  -14.1690   22.7600 C.3   140  GLN140      0.1698
     91  C         -3.6440  -13.5430   23.1020 C.2   140  GLN140      0.2592
     92  O         -4.3540  -13.0950   22.2150 O.2   140  GLN140     -0.2718
     93  CB        -2.4180  -15.6830   22.7610 C.3   140  GLN140      0.0381
     94  CG        -3.3790  -16.2750   21.7480 C.3   140  GLN140      0.0905
     95  CD        -4.8730  -16.1850   22.0580 C.2   140  GLN140      0.2608
     96  OE1       -5.3170  -16.3890   23.1930 O.2   140  GLN140     -0.2717
     97  NE2       -5.6490  -15.8840   21.0490 N.am  140  GLN140     -0.0878
     98  N         -3.9860  -13.4960   24.3880 N.am  141  VAL141     -0.1980
     99  CA        -5.2670  -12.8980   24.8110 C.3   141  VAL141      0.1595
    100  C         -5.3210  -11.4170   24.4870 C.2   141  VAL141      0.2287
    101  O         -6.2950  -10.9380   23.9120 O.2   141  VAL141     -0.2864
    102  CB        -5.5040  -13.1380   26.3210 C.3   141  VAL141      0.0276
    103  CG1       -6.6720  -12.2890   26.8250 C.3   141  VAL141      0.0022
    104  CG2       -5.7900  -14.6170   26.5410 C.3   141  VAL141      0.0022
    105  N         -5.6480  -10.8480   20.8180 N.3   144  SER144     -0.1217
    106  CA        -7.0360  -11.1260   20.4470 C.3   144  SER144      0.1889
    107  C         -7.9990   -9.9680   20.7510 C.2   144  SER144      0.2288
    108  O         -8.9180   -9.7110   19.9820 O.2   144  SER144     -0.2866
    109  CB        -7.5100  -12.4290   21.0870 C.3   144  SER144      0.2089
    110  OG        -6.8150  -13.5320   20.5200 O.3   144  SER144     -0.2183
    111  N         -7.1280   -7.4330   18.0580 N.3   147  ARG147     -0.1231
    112  CA        -7.6760   -7.9140   16.7950 C.3   147  ARG147      0.1694
    113  C         -9.1470   -7.5090   16.6650 C.2   147  ARG147      0.2592
    114  O         -9.5550   -6.9620   15.6550 O.2   147  ARG147     -0.2718
    115  CB        -7.5150   -9.4070   16.6770 C.3   147  ARG147      0.0321
    116  CG        -8.1450  -10.0010   15.4250 C.3   147  ARG147      0.0489
    117  CD        -8.1640  -11.4990   15.5090 C.3   147  ARG147      0.2205
    118  NE        -8.7170  -12.1040   14.3090 N.pl3 147  ARG147     -0.0865
    119  CZ        -8.8330  -13.4230   14.1160 C.cat 147  ARG147      0.5346
    120  NH1       -8.4340  -14.2930   15.0320 N.pl3 147  ARG147      0.1354
    121  NH2       -9.3410  -13.8670   12.9830 N.pl3 147  ARG147      0.1354
    122  N         -9.9330   -7.7860   17.6920 N.am  148  ASN148     -0.1974
    123  CA       -11.3490   -7.4650   17.6310 C.3   148  ASN148      0.1688
    124  C        -11.5660   -5.9460   17.5850 C.2   148  ASN148      0.2292
    125  O        -12.4480   -5.4690   16.8580 O.2   148  ASN148     -0.2864
    126  CB       -12.1300   -8.1080   18.7660 C.3   148  ASN148      0.1181
    127  CG       -12.3440   -9.5850   18.5700 C.2   148  ASN148      0.2629
    128  OD1      -11.8110  -10.1950   17.6330 O.2   148  ASN148     -0.2716
    129  ND2      -13.1690  -10.1680   19.4180 N.am  148  ASN148     -0.0877
    130  N        -10.9470   -4.5590   14.0760 N.3   151  TRP151     -0.1227
    131  CA       -11.8700   -4.9720   13.0130 C.3   151  TRP151      0.1737
    132  C        -13.0740   -4.0510   12.9680 C.2   151  TRP151      0.2595
    133  O        -13.7880   -3.9200   13.9510 O.2   151  TRP151     -0.2718
    134  CB       -12.3590   -6.3910   13.2870 C.3   151  TRP151      0.0564
    135  CG       -13.2720   -6.8860   12.2570 C.ar  151  TRP151      0.0003
    136  CD1      -14.6030   -7.1760   12.3970 C.ar  151  TRP151      0.0946
    137  CD2      -12.9410   -7.1440   10.8870 C.ar  151  TRP151      0.0152
    138  NE1      -15.1030   -7.6190   11.2080 N.ar  151  TRP151     -0.2442
    139  CE2      -14.1100   -7.6190   10.2640 C.ar  151  TRP151      0.0810
    140  CE3      -11.7530   -7.0380   10.1340 C.ar  151  TRP151      0.0012
    141  CZ2      -14.1470   -7.9700    8.9010 C.ar  151  TRP151      0.0191
    142  CZ3      -11.7900   -7.3920    8.7630 C.ar  151  TRP151      0.0001
    143  CH2      -12.9800   -7.8670    8.1820 C.ar  151  TRP151      0.0015
    144  N        -13.3150   -3.4480   11.8120 N.am  152  ARG152     -0.1980
    145  CA       -14.3850   -2.4380   11.6510 C.3   152  ARG152      0.1597
    146  C        -14.2990   -1.2670   12.6290 C.2   152  ARG152      0.2287
    147  O        -15.3340   -0.7270   13.0700 O.2   152  ARG152     -0.2864
    148  CB       -15.7550   -3.1120   11.7000 C.3   152  ARG152      0.0334
    149  CG       -15.9020   -4.1600   10.6080 C.3   152  ARG152      0.0492
    150  CD       -17.3430   -4.6090   10.5110 C.3   152  ARG152      0.2205
    151  NE       -18.1590   -3.4590   10.1380 N.pl3 152  ARG152     -0.0865
    152  CZ       -19.3810   -3.1800   10.5800 C.cat 152  ARG152      0.5346
    153  NH1      -19.9780   -2.0710   10.1480 N.pl3 152  ARG152      0.1354
    154  NH2      -19.9980   -3.9750   11.4380 N.pl3 152  ARG152      0.1354
    155  N          0.1890  -20.2570   17.9790 N.3   181  SER181     -0.1217
    156  CA        -1.1460  -19.7460   18.2610 C.3   181  SER181      0.1889
    157  C         -1.1030  -18.2870   18.7270 C.2   181  SER181      0.2288
    158  O         -2.0210  -17.5100   18.4570 O.2   181  SER181     -0.2866
    159  CB        -1.8680  -20.6200   19.2840 C.3   181  SER181      0.2089
    160  OG        -1.0710  -20.8400   20.4250 O.3   181  SER181     -0.2183
    161  N         -2.6210  -14.7450   16.4850 N.3   185  SER185     -0.1217
    162  CA        -3.4120  -13.6180   17.0270 C.3   185  SER185      0.1889
    163  C         -2.7370  -12.2720   16.7820 C.2   185  SER185      0.2288
    164  O         -3.3950  -11.3070   16.3750 O.2   185  SER185     -0.2866
    165  CB        -3.7490  -13.8440   18.5120 C.3   185  SER185      0.2089
    166  OG        -4.6010  -14.9780   18.6200 O.3   185  SER185     -0.2183
    167  N         -2.9490  -11.4570   13.0480 N.3   188  SER188     -0.1217
    168  CA        -4.3240  -11.1180   12.6700 C.3   188  SER188      0.1889
    169  C         -4.6680   -9.6730   13.0930 C.2   188  SER188      0.2288
    170  O         -5.2910   -8.9180   12.3240 O.2   188  SER188     -0.2866
    171  CB        -5.3350  -12.0860   13.2770 C.3   188  SER188      0.2089
    172  OG        -5.1680  -13.3780   12.7570 O.3   188  SER188     -0.2183
    173  N         -2.8290   -7.4050   10.7000 N.3   191  TRP191     -0.1227
    174  CA        -3.4930   -7.3960    9.4160 C.3   191  TRP191      0.1737
    175  C         -4.6410   -6.3620    9.4240 C.2   191  TRP191      0.2595
    176  O         -4.7710   -5.5760    8.4980 O.2   191  TRP191     -0.2718
    177  CB        -4.0160   -8.8090    9.1240 C.3   191  TRP191      0.0564
    178  CG        -4.5410   -9.1100    7.7720 C.ar  191  TRP191      0.0003
    179  CD1       -4.7060   -8.2570    6.7230 C.ar  191  TRP191      0.0946
    180  CD2       -5.0100  -10.3820    7.3290 C.ar  191  TRP191      0.0152
    181  NE1       -5.2170   -8.9260    5.6390 N.ar  191  TRP191     -0.2442
    182  CE2       -5.4050  -10.2380    5.9800 C.ar  191  TRP191      0.0810
    183  CE3       -5.0820  -11.6430    7.9150 C.ar  191  TRP191      0.0012
    184  CZ2       -5.8860  -11.2980    5.2430 C.ar  191  TRP191      0.0191
    185  CZ3       -5.5520  -12.7070    7.1610 C.ar  191  TRP191      0.0001
    186  CH2       -5.9610  -12.5220    5.8440 C.ar  191  TRP191      0.0015
    187  N         -5.4350   -6.3520   10.4860 N.am  192  ASN192     -0.1974
    188  CA        -6.4840   -5.3460   10.5880 C.3   192  ASN192      0.1688
    189  C         -5.8820   -3.9310   10.6710 C.2   192  ASN192      0.2292
    190  O         -6.3080   -3.0150    9.9340 O.2   192  ASN192     -0.2864
    191  CB        -7.3440   -5.5990   11.8070 C.3   192  ASN192      0.1181
    192  CG        -8.2070   -6.8280   11.6740 C.2   192  ASN192      0.2629
    193  OD1       -8.4030   -7.3680   10.5690 O.2   192  ASN192     -0.2716
    194  ND2       -8.7460   -7.2870   12.8030 N.am  192  ASN192     -0.0877
@<TRIPOS>BOND
     1   184   186   ar
     2   184   182   ar
     3   181   182   ar
     4   181   179   ar
     5   186   185   ar
     6   182   180   ar
     7   179   178   ar
     8   185   183   ar
     9   180   178   ar
    10   180   183   ar
    11   178   177    1
    12   143   142   ar
    13   143   141   ar
    14   176   175    2
    15   142   140   ar
    16   141   139   ar
    17   177   174    1
    18   174   175    1
    19   174   173    1
    20   175   187   am
    21   190   189    2
    22   140   137   ar
    23   151   150    1
    24   151   152    2
    25   153   152    1
    26   139   137   ar
    27   139   138   ar
    28   187   188    1
    29   150   149    1
    30   193   192    2
    31   152   154    1
    32   188   189    1
    33   188   191    1
    34   149   148    1
    35   137   135   ar
    36   138   136   ar
    37   145   148    1
    38   145   144    1
    39   145   146    1
    40   192   191    1
    41   192   194   am
    42   144   132   am
    43   135   136   ar
    44   135   134    1
    45   170   169    2
    46   146   147    2
    47   168   167    1
    48   168   169    1
    49   168   171    1
    50   172   171    1
    51   132   131    1
    52   132   133    2
    53   121   119    1
    54   131   134    1
    55   131   130    1
    56   119   118    2
    57   119   120    1
    58   118   117    1
    59   116   117    1
    60   116   115    1
    61   114   113    2
    62    67    65   ar
    63    67    66   ar
    64    65    63   ar
    65   164   163    2
    66    79    80    1
    67    79    78    1
    68    69    70    1
    69    69    68    1
    70   161   162    1
    71    71    70    2
    72   113   112    1
    73   113   122   am
    74   115   112    1
    75   163   162    1
    76   112   111    1
    77    66    64   ar
    78   125   124    2
    79    78    77    1
    80   162   165    1
    81    68    59   am
    82    63    62   ar
    83   124   123    1
    84   123   122    1
    85   123   126    1
    86   128   127    2
    87    64    62   ar
    88   155   156    1
    89    62    61    1
    90   156   157    1
    91   156   159    1
    92    59    58    1
    93    59    60    2
    94   158   157    2
    95    77    76    1
    96   165   166    1
    97   127   126    1
    98   127   129   am
    99    76    73    1
   100    58    61    1
   101    58    57    1
   102   159   160    1
   103   108   107    2
   104    73    74    1
   105    73    72    1
   106   106   107    1
   107   106   105    1
   108   106   109    1
   109   110   109    1
   110    74    75    2
   111    97    95   am
   112    21    20    1
   113    94    95    1
   114    94    93    1
   115    48    46    1
   116    45    44    2
   117    95    96    2
   118    92    91    2
   119    20    19    2
   120    20    22    1
   121    52    51    2
   122    90    93    1
   123    90    91    1
   124    90    89    1
   125    19    18    1
   126    44    43    1
   127    44    49   am
   128    91    98   am
   129    46    43    1
   130    46    47    1
   131    55    54    2
   132    43    42    1
   133     4     3    2
   134    51    50    1
   135    50    49    1
   136    50    53    1
   137   101   100    2
   138    18    17    1
   139     7     9   ar
   140     7     6   ar
   141     9    11   ar
   142    98    99    1
   143    54    53    1
   144    54    56   am
   145   100    99    1
   146     3     2    1
   147    99   102    1
   148     2     5    1
   149     2     1    1
   150    17    16    1
   151    16    13    1
   152     5     6    1
   153     6     8   ar
   154    11    10   ar
   155    37    36    2
   156    87    86   ar
   157    84    83    2
   158   102   104    1
   159   102   103    1
   160    81    82    1
   161    82    83    1
   162    82    85    1
   163     8    10   ar
   164    14    13    1
   165    14    15    2
   166    13    12    1
   167    36    35    1
   168    35    38    1
   169    35    34    1
   170    86    85    1
   171    86    88   ar
   172    39    38    1
   173    39    40    1
   174    41    40    1
   175    26    25    2
   176    30    29    1
   177    30    31    2
   178    33    31    1
   179    28    29    1
   180    28    27    1
   181    31    32    1
   182    25    24    1
   183    24    27    1
   184    24    23    1
