@<TRIPOS>MOLECULE
tmp/5izcD01.pdb
 119 115 0 0 0
SMALL
GASTEIGER

@<TRIPOS>ATOM
      1  N        -31.6800  -12.5090   33.1770 N.3    13  ARG13      -0.1245
      2  CA       -30.2470  -12.5480   32.9400 C.3    13  ARG13       0.1563
      3  C        -29.5280  -11.2150   33.2960 C.2    13  ARG13       0.2260
      4  O        -29.6740  -10.6920   34.4040 O.2    13  ARG13      -0.2867
      5  CB       -30.0480  -12.9970   31.5010 C.3    13  ARG13       0.0307
      6  CG       -30.5510  -14.4090   31.2310 C.3    13  ARG13       0.0489
      7  CD       -30.7710  -14.7430   29.7680 C.3    13  ARG13       0.2205
      8  NE       -29.5740  -14.6380   28.8920 N.pl3  13  ARG13      -0.0865
      9  CZ       -28.6120  -15.5750   28.7310 C.cat  13  ARG13       0.5346
     10  NH1      -28.6510  -16.7280   29.4020 N.pl3  13  ARG13       0.1354
     11  NH2      -27.5900  -15.3510   27.8620 N.pl3  13  ARG13       0.1354
     12  N        -31.2090   -6.9710   23.5820 N.3    94  SER94      -0.1217
     13  CA       -30.3960   -7.4170   22.4440 C.3    94  SER94       0.1889
     14  C        -30.9330   -8.7010   21.8160 C.2    94  SER94       0.2288
     15  O        -31.2080   -9.6330   22.5520 O.2    94  SER94      -0.2866
     16  CB       -28.9630   -7.7010   22.9000 C.3    94  SER94       0.2089
     17  OG       -28.1760   -8.2680   21.8400 O.3    94  SER94      -0.2183
     18  N        -29.8260  -11.7220   19.2000 N.3    96  PHE96      -0.1241
     19  CA       -28.5700  -12.3590   18.9320 C.3    96  PHE96       0.1605
     20  C        -28.8120  -13.6680   18.2600 C.2    96  PHE96       0.2264
     21  O        -29.3110  -14.5660   18.8730 O.2    96  PHE96      -0.2867
     22  CB       -27.8260  -12.5590   20.2420 C.3    96  PHE96       0.0534
     23  CG       -26.5980  -13.3670   20.1230 C.ar   96  PHE96      -0.0203
     24  CD1      -25.4140  -12.7920   19.6950 C.ar   96  PHE96      -0.0042
     25  CD2      -26.5990  -14.7190   20.4920 C.ar   96  PHE96      -0.0042
     26  CE1      -24.2300  -13.5040   19.6220 C.ar   96  PHE96      -0.0003
     27  CE2      -25.4340  -15.4650   20.3810 C.ar   96  PHE96      -0.0003
     28  CZ       -24.2230  -14.8480   19.9580 C.ar   96  PHE96      -0.0000
     29  N        -19.8500   -5.3510   23.2960 N.3   141  ASP141     -0.1239
     30  CA       -19.4210   -6.6900   23.1390 C.3   141  ASP141      0.1674
     31  C        -17.8960   -6.6760   23.0880 C.2   141  ASP141      0.2266
     32  O        -17.3380   -6.0900   22.1710 O.2   141  ASP141     -0.2867
     33  CB       -19.9810   -7.2390   21.8670 C.3   141  ASP141      0.1410
     34  CG       -19.4030   -8.5590   21.5030 C.2   141  ASP141      0.3668
     35  OD1      -18.7370   -9.2550   22.3250 O.co2 141  ASP141     -0.2456
     36  OD2      -19.5770   -8.8890   20.3220 O.co2 141  ASP141     -0.2456
     37  N        -25.4440   -9.0400   13.6690 N.3   153  TYR153     -0.1241
     38  CA       -25.3010   -8.8140   15.0600 C.3   153  TYR153      0.1605
     39  C        -24.0890   -7.9220   15.3050 C.2   153  TYR153      0.2264
     40  O        -24.1200   -6.9600   16.1090 O.2   153  TYR153     -0.2867
     41  CB       -25.1590  -10.1650   15.8100 C.3   153  TYR153      0.0534
     42  CG       -24.7110   -9.9900   17.2190 C.ar  153  TYR153     -0.0201
     43  CD1      -25.6050   -9.5800   18.1860 C.ar  153  TYR153     -0.0009
     44  CD2      -23.4120  -10.2130   17.5870 C.ar  153  TYR153     -0.0009
     45  CE1      -25.2030   -9.3270   19.4740 C.ar  153  TYR153      0.0417
     46  CE2      -22.9830  -10.0070   18.8880 C.ar  153  TYR153      0.0417
     47  CZ       -23.9060   -9.5680   19.8280 C.ar  153  TYR153      0.1957
     48  OH       -23.5480   -9.3680   21.1420 O.3   153  TYR153     -0.2866
     49  N        -23.4950   -4.1880   17.0180 N.3   157  LYS157     -0.1245
     50  CA       -22.6850   -3.8560   18.1950 C.3   157  LYS157      0.1561
     51  C        -21.5810   -2.8810   17.8720 C.2   157  LYS157      0.2260
     52  O        -21.1560   -2.1150   18.7270 O.2   157  LYS157     -0.2867
     53  CB       -22.0870   -5.1220   18.7820 C.3   157  LYS157      0.0271
     54  CG       -23.0830   -6.0640   19.4150 C.3   157  LYS157      0.0035
     55  CD       -23.7720   -5.3510   20.6170 C.3   157  LYS157      0.0206
     56  CE       -24.4060   -6.2900   21.6000 C.3   157  LYS157      0.1093
     57  NZ       -25.2660   -5.5850   22.5580 N.3   157  LYS157     -0.1314
     58  N        -17.5920  -10.4290   27.6060 N.3   184  GLY184     -0.1210
     59  CA       -17.0610  -11.4170   26.6720 C.3   184  GLY184      0.1956
     60  C        -18.0560  -12.5460   26.6870 C.2   184  GLY184      0.2612
     61  O        -19.1260  -12.4470   26.0910 O.2   184  GLY184     -0.2717
     62  N        -17.7220  -13.5960   27.4210 N.am  185  VAL185     -0.1965
     63  CA       -18.6760  -14.6650   27.6700 C.3   185  VAL185      0.1727
     64  C        -19.2240  -14.4490   29.0880 C.2   185  VAL185      0.2617
     65  O        -18.5250  -14.5580   30.1090 O.2   185  VAL185     -0.2715
     66  CB       -18.1180  -16.1090   27.3920 C.3   185  VAL185      0.0290
     67  CG1      -17.6360  -16.2190   25.9750 C.3   185  VAL185      0.0023
     68  CG2      -16.9640  -16.4810   28.2700 C.3   185  VAL185      0.0023
     69  N        -20.4700  -14.0260   29.1270 N.am  186  SER186     -0.1936
     70  CA       -21.2380  -13.9590   30.3570 C.3   186  SER186      0.2055
     71  C        -22.2610  -15.1420   30.2690 C.2   186  SER186      0.2643
     72  O        -21.9460  -16.2370   29.7130 O.2   186  SER186     -0.2714
     73  CB       -21.8860  -12.5690   30.5180 C.3   186  SER186      0.2130
     74  OG       -22.4720  -12.3990   31.8090 O.3   186  SER186     -0.2179
     75  N        -23.4600  -14.9460   30.8090 N.am  187  LEU187     -0.1963
     76  CA       -24.4640  -16.0360   30.8660 C.3   187  LEU187      0.1728
     77  C        -24.7180  -16.5980   29.4870 C.2   187  LEU187      0.2616
     78  O        -25.1110  -15.8500   28.5780 O.2   187  LEU187     -0.2715
     79  CB       -25.7850  -15.5330   31.4360 C.3   187  LEU187      0.0311
     80  CG       -25.7310  -15.0070   32.8620 C.3   187  LEU187      0.0022
     81  CD1      -27.1490  -14.6610   33.2940 C.3   187  LEU187      0.0001
     82  CD2      -25.0610  -16.0260   33.7770 C.3   187  LEU187      0.0001
     83  N        -24.4630  -17.8910   29.3170 N.am  188  LEU188     -0.1964
     84  CA       -24.5140  -18.4960   27.9750 C.3   188  LEU188      0.1713
     85  C        -25.9630  -18.6850   27.5400 C.2   188  LEU188      0.2458
     86  O        -26.8300  -18.8170   28.4010 O.2   188  LEU188     -0.2730
     87  CB       -23.7070  -19.7940   27.9350 C.3   188  LEU188      0.0310
     88  CG       -22.2070  -19.4550   28.1030 C.3   188  LEU188      0.0022
     89  CD1      -21.5680  -20.1520   29.2950 C.3   188  LEU188      0.0001
     90  CD2      -21.4820  -19.7140   26.8030 C.3   188  LEU188      0.0001
     91  N        -26.2300  -18.6270   26.2110 N.am  189  PRO189     -0.2727
     92  CA       -27.6120  -18.8010   25.7310 C.3   189  PRO189      0.1402
     93  C        -28.2620  -20.0440   26.3310 C.2   189  PRO189      0.2269
     94  O        -27.6240  -21.1200   26.4020 O.2   189  PRO189     -0.2865
     95  CB       -27.4470  -18.9310   24.2100 C.3   189  PRO189      0.0296
     96  CG       -26.2350  -18.1090   23.9070 C.3   189  PRO189      0.0237
     97  CD       -25.3120  -18.2770   25.0980 C.3   189  PRO189      0.0939
     98  N        -27.9730  -23.1570   24.3410 N.3   192  MET192     -0.1245
     99  CA       -26.6920  -23.7910   24.0520 C.3   192  MET192      0.1570
    100  C        -26.5510  -25.0670   24.8880 C.2   192  MET192      0.2261
    101  O        -26.8830  -25.0440   26.0580 O.2   192  MET192     -0.2867
    102  CB       -25.5650  -22.7930   24.3580 C.3   192  MET192      0.0387
    103  CG       -24.2250  -23.0930   23.7140 C.3   192  MET192      0.0595
    104  SD       -22.9700  -21.9190   24.2780 S.3   192  MET192     -0.1393
    105  CE       -22.9830  -20.6650   22.9820 C.3   192  MET192      0.0692
    106  N        -16.5040  -22.6090   25.4660 N.3   200  TRP200     -0.1241
    107  CA       -16.3530  -21.1720   25.6690 C.3   200  TRP200      0.1605
    108  C        -15.7440  -20.8530   27.0010 C.2   200  TRP200      0.2264
    109  O        -14.7900  -20.0910   27.0740 O.2   200  TRP200     -0.2867
    110  CB       -17.6960  -20.4640   25.5300 C.3   200  TRP200      0.0550
    111  CG       -18.0730  -20.3440   24.1200 C.ar  200  TRP200      0.0003
    112  CD1      -18.9720  -21.1120   23.4300 C.ar  200  TRP200      0.0946
    113  CD2      -17.5340  -19.4250   23.1890 C.ar  200  TRP200      0.0152
    114  NE1      -19.0520  -20.6980   22.1240 N.ar  200  TRP200     -0.2442
    115  CE2      -18.1800  -19.6550   21.9500 C.ar  200  TRP200      0.0810
    116  CE3      -16.6030  -18.3940   23.2820 C.ar  200  TRP200      0.0012
    117  CZ2      -17.8980  -18.9070   20.8080 C.ar  200  TRP200      0.0191
    118  CZ3      -16.3210  -17.6380   22.1260 C.ar  200  TRP200      0.0001
    119  CH2      -16.9670  -17.9110   20.9120 C.ar  200  TRP200      0.0015
@<TRIPOS>BOND
     1    37    38    1
     2    38    39    1
     3    38    41    1
     4    39    40    2
     5    41    42    1
     6    49    50    1
     7    42    44   ar
     8    42    43   ar
     9    44    46   ar
    10    51    50    1
    11    51    52    2
    12    43    45   ar
    13    50    53    1
    14    20    21    2
    15    20    19    1
    16    53    54    1
    17    46    47   ar
    18    19    18    1
    19    19    22    1
    20    54    55    1
    21    45    47   ar
    22    26    24   ar
    23    26    28   ar
    24    24    23   ar
    25    47    48    1
    26    28    27   ar
    27    23    22    1
    28    23    25   ar
    29    36    34   ar
    30    27    25   ar
    31    55    56    1
    32   117   119   ar
    33   117   115   ar
    34   119   118   ar
    35    34    33    1
    36    34    35   ar
    37    56    57    1
    38    14    13    1
    39    14    15    2
    40    17    16    1
    41    33    30    1
    42   115   114   ar
    43   115   113   ar
    44   114   112   ar
    45   118   116   ar
    46    32    31    2
    47    13    16    1
    48    13    12    1
    49   105   104    1
    50    31    30    1
    51    30    29    1
    52   113   116   ar
    53   113   111   ar
    54   112   111   ar
    55   103   104    1
    56   103   102    1
    57    96    95    1
    58    96    97    1
    59    99    98    1
    60    99   102    1
    61    99   100    1
    62   111   110    1
    63    95    92    1
    64   100   101    2
    65    97    91    1
    66   106   107    1
    67   110   107    1
    68   107   108    1
    69    92    91    1
    70    92    93    1
    71    67    66    1
    72    61    60    2
    73    91    85   am
    74    93    94    2
    75    59    60    1
    76    59    58    1
    77    60    62   am
    78    90    88    1
    79   108   109    2
    80    66    63    1
    81    66    68    1
    82    62    63    1
    83    85    84    1
    84    85    86    2
    85    63    64    1
    86    11     9    1
    87    87    84    1
    88    87    88    1
    89    84    83    1
    90    88    89    1
    91    78    77    2
    92     9     8    2
    93     9    10    1
    94     8     7    1
    95    64    69   am
    96    64    65    2
    97    69    70    1
    98    83    77   am
    99    77    76    1
   100    72    71    2
   101     7     6    1
   102    71    70    1
   103    71    75   am
   104    70    73    1
   105    73    74    1
   106    75    76    1
   107    76    79    1
   108     6     5    1
   109    79    80    1
   110     5     2    1
   111    80    81    1
   112    80    82    1
   113     2     1    1
   114     2     3    1
   115     3     4    2
