@<TRIPOS>MOLECULE
tmp/5izdA00.pdb
 174 170 0 0 0
SMALL
GASTEIGER

@<TRIPOS>ATOM
      1  N          2.0520    2.9750    7.1690 N.3   145  LEU145     -0.1231
      2  CA         2.9960    3.7470    7.9530 C.3   145  LEU145      0.1693
      3  C          2.9520    3.1670    9.3530 C.2   145  LEU145      0.2593
      4  O          1.9200    3.2940   10.0570 O.2   145  LEU145     -0.2718
      5  CB         2.6550    5.2400    7.9690 C.3   145  LEU145      0.0284
      6  CG         2.6500    5.9310    6.6230 C.3   145  LEU145      0.0019
      7  CD1        1.9150    7.2570    6.7540 C.3   145  LEU145      0.0001
      8  CD2        4.0070    6.1280    6.0530 C.3   145  LEU145      0.0001
      9  N          4.0360    2.5100    9.7660 N.am  146  THR146     -0.1940
     10  CA         4.0290    1.7560   11.0330 C.3   146  THR146      0.2013
     11  C          4.8530    2.4470   12.1090 C.2   146  THR146      0.2484
     12  O          5.8560    3.1540   11.8010 O.2   146  THR146     -0.2729
     13  CB         4.4320    0.2590   10.8740 C.3   146  THR146      0.1807
     14  OG1        5.6730    0.1380   10.2000 O.3   146  THR146     -0.2208
     15  CG2        3.3800   -0.4390   10.0610 C.3   146  THR146      0.0379
     16  N          4.4180    2.2890   13.3780 N.am  147  PRO147     -0.2715
     17  CA         5.1780    2.8480   14.5070 C.3   147  PRO147      0.1536
     18  C          6.2960    1.9230   15.0730 C.2   147  PRO147      0.2598
     19  O          6.4940    0.7920   14.6110 O.2   147  PRO147     -0.2715
     20  CB         4.1020    3.0730   15.5370 C.3   147  PRO147      0.0310
     21  CG         3.2060    1.9120   15.3280 C.3   147  PRO147      0.0237
     22  CD         3.2230    1.5700   13.8560 C.3   147  PRO147      0.0939
     23  N          7.0270    2.4180   16.0590 N.am  148  TRP148     -0.1974
     24  CA         8.1690    1.6740   16.6090 C.3   148  TRP148      0.1640
     25  C          7.7590    0.7690   17.7690 C.2   148  TRP148      0.2290
     26  O          8.5380   -0.1560   18.1320 O.2   148  TRP148     -0.2864
     27  CB         9.3030    2.6280   17.0910 C.3   148  TRP148      0.0576
     28  CG         8.8020    3.7810   17.9340 C.ar  148  TRP148      0.0006
     29  CD1        8.5050    5.0280   17.4980 C.ar  148  TRP148      0.0946
     30  CD2        8.4650    3.7460   19.3210 C.ar  148  TRP148      0.0152
     31  NE1        8.0480    5.7950   18.5340 N.ar  148  TRP148     -0.2442
     32  CE2        7.9970    5.0150   19.6660 C.ar  148  TRP148      0.0810
     33  CE3        8.5530    2.7780   20.3040 C.ar  148  TRP148      0.0012
     34  CZ2        7.5790    5.3420   20.9890 C.ar  148  TRP148      0.0191
     35  CZ3        8.1130    3.0820   21.6040 C.ar  148  TRP148      0.0001
     36  CH2        7.6640    4.3650   21.9390 C.ar  148  TRP148      0.0015
     37  N          6.3820    1.9010    4.8230 N.3   172  LYS172     -0.1231
     38  CA         7.4370    2.7320    5.3740 C.3   172  LYS172      0.1678
     39  C          7.3460    2.6150    6.8930 C.2   172  LYS172      0.2434
     40  O          6.4130    3.1090    7.4840 O.2   172  LYS172     -0.2733
     41  CB         7.3820    4.1660    4.9180 C.3   172  LYS172      0.0284
     42  CG         8.4640    5.0550    5.4980 C.3   172  LYS172      0.0035
     43  CD         7.9190    5.9970    6.5440 C.3   172  LYS172      0.0206
     44  CE         8.9600    6.8050    7.2890 C.3   172  LYS172      0.1093
     45  NZ         9.5910    6.0200    8.3500 N.3   172  LYS172     -0.1314
     46  N          8.3090    1.9380    7.5050 N.am  173  PRO173     -0.2718
     47  CA         8.2730    1.7470    8.9350 C.3   173  PRO173      0.1535
     48  C          8.8840    2.9100    9.6860 C.2   173  PRO173      0.2599
     49  O          9.3890    3.8370    9.1300 O.2   173  PRO173     -0.2715
     50  CB         9.0880    0.5100    9.1200 C.3   173  PRO173      0.0310
     51  CG        10.1430    0.6360    8.0700 C.3   173  PRO173      0.0237
     52  CD         9.4540    1.2520    6.8970 C.3   173  PRO173      0.0939
     53  N          8.7840    2.8420   10.9860 N.am  174  SER174     -0.1936
     54  CA         9.3540    3.8650   11.8360 C.3   174  SER174      0.2055
     55  C         10.8630    3.8890   11.6240 C.2   174  SER174      0.2644
     56  O         11.5090    2.8210   11.4680 O.2   174  SER174     -0.2714
     57  CB         9.0680    3.5850   13.3060 C.3   174  SER174      0.2130
     58  OG         9.9740    4.2970   14.1180 O.3   174  SER174     -0.2179
     59  N         11.4470    5.0820   11.6960 N.am  175  SER175     -0.1935
     60  CA        12.9090    5.1800   11.6430 C.3   175  SER175      0.2055
     61  C         13.6150    4.5850   12.8570 C.2   175  SER175      0.2643
     62  O         14.8290    4.3360   12.7820 O.2   175  SER175     -0.2714
     63  CB        13.3540    6.6270   11.4820 C.3   175  SER175      0.2130
     64  OG        13.0380    7.0370   10.1790 O.3   175  SER175     -0.2179
     65  N         12.8900    4.3350   13.9450 N.am  176  ASP176     -0.1971
     66  CA        13.4900    3.6550   15.0770 C.3   176  ASP176      0.1709
     67  C         13.5720    2.1300   14.9340 C.2   176  ASP176      0.2293
     68  O         14.3050    1.5030   15.6980 O.2   176  ASP176     -0.2864
     69  CB        12.7380    3.9750   16.3680 C.3   176  ASP176      0.1436
     70  CG        12.8880    5.4120   16.7860 C.2   176  ASP176      0.3671
     71  OD1       13.9620    5.7500   17.3210 O.co2 176  ASP176     -0.2456
     72  OD2       11.9430    6.2010   16.5760 O.co2 176  ASP176     -0.2456
     73  N         13.2290    8.9900    6.9070 N.3   204  ARG204     -0.1231
     74  CA        12.5990    9.7910    7.9460 C.3   204  ARG204      0.1694
     75  C         11.2840   10.3910    7.4270 C.2   204  ARG204      0.2593
     76  O         11.2150   10.9190    6.2920 O.2   204  ARG204     -0.2718
     77  CB        13.5240   10.9020    8.4720 C.3   204  ARG204      0.0321
     78  CG        14.9280   10.4330    8.9190 C.3   204  ARG204      0.0489
     79  CD        15.6090   11.4690    9.7580 C.3   204  ARG204      0.2205
     80  NE        15.6470   12.7840    9.0860 N.pl3 204  ARG204     -0.0865
     81  CZ        16.4880   13.0840    8.0830 C.cat 204  ARG204      0.5346
     82  NH1       17.4420   12.3150    7.6150 N.pl3 204  ARG204      0.1354
     83  NH2       16.3460   14.3180    7.5710 N.pl3 204  ARG204      0.1354
     84  N         10.2430   10.2860    8.2570 N.am  205  GLY205     -0.1942
     85  CA         8.8870   10.7540    7.9040 C.3   205  GLY205      0.2014
     86  C          8.8870   12.2780    7.7260 C.2   205  GLY205      0.2639
     87  O          8.1580   12.8330    6.8620 O.2   205  GLY205     -0.2714
     88  N          9.7480   12.9380    8.4880 N.am  206  SER206     -0.1949
     89  CA         9.9410   14.3570    8.3640 C.3   206  SER206      0.1924
     90  C         10.4910   14.7130    6.9660 C.2   206  SER206      0.2314
     91  O         10.3570   15.8400    6.5190 O.2   206  SER206     -0.2863
     92  CB        10.8920   14.8330    9.4700 C.3   206  SER206      0.2116
     93  OG        12.2170   14.4150    9.2270 O.3   206  SER206     -0.2180
     94  N          7.6280   11.6150    4.4050 N.3   209  GLY209     -0.1210
     95  CA         6.3040   11.2720    4.8760 C.3   209  GLY209      0.1956
     96  C          5.2110   12.0650    4.2110 C.2   209  GLY209      0.2611
     97  O          4.2310   11.4770    3.6790 O.2   209  GLY209     -0.2717
     98  N          5.3700   13.3870    4.1950 N.am  210  ASP210     -0.1973
     99  CA         4.4030   14.2460    3.4720 C.3   210  ASP210      0.1709
    100  C          4.3010   13.8490    2.0320 C.2   210  ASP210      0.2293
    101  O          3.2040   13.7120    1.4990 O.2   210  ASP210     -0.2864
    102  CB         4.7560   15.7230    3.5310 C.3   210  ASP210      0.1436
    103  CG         4.4330   16.3570    4.8880 C.2   210  ASP210      0.3671
    104  OD1        3.7450   15.7680    5.7640 O.co2 210  ASP210     -0.2456
    105  OD2        4.8680   17.4750    5.0790 O.co2 210  ASP210     -0.2456
    106  N          2.3550   10.5410    1.4570 N.3   213  VAL213     -0.1245
    107  CA         0.9280   10.6170    1.7510 C.3   213  VAL213      0.1561
    108  C          0.1380   11.4600    0.7620 C.2   213  VAL213      0.2260
    109  O         -0.9790   11.0990    0.4580 O.2   213  VAL213     -0.2867
    110  CB         0.5970   11.0510    3.1780 C.3   213  VAL213      0.0252
    111  CG1        1.3100   10.1570    4.2000 C.3   213  VAL213      0.0019
    112  CG2        0.9330   12.4900    3.4210 C.3   213  VAL213      0.0019
    113  N         -2.2360    3.8480    9.0830 N.3   223  MET223     -0.1230
    114  CA        -1.1560    4.4510    9.9000 C.3   223  MET223      0.1702
    115  C         -1.4600    4.2960   11.3660 C.2   223  MET223      0.2593
    116  O         -2.6370    4.3780   11.7820 O.2   223  MET223     -0.2718
    117  CB        -0.9530    5.9390    9.5750 C.3   223  MET223      0.0401
    118  CG        -0.0300    6.6860   10.5060 C.3   223  MET223      0.0596
    119  SD        -0.8210    7.4450   11.9340 S.3   223  MET223     -0.1393
    120  CE         0.4730    8.4600   12.6620 C.3   223  MET223      0.0692
    121  N         -0.4070    4.0960   12.1500 N.am  224  THR224     -0.1939
    122  CA        -0.5360    4.0800   13.5910 C.3   224  THR224      0.2028
    123  C          0.6380    4.8890   14.1320 C.2   224  THR224      0.2643
    124  O          1.7170    4.7880   13.5860 O.2   224  THR224     -0.2714
    125  CB        -0.5920    2.6390   14.1290 C.3   224  THR224      0.1808
    126  OG1       -1.7700    1.9770   13.6510 O.3   224  THR224     -0.2208
    127  CG2       -0.5730    2.5820   15.6590 C.3   224  THR224      0.0379
    128  N          0.3950    5.7160   15.1370 N.am  225  GLY225     -0.1939
    129  CA         1.4050    6.5710   15.7710 C.3   225  GLY225      0.2014
    130  C          0.8450    7.7170   16.5790 C.2   225  GLY225      0.2639
    131  O         -0.2660    7.6010   17.1760 O.2   225  GLY225     -0.2714
    132  N          1.5250    8.8460   16.5480 N.am  226  SER226     -0.1949
    133  CA         1.1870    9.9450   17.4330 C.3   226  SER226      0.1924
    134  C          0.0610   10.8010   16.8650 C.2   226  SER226      0.2314
    135  O         -0.1840   10.8530   15.6790 O.2   226  SER226     -0.2863
    136  CB         2.4030   10.8610   17.6800 C.3   226  SER226      0.2116
    137  OG         2.6330   11.5720   16.4670 O.3   226  SER226     -0.2180
    138  N          0.9890   13.4650   14.0390 N.3   229  THR229     -0.1218
    139  CA         1.3780   12.9120   12.7530 C.3   229  THR229      0.1862
    140  C          0.1140   12.5150   12.0570 C.2   229  THR229      0.2287
    141  O         -0.0100   12.7250   10.8610 O.2   229  THR229     -0.2866
    142  CB         2.3040   11.7120   12.8890 C.3   229  THR229      0.1770
    143  OG1        3.4490   12.1090   13.6240 O.3   229  THR229     -0.2211
    144  CG2        2.7690   11.1760   11.5020 C.3   229  THR229      0.0375
    145  N         -1.4460   15.6670   10.7410 N.3   232  ARG232     -0.1231
    146  CA        -0.7090   16.0690    9.5510 C.3   232  ARG232      0.1694
    147  C         -1.0530   15.2120    8.3240 C.2   232  ARG232      0.2591
    148  O         -1.2620   15.7510    7.2390 O.2   232  ARG232     -0.2718
    149  CB         0.7920   16.0610    9.8250 C.3   232  ARG232      0.0321
    150  CG         1.6250   16.6370    8.7070 C.3   232  ARG232      0.0489
    151  CD         3.0240   17.0360    9.1490 C.3   232  ARG232      0.2205
    152  NE         3.7990   17.6230    8.0290 N.pl3 232  ARG232     -0.0865
    153  CZ         3.8110   18.9260    7.6690 C.cat 232  ARG232      0.5346
    154  NH1        3.0800   19.8460    8.3020 N.pl3 232  ARG232      0.1354
    155  NH2        4.5690   19.3490    6.6560 N.pl3 232  ARG232      0.1354
    156  N         -1.1310   13.9010    8.5060 N.am  233  ILE233     -0.1980
    157  CA        -1.4860   13.0220    7.4120 C.3   233  ILE233      0.1595
    158  C         -2.8880   13.3670    6.8700 C.2   233  ILE233      0.2287
    159  O         -3.1000   13.4300    5.6610 O.2   233  ILE233     -0.2864
    160  CB        -1.4340   11.5430    7.8490 C.3   233  ILE233      0.0276
    161  CG1        0.0020   11.1300    8.0230 C.3   233  ILE233      0.0022
    162  CG2       -2.1840   10.6330    6.8550 C.3   233  ILE233      0.0022
    163  CD1        0.1920    9.8920    8.8540 C.3   233  ILE233      0.0001
    164  N          2.9900    7.8490   27.4560 N.3   382  PHE382     -0.1241
    165  CA         3.6280    6.7860   26.6730 C.3   382  PHE382      0.1605
    166  C          4.9570    6.3300   27.3460 C.2   382  PHE382      0.2264
    167  O          5.9910    6.2510   26.6870 O.2   382  PHE382     -0.2867
    168  CB         3.8260    7.2650   25.1930 C.3   382  PHE382      0.0534
    169  CG         3.4510    6.2620   24.1480 C.ar  382  PHE382     -0.0203
    170  CD1        2.1400    5.8720   23.9640 C.ar  382  PHE382     -0.0042
    171  CD2        4.4270    5.7390   23.2740 C.ar  382  PHE382     -0.0042
    172  CE1        1.7770    4.9800   22.9440 C.ar  382  PHE382     -0.0003
    173  CE2        4.0800    4.8380   22.2700 C.ar  382  PHE382     -0.0003
    174  CZ         2.7490    4.4640   22.0930 C.ar  382  PHE382     -0.0000
@<TRIPOS>BOND
     1   109   108    2
     2   108   107    1
     3   106   107    1
     4   101   100    2
     5   107   110    1
     6   100    99    1
     7   110   112    1
     8   110   111    1
     9    99   102    1
    10    99    98    1
    11   102   103    1
    12    97    96    2
    13    98    96   am
    14    96    95    1
    15    94    95    1
    16    37    38    1
    17   103   105   ar
    18   103   104   ar
    19    41    38    1
    20    41    42    1
    21    38    39    1
    22    42    43    1
    23   159   158    2
    24     8     6    1
    25    76    75    2
    26    91    90    2
    27    43    44    1
    28     6     7    1
    29     6     5    1
    30   155   153    1
    31   162   160    1
    32    87    86    2
    33   158   157    1
    34    39    40    2
    35    39    46   am
    36    52    46    1
    37    52    51    1
    38    73    74    1
    39    90    89    1
    40     1     2    1
    41   148   147    2
    42    44    45    1
    43   157   160    1
    44   157   156    1
    45    75    74    1
    46    75    84   am
    47    46    47    1
    48    83    81    1
    49    82    81    1
    50   153   152    2
    51   153   154    1
    52    86    85    1
    53    86    88   am
    54   160   161    1
    55    85    84    1
    56    74    77    1
    57     2     5    1
    58     2     3    1
    59   161   163    1
    60   152   151    1
    61    51    50    1
    62    81    80    2
    63   147   156   am
    64   147   146    1
    65    89    88    1
    66    89    92    1
    67    77    78    1
    68   150   151    1
    69   150   149    1
    70    78    79    1
    71    47    50    1
    72    47    48    1
    73   113   114    1
    74    80    79    1
    75    49    48    2
    76    93    92    1
    77     3     9   am
    78     3     4    2
    79   146   149    1
    80   146   145    1
    81   117   114    1
    82   117   118    1
    83    48    53   am
    84     9    10    1
    85   114   115    1
    86    15    13    1
    87    64    63    1
    88    14    13    1
    89   118   119    1
    90   141   140    2
    91    13    10    1
    92    53    54    1
    93    10    11    1
    94   115   116    2
    95   115   121   am
    96    56    55    2
    97    63    60    1
    98   144   142    1
    99    55    59   am
   100    55    54    1
   101    60    59    1
   102    60    61    1
   103    12    11    2
   104    54    57    1
   105   119   120    1
   106   140   139    1
   107    11    16   am
   108   121   122    1
   109   139   142    1
   110   139   138    1
   111    62    61    2
   112    61    65   am
   113   142   143    1
   114    57    58    1
   115    16    22    1
   116    16    17    1
   117   124   123    2
   118   122   125    1
   119   122   123    1
   120   126   125    1
   121    22    21    1
   122    65    66    1
   123   125   127    1
   124   123   128   am
   125    17    18    1
   126    17    20    1
   127    19    18    2
   128    67    66    1
   129    67    68    2
   130    18    23   am
   131    66    69    1
   132   128   129    1
   133    21    20    1
   134   135   134    2
   135   129   130    1
   136    23    24    1
   137    69    70    1
   138   137   136    1
   139   132   130   am
   140   132   133    1
   141    72    70   ar
   142   130   131    2
   143    24    27    1
   144    24    25    1
   145    70    71   ar
   146   134   133    1
   147    27    28    1
   148   133   136    1
   149    29    28   ar
   150    29    31   ar
   151    25    26    2
   152    28    30   ar
   153    31    32   ar
   154    30    32   ar
   155    30    33   ar
   156    32    34   ar
   157    33    35   ar
   158    34    36   ar
   159    35    36   ar
   160   174   173   ar
   161   174   172   ar
   162   173   171   ar
   163   172   170   ar
   164   171   169   ar
   165   170   169   ar
   166   169   168    1
   167   168   165    1
   168   165   166    1
   169   165   164    1
   170   167   166    2
