@<TRIPOS>MOLECULE
tmp/5izjB00.pdb
 142 136 0 0 0
SMALL
GASTEIGER

@<TRIPOS>ATOM
      1  N         36.6030   10.5590  105.1430 N.3    36  LEU36      -0.1231
      2  CA        35.1420   10.4520  105.2700 C.3    36  LEU36       0.1693
      3  C         34.4310   10.0650  103.9700 C.2    36  LEU36       0.2593
      4  O         33.3040    9.5620  103.9970 O.2    36  LEU36      -0.2718
      5  CB        34.5520   11.7580  105.8190 C.3    36  LEU36       0.0284
      6  CG        34.9600   12.2390  107.2170 C.3    36  LEU36       0.0019
      7  CD1       34.3620   13.6130  107.4830 C.3    36  LEU36       0.0001
      8  CD2       34.5490   11.2420  108.3020 C.3    36  LEU36       0.0001
      9  N         35.0890   10.3110  102.8400 N.am   37  GLY37      -0.1942
     10  CA        34.5600    9.9560  101.5250 C.3    37  GLY37       0.2014
     11  C         35.5480   10.2580  100.4180 C.2    37  GLY37       0.2640
     12  O         36.4380   11.0930  100.5820 O.2    37  GLY37      -0.2714
     13  N         35.3830    9.5760   99.2890 N.am   38  THR38      -0.1936
     14  CA        36.2970    9.7130   98.1530 C.3    38  THR38       0.2028
     15  C         35.5340    9.8050   96.8280 C.2    38  THR38       0.2643
     16  O         34.5260    9.1220   96.6370 O.2    38  THR38      -0.2714
     17  CB        37.3880    8.5990   98.1500 C.3    38  THR38       0.1808
     18  OG1       38.3240    8.8310   97.0880 O.3    38  THR38      -0.2208
     19  CG2       36.7850    7.1880   98.0100 C.3    38  THR38       0.0379
     20  N         36.0050   10.6760   95.9390 N.am   39  GLY39      -0.1939
     21  CA        35.4130   10.8450   94.6120 C.3    39  GLY39       0.2014
     22  C         36.4180   10.6060   93.5060 C.2    39  GLY39       0.2640
     23  O         37.5340   10.1370   93.7620 O.2    39  GLY39      -0.2714
     24  N         36.0280   10.9380   92.2760 N.am   40  SER40      -0.1935
     25  CA        36.8930   10.7560   91.1030 C.3    40  SER40       0.2055
     26  C         38.0540   11.7560   91.0270 C.2    40  SER40       0.2643
     27  O         39.1220   11.4200   90.5100 O.2    40  SER40      -0.2714
     28  CB        36.0760   10.7700   89.8060 C.3    40  SER40       0.2130
     29  OG        35.2860   11.9430   89.7100 O.3    40  SER40      -0.2179
     30  N         37.8500   12.9720   91.5380 N.am   41  PHE41      -0.1959
     31  CA        38.9040   13.9960   91.5360 C.3    41  PHE41       0.1774
     32  C         39.1680   14.6470   92.9040 C.2    41  PHE41       0.2659
     33  O         39.7660   15.7210   92.9830 O.2    41  PHE41      -0.2711
     34  CB        38.6800   15.0440   90.4230 C.3    41  PHE41       0.0574
     35  CG        37.3680   15.7790   90.5060 C.ar   41  PHE41      -0.0200
     36  CD1       37.2370   16.9250   91.2910 C.ar   41  PHE41      -0.0042
     37  CD2       36.2660   15.3460   89.7650 C.ar   41  PHE41      -0.0042
     38  CE1       36.0330   17.6160   91.3500 C.ar   41  PHE41      -0.0003
     39  CE2       35.0570   16.0280   89.8250 C.ar   41  PHE41      -0.0003
     40  CZ        34.9430   17.1640   90.6160 C.ar   41  PHE41      -0.0000
     41  N         38.7460   13.9710   93.9720 N.am   42  GLY42      -0.1716
     42  CA        38.9480   14.4730   95.3310 C.2    42  GLY42       0.1480
     43  C         38.5350   13.5470   96.4590 C.2    42  GLY42       0.2820
     44  O         38.0890   12.4200   96.2280 O.2    42  GLY42      -0.2669
     45  N         38.6970   14.0410   97.6870 N.am   43  ARG43      -0.1929
     46  CA        38.3260   13.3160   98.9050 C.3    43  ARG43       0.1732
     47  C         37.9380   14.2860  100.0210 C.2    43  ARG43       0.2616
     48  O         38.2980   15.4670   99.9760 O.2    43  ARG43      -0.2715
     49  CB        39.4570   12.3740   99.3630 C.3    43  ARG43       0.0348
     50  CG        40.7840   13.0530   99.6780 C.3    43  ARG43       0.0492
     51  CD        41.8880   12.0430   99.9600 C.3    43  ARG43       0.2205
     52  NE        43.2090   12.6810   99.9870 N.pl3  43  ARG43      -0.0865
     53  CZ        43.9790   12.8950   98.9180 C.cat  43  ARG43       0.5346
     54  NH1       43.5820   12.5240   97.7040 N.pl3  43  ARG43       0.1354
     55  NH2       45.1560   13.4860   99.0620 N.pl3  43  ARG43       0.1354
     56  N         37.1940   13.7850  101.0040 N.am   44  VAL44      -0.1977
     57  CA        36.8580   14.5570  102.2040 C.3    44  VAL44       0.1596
     58  C         37.5080   13.8950  103.4170 C.2    44  VAL44       0.2287
     59  O         37.3180   12.6960  103.6590 O.2    44  VAL44      -0.2864
     60  CB        35.3230   14.7310  102.3940 C.3    44  VAL44       0.0276
     61  CG1       34.9950   15.4730  103.6870 C.3    44  VAL44       0.0022
     62  CG2       34.7200   15.4870  101.2200 C.3    44  VAL44       0.0022
     63  N         35.4100   19.0490  108.2950 N.3    57  ALA57      -0.1245
     64  CA        35.4780   18.1990  107.1120 C.3    57  ALA57       0.1562
     65  C         36.1970   18.9700  106.0100 C.2    57  ALA57       0.2260
     66  O         35.6930   19.9870  105.5210 O.2    57  ALA57      -0.2867
     67  CB        34.0800   17.7900  106.6660 C.3    57  ALA57       0.0290
     68  N         37.4830   19.1200  102.3400 N.3    59  LYS59      -0.1245
     69  CA        37.3960   18.6500  100.9610 C.3    59  LYS59       0.1561
     70  C         38.6740   19.0160  100.2120 C.2    59  LYS59       0.2260
     71  O         39.0370   20.1940  100.1190 O.2    59  LYS59      -0.2867
     72  CB        36.1700   19.2520  100.2750 C.3    59  LYS59       0.0271
     73  CG        35.8090   18.6370   98.9340 C.3    59  LYS59       0.0035
     74  CD        34.3050   18.7470   98.7340 C.3    59  LYS59       0.0206
     75  CE        33.9140   18.7570   97.2720 C.3    59  LYS59       0.1093
     76  NZ        32.4300   18.8180   97.1440 N.3    59  LYS59      -0.1314
     77  N         40.5670   18.7560   96.6160 N.3    61  LEU61      -0.1245
     78  CA        40.3940   18.5440   95.1760 C.3    61  LEU61       0.1561
     79  C         41.7210   18.6170   94.4380 C.2    61  LEU61       0.2260
     80  O         42.4650   19.5860   94.5790 O.2    61  LEU61      -0.2867
     81  CB        39.4030   19.5510   94.5790 C.3    61  LEU61       0.0270
     82  CG        37.9930   19.6670   95.1710 C.3    61  LEU61       0.0019
     83  CD1       37.3060   20.8830   94.5820 C.3    61  LEU61       0.0001
     84  CD2       37.1550   18.4160   94.9350 C.3    61  LEU61       0.0001
     85  N         25.6930   23.9470  105.5890 N.3    91  VAL91      -0.1245
     86  CA        27.0450   23.6890  106.1000 C.3    91  VAL91       0.1561
     87  C         27.9520   24.8630  105.7020 C.2    91  VAL91       0.2260
     88  O         27.9900   25.2680  104.5390 O.2    91  VAL91      -0.2867
     89  CB        27.6080   22.2770  105.7370 C.3    91  VAL91       0.0252
     90  CG1       27.6680   22.0400  104.2400 C.3    91  VAL91       0.0019
     91  CG2       28.9830   22.0500  106.3490 C.3    91  VAL91       0.0019
     92  N         35.1020   22.7020  105.7080 N.3   107  MET107     -0.1230
     93  CA        33.6800   22.8510  106.0230 C.3   107  MET107      0.1702
     94  C         33.4090   22.4470  107.4680 C.2   107  MET107      0.2592
     95  O         34.1660   21.6590  108.0400 O.2   107  MET107     -0.2718
     96  CB        32.8240   21.9770  105.0970 C.3   107  MET107      0.0401
     97  CG        33.1820   22.0090  103.6090 C.3   107  MET107      0.0596
     98  SD        33.0390   23.6220  102.8110 S.3   107  MET107     -0.1393
     99  CE        31.2620   23.8690  102.7900 C.3   107  MET107      0.0692
    100  N         32.3310   22.9810  108.0510 N.am  108  GLU108     -0.1966
    101  CA        31.8490   22.5360  109.3680 C.3   108  GLU108      0.1733
    102  C         31.6530   21.0140  109.3430 C.2   108  GLU108      0.2616
    103  O         31.0610   20.4820  108.4030 O.2   108  GLU108     -0.2715
    104  CB        30.5440   23.2640  109.7480 C.3   108  GLU108      0.0429
    105  CG        29.9720   22.9050  111.1210 C.3   108  GLU108      0.1163
    106  CD        28.9500   23.9070  111.6430 C.2   108  GLU108      0.3649
    107  OE1       29.2480   25.1240  111.6790 O.co2 108  GLU108     -0.2457
    108  OE2       27.8370   23.4750  112.0220 O.co2 108  GLU108     -0.2457
    109  N         32.1940   20.3180  110.3420 N.am  109  TYR109     -0.1960
    110  CA        31.9990   18.8710  110.4510 C.3   109  TYR109      0.1771
    111  C         30.6400   18.5690  111.0720 C.2   109  TYR109      0.2619
    112  O         30.3080   19.0740  112.1460 O.2   109  TYR109     -0.2715
    113  CB        33.1300   18.1930  111.2380 C.3   109  TYR109      0.0574
    114  CG        32.9070   16.7160  111.5130 C.ar  109  TYR109     -0.0198
    115  CD1       32.8460   15.7820  110.4660 C.ar  109  TYR109     -0.0009
    116  CD2       32.7640   16.2490  112.8230 C.ar  109  TYR109     -0.0009
    117  CE1       32.6390   14.4300  110.7210 C.ar  109  TYR109      0.0417
    118  CE2       32.5710   14.9000  113.0880 C.ar  109  TYR109      0.0417
    119  CZ        32.5040   13.9980  112.0390 C.ar  109  TYR109      0.1957
    120  OH        32.3040   12.6650  112.3020 O.3   109  TYR109     -0.2866
    121  N         29.8550   17.7550  110.3740 N.am  110  VAL110     -0.1977
    122  CA        28.5150   17.3900  110.8340 C.3   110  VAL110      0.1596
    123  C         28.5520   15.9110  111.2250 C.2   110  VAL110      0.2287
    124  O         28.6270   15.0490  110.3520 O.2   110  VAL110     -0.2864
    125  CB        27.4250   17.6750  109.7740 C.3   110  VAL110      0.0276
    126  CG1       26.0520   17.6630  110.4230 C.3   110  VAL110      0.0022
    127  CG2       27.6510   19.0210  109.0930 C.3   110  VAL110      0.0022
    128  N         22.6230   16.3330  106.3510 N.3   160  LEU160     -0.1245
    129  CA        23.4070   15.8590  107.4890 C.3   160  LEU160      0.1561
    130  C         22.8070   16.3460  108.8050 C.2   160  LEU160      0.2260
    131  O         22.3340   17.4820  108.8990 O.2   160  LEU160     -0.2867
    132  CB        24.8840   16.2740  107.3460 C.3   160  LEU160      0.0270
    133  CG        25.6650   15.8920  106.0700 C.3   160  LEU160      0.0019
    134  CD1       27.0630   16.4970  106.0920 C.3   160  LEU160      0.0001
    135  CD2       25.7540   14.3860  105.8560 C.3   160  LEU160      0.0001
    136  N         24.2110   19.8460  102.8240 N.3   170  THR170     -0.1218
    137  CA        25.4870   19.6840  102.1240 C.3   170  THR170      0.1862
    138  C         25.2600   19.5190  100.6150 C.2   170  THR170      0.2287
    139  O         24.1210   19.3390  100.1740 O.2   170  THR170     -0.2866
    140  CB        26.3190   18.5060  102.7080 C.3   170  THR170      0.1770
    141  OG1       27.6700   18.5970  102.2440 O.3   170  THR170     -0.2211
    142  CG2       25.7410   17.1400  102.3200 C.3   170  THR170      0.0375
@<TRIPOS>BOND
     1    29    28    1
     2    37    39   ar
     3    37    35   ar
     4    28    25    1
     5    39    40   ar
     6    34    35    1
     7    34    31    1
     8    35    36   ar
     9    27    26    2
    10    40    38   ar
    11    26    25    1
    12    26    30   am
    13    25    24    1
    14    36    38   ar
    15    31    30    1
    16    31    32    1
    17    24    22   am
    18    32    33    2
    19    32    41    1
    20    22    23    2
    21    22    21    1
    22    41    42    2
    23    79    80    2
    24    79    78    1
    25    81    82    1
    26    81    78    1
    27    83    82    1
    28    21    20    1
    29    84    82    1
    30    78    77    1
    31    42    43    1
    32    20    15   am
    33    44    43    2
    34    43    45   am
    35    16    15    2
    36    15    14    1
    37    18    17    1
    38    76    75    1
    39    75    74    1
    40    45    46    1
    41    54    53    1
    42    19    17    1
    43    17    14    1
    44    14    13    1
    45    74    73    1
    46    46    49    1
    47    46    47    1
    48    53    55    1
    49    53    52    2
    50    73    72    1
    51    13    11   am
    52    49    50    1
    53    50    51    1
    54    51    52    1
    55    48    47    2
    56    47    56   am
    57    71    70    2
    58   139   138    2
    59    70    69    1
    60    72    69    1
    61    11    12    2
    62    11    10    1
    63   138   137    1
    64    69    68    1
    65    56    57    1
    66    62    60    1
    67    10     9    1
    68   137   140    1
    69   137   136    1
    70    57    60    1
    71    57    58    1
    72   141   140    1
    73   142   140    1
    74    60    61    1
    75    99    98    1
    76    98    97    1
    77     9     3   am
    78    58    59    2
    79    97    96    1
    80     3     4    2
    81     3     2    1
    82    90    89    1
    83    88    87    2
    84    96    93    1
    85     1     2    1
    86     2     5    1
    87    66    65    2
    88    85    86    1
    89    87    86    1
    90    92    93    1
    91    89    86    1
    92    89    91    1
    93     5     6    1
    94   135   133    1
    95    65    64    1
    96    93    94    1
    97   133   134    1
    98   133   132    1
    99   128   129    1
   100    67    64    1
   101    64    63    1
   102     6     7    1
   103     6     8    1
   104   132   129    1
   105    94    95    2
   106    94   100   am
   107   129   130    1
   108   100   101    1
   109   103   102    2
   110   130   131    2
   111   127   125    1
   112   102   101    1
   113   102   109   am
   114   101   104    1
   115   104   105    1
   116   125   126    1
   117   125   122    1
   118   109   110    1
   119   124   123    2
   120   121   122    1
   121   121   111   am
   122   110   111    1
   123   110   113    1
   124   115   117   ar
   125   115   114   ar
   126   117   119   ar
   127   122   123    1
   128   111   112    2
   129   105   106    1
   130   113   114    1
   131   114   116   ar
   132   106   107   ar
   133   106   108   ar
   134   119   120    1
   135   119   118   ar
   136   116   118   ar
