@<TRIPOS>MOLECULE
tmp/5izkB00.pdb
 135 132 0 0 0
SMALL
GASTEIGER

@<TRIPOS>ATOM
      1  N          6.2840  -12.9550  219.6700 N.3    10  HIS10      -0.1226
      2  CA         6.9960  -14.2210  219.7120 C.3    10  HIS10       0.1752
      3  C          6.1720  -15.2810  220.4390 C.2    10  HIS10       0.2596
      4  O          5.3010  -14.9770  221.2590 O.2    10  HIS10      -0.2718
      5  CB         8.3520  -14.0500  220.3950 C.3    10  HIS10       0.0759
      6  CG         9.3870  -15.0300  219.9390 C.ar   10  HIS10       0.0818
      7  ND1       10.3140  -14.7320  218.9630 N.ar   10  HIS10      -0.2268
      8  CD2        9.6430  -16.3030  220.3240 C.ar   10  HIS10       0.1154
      9  CE1       11.0950  -15.7780  218.7650 C.ar   10  HIS10       0.1986
     10  NE2       10.7100  -16.7450  219.5800 N.ar   10  HIS10      -0.2212
     11  N          6.4660  -16.5460  220.1260 N.am   11  ILE11      -0.1966
     12  CA         5.7410  -17.6540  220.7430 C.3    11  ILE11       0.1727
     13  C          5.8560  -17.5900  222.2610 C.2    11  ILE11       0.2616
     14  O          4.8880  -17.8540  222.9840 O.2    11  ILE11      -0.2715
     15  CB         6.2480  -19.0000  220.1930 C.3    11  ILE11       0.0290
     16  CG1        5.7910  -19.1340  218.7260 C.3    11  ILE11       0.0022
     17  CG2        5.7790  -20.1550  221.0450 C.3    11  ILE11       0.0023
     18  CD1        6.4390  -20.2710  217.9860 C.3    11  ILE11       0.0001
     19  N          7.0390  -17.2410  222.7670 N.am   12  ASP12      -0.1971
     20  CA         7.2670  -17.0800  224.1970 C.3    12  ASP12       0.1709
     21  C          7.1760  -15.6220  224.6350 C.2    12  ASP12       0.2293
     22  O          7.6920  -15.2660  225.7000 O.2    12  ASP12      -0.2864
     23  CB         8.6270  -17.6650  224.5830 C.3    12  ASP12       0.1436
     24  CG         8.7210  -19.1400  224.4720 C.2    12  ASP12       0.3671
     25  OD1        7.6640  -19.8420  224.4650 O.co2  12  ASP12      -0.2456
     26  OD2        9.8820  -19.6680  224.4660 O.co2  12  ASP12      -0.2456
     27  N          4.1200  -13.7700  224.8270 N.3    14  GLY14      -0.1210
     28  CA         2.8980  -13.4570  225.5390 C.3    14  GLY14       0.1956
     29  C          1.8960  -12.6960  224.6970 C.2    14  GLY14       0.2612
     30  O          2.0400  -11.4870  224.4960 O.2    14  GLY14      -0.2717
     31  N          0.8690  -13.3890  224.2030 N.am   15  LYS15      -0.1965
     32  CA        -0.0820  -12.7680  223.2890 C.3    15  LYS15       0.1728
     33  C         -1.5220  -12.9470  223.7550 C.2    15  LYS15       0.2617
     34  O         -2.1530  -11.9820  224.1970 O.2    15  LYS15      -0.2715
     35  CB         0.0910  -13.3290  221.8760 C.3    15  LYS15       0.0311
     36  CG         1.3510  -12.8690  221.1770 C.3    15  LYS15       0.0038
     37  CD         1.4180  -13.3280  219.7340 C.3    15  LYS15       0.0206
     38  CE         1.0240  -14.7280  219.5460 C.3    15  LYS15       0.1093
     39  NZ         1.7070  -15.3340  218.3260 N.3    15  LYS15      -0.1314
     40  N         -2.0630  -14.1660  223.6540 N.am   16  THR16      -0.1937
     41  CA        -3.4670  -14.3660  224.0100 C.3    16  THR16       0.2028
     42  C         -3.7190  -14.0630  225.4820 C.2    16  THR16       0.2642
     43  O         -4.7670  -13.5090  225.8360 O.2    16  THR16      -0.2714
     44  CB        -3.9200  -15.7890  223.6800 C.3    16  THR16       0.1808
     45  OG1       -3.1440  -16.7320  224.4270 O.3    16  THR16      -0.2208
     46  CG2       -3.7800  -16.0630  222.1950 C.3    16  THR16       0.0379
     47  N         -2.7790  -14.4240  226.3580 N.am   17  ALA17      -0.1963
     48  CA        -2.9330  -14.0850  227.7680 C.3    17  ALA17       0.1728
     49  C         -2.9710  -12.5740  227.9680 C.2    17  ALA17       0.2616
     50  O         -3.7090  -12.0730  228.8250 O.2    17  ALA17      -0.2715
     51  CB        -1.8040  -14.7120  228.5860 C.3    17  ALA17       0.0334
     52  N         -2.1820  -11.8330  227.1850 N.am   18  LEU18      -0.1977
     53  CA        -2.1350  -10.3750  227.2620 C.3    18  LEU18       0.1596
     54  C         -3.5170   -9.7600  227.0960 C.2    18  LEU18       0.2287
     55  O         -4.1410   -9.3370  228.0750 O.2    18  LEU18      -0.2864
     56  CB        -1.1990   -9.8070  226.1900 C.3    18  LEU18       0.0297
     57  CG        -1.0060   -8.2900  225.9900 C.3    18  LEU18       0.0022
     58  CD1       -0.3940   -7.6840  227.2490 C.3    18  LEU18       0.0001
     59  CD2       -0.1920   -7.8790  224.7520 C.3    18  LEU18       0.0001
     60  N         -3.6070  -16.2010  217.5110 N.3    41  CYS41      -0.1221
     61  CA        -3.5930  -17.5890  217.0780 C.3    41  CYS41       0.1794
     62  C         -2.4780  -18.3140  217.8150 C.2    41  CYS41       0.2443
     63  O         -1.7980  -17.7070  218.6510 O.2    41  CYS41      -0.2733
     64  CB        -3.4100  -17.6800  215.5620 C.3    41  CYS41       0.0970
     65  SG        -4.9390  -17.4230  214.6420 S.3    41  CYS41      -0.0800
     66  N         -2.2720  -19.6020  217.5580 N.am   42  PRO42      -0.2729
     67  CA        -1.1510  -20.3060  218.1950 C.3    42  PRO42       0.1401
     68  C          0.1440  -19.5210  218.0740 C.2    42  PRO42       0.2269
     69  O          0.7130  -19.0600  219.0700 O.2    42  PRO42      -0.2865
     70  CB        -1.0820  -21.6270  217.4170 C.3    42  PRO42       0.0296
     71  CG        -2.4730  -21.8390  216.9270 C.3    42  PRO42       0.0237
     72  CD        -3.0400  -20.4750  216.6540 C.3    42  PRO42       0.0939
     73  N          5.7610   -6.3380  227.3400 N.3    92  ASN92      -0.1225
     74  CA         4.9980   -7.0690  228.3410 C.3    92  ASN92       0.1785
     75  C          5.9120   -7.6680  229.4100 C.2    92  ASN92       0.2597
     76  O          7.1400   -7.6760  229.2920 O.2    92  ASN92      -0.2718
     77  CB         4.1650   -8.1690  227.6730 C.3    92  ASN92       0.1169
     78  CG         3.1520   -8.7960  228.6170 C.2    92  ASN92       0.2627
     79  OD1        2.6070   -8.1290  229.4970 O.2    92  ASN92      -0.2716
     80  ND2        2.9040  -10.0890  228.4420 N.am   92  ASN92      -0.0877
     81  N          5.2810   -8.1730  230.4740 N.am   93  LYS93      -0.1980
     82  CA         5.9760   -8.8520  231.5660 C.3    93  LYS93       0.1596
     83  C          6.8880   -7.8860  232.3240 C.2    93  LYS93       0.2287
     84  O          8.0590   -8.1720  232.5720 O.2    93  LYS93      -0.2864
     85  CB         6.7610  -10.0620  231.0520 C.3    93  LYS93       0.0298
     86  CG         5.8500  -11.1080  230.4730 C.3    93  LYS93       0.0038
     87  CD         6.6320  -12.1400  229.7090 C.3    93  LYS93       0.0206
     88  CE         5.7780  -13.3320  229.2780 C.3    93  LYS93       0.1093
     89  NZ         6.5180  -14.2060  228.3420 N.3    93  LYS93      -0.1314
     90  N          7.1220   -7.4030  235.2600 N.3    95  ASP95      -0.1225
     91  CA         7.3310   -7.8500  236.6240 C.3    95  ASP95       0.1805
     92  C          8.6970   -8.4850  236.8280 C.2    95  ASP95       0.2597
     93  O          9.1090   -8.6660  237.9790 O.2    95  ASP95      -0.2718
     94  CB         6.2310   -8.8380  237.0510 C.3    95  ASP95       0.1424
     95  CG         6.1260  -10.0370  236.1300 C.2    95  ASP95       0.3668
     96  OD1        7.0980  -10.3250  235.4000 O.co2  95  ASP95      -0.2456
     97  OD2        5.0670  -10.6980  236.1460 O.co2  95  ASP95      -0.2456
     98  N          9.4100   -8.8180  235.7510 N.am   96  LEU96      -0.1979
     99  CA        10.7770   -9.3120  235.8450 C.3    96  LEU96       0.1596
    100  C         11.7910   -8.1980  236.0730 C.2    96  LEU96       0.2287
    101  O         12.9730   -8.4910  236.2820 O.2    96  LEU96      -0.2864
    102  CB        11.1460  -10.0880  234.5780 C.3    96  LEU96       0.0297
    103  CG        10.4650  -11.4430  234.3880 C.3    96  LEU96       0.0022
    104  CD1       10.8380  -11.9850  233.0290 C.3    96  LEU96       0.0001
    105  CD2       10.8760  -12.4350  235.4460 C.3    96  LEU96       0.0001
    106  N          2.5230   -5.1360  231.9680 N.3   131  ALA131     -0.1231
    107  CA         2.7670   -6.4480  232.5620 C.3   131  ALA131      0.1694
    108  C          1.4150   -7.0650  232.8900 C.2   131  ALA131      0.2592
    109  O          0.7070   -6.5720  233.7740 O.2   131  ALA131     -0.2718
    110  CB         3.6390   -6.3390  233.8110 C.3   131  ALA131      0.0304
    111  N          1.0600   -8.1400  232.1880 N.am  132  ALA132     -0.1966
    112  CA        -0.2470   -8.7530  232.3860 C.3   132  ALA132      0.1728
    113  C         -0.2090   -9.8840  233.4150 C.2   132  ALA132      0.2616
    114  O         -0.9680   -9.8630  234.3880 O.2   132  ALA132     -0.2715
    115  CB        -0.7980   -9.2610  231.0490 C.3   132  ALA132      0.0334
    116  N          0.6680  -10.8650  233.2310 N.am  133  LYS133     -0.1964
    117  CA         0.6250  -12.0960  234.0220 C.3   133  LYS133      0.1713
    118  C          1.8950  -12.3010  234.8290 C.2   133  LYS133      0.2458
    119  O          2.9480  -12.6220  234.2520 O.2   133  LYS133     -0.2730
    120  CB         0.3930  -13.3010  233.1100 C.3   133  LYS133      0.0311
    121  CG         1.4750  -13.5650  232.1230 C.3   133  LYS133      0.0038
    122  CD         1.2570  -14.9360  231.4750 C.3   133  LYS133      0.0206
    123  CE         2.2510  -15.0460  230.3500 C.3   133  LYS133      0.1093
    124  NZ         2.1910  -16.4350  229.8350 N.3   133  LYS133     -0.1314
    125  N          1.8560  -12.1440  236.1510 N.am  134  PRO134     -0.2716
    126  CA         3.0340  -12.4560  236.9630 C.3   134  PRO134      0.1536
    127  C          3.1450  -13.9540  237.1630 C.2   134  PRO134      0.2599
    128  O          4.2350  -14.5360  237.0950 O.2   134  PRO134     -0.2715
    129  CB         2.7490  -11.7240  238.2770 C.3   134  PRO134      0.0310
    130  CG         1.2490  -11.8280  238.3950 C.3   134  PRO134      0.0237
    131  CD         0.6980  -11.7680  236.9830 C.3   134  PRO134      0.0939
    132  N          2.0020  -14.5870  237.3970 N.am  135  GLY135     -0.1955
    133  CA         1.9340  -16.0260  237.5360 C.3   135  GLY135      0.1869
    134  C          1.6380  -16.7200  236.2210 C.2   135  GLY135      0.2309
    135  O          2.3740  -16.5540  235.2440 O.2   135  GLY135     -0.2863
@<TRIPOS>BOND
     1    65    64    1
     2    64    61    1
     3    72    71    1
     4    72    66    1
     5    71    70    1
     6    61    60    1
     7    61    62    1
     8    70    67    1
     9    66    62   am
    10    66    67    1
    11    62    63    2
    12    18    16    1
    13    68    67    1
    14    68    69    2
    15    39    38    1
    16    16    15    1
    17     9     7   ar
    18     9    10   ar
    19     7     6   ar
    20    38    37    1
    21    10     8   ar
    22     1     2    1
    23     2     5    1
    24     2     3    1
    25    37    36    1
    26     6     8   ar
    27     6     5    1
    28    11     3   am
    29    11    12    1
    30    15    12    1
    31    15    17    1
    32     3     4    2
    33    12    13    1
    34    36    35    1
    35    35    32    1
    36    46    44    1
    37    13    19   am
    38    13    14    2
    39    19    20    1
    40    32    33    1
    41    32    31    1
    42    40    33   am
    43    40    41    1
    44    44    41    1
    45    44    45    1
    46    33    34    2
    47    41    42    1
    48    20    23    1
    49    20    21    1
    50    31    29   am
    51    25    24   ar
    52    26    24   ar
    53    24    23    1
    54    30    29    2
    55    21    22    2
    56    29    28    1
    57    59    57    1
    58    27    28    1
    59    42    43    2
    60    42    47   am
    61    57    56    1
    62    57    58    1
    63    56    53    1
    64    47    48    1
    65    54    53    1
    66    54    55    2
    67    52    53    1
    68    52    49   am
    69    73    74    1
    70    77    74    1
    71    77    78    1
    72    48    49    1
    73    48    51    1
    74    49    50    2
    75    74    75    1
    76    89    88    1
    77    80    78   am
    78    78    79    2
    79    88    87    1
    80    76    75    2
    81    75    81   am
    82    87    86    1
    83   124   123    1
    84   123   122    1
    85    86    85    1
    86    81    82    1
    87   115   112    1
    88    85    82    1
    89   122   121    1
    90    82    83    1
    91   106   107    1
    92   121   120    1
    93   111   112    1
    94   111   108   am
    95    83    84    2
    96   112   113    1
    97   107   108    1
    98   107   110    1
    99   108   109    2
   100   104   103    1
   101   120   117    1
   102   116   113   am
   103   116   117    1
   104   113   114    2
   105   117   118    1
   106   119   118    2
   107   103   102    1
   108   103   105    1
   109   102    99    1
   110   118   125   am
   111   135   134    2
   112    90    91    1
   113    96    95   ar
   114    98    99    1
   115    98    92   am
   116    99   100    1
   117   100   101    2
   118    95    97   ar
   119    95    94    1
   120   125   126    1
   121   125   131    1
   122   134   133    1
   123    91    92    1
   124    91    94    1
   125    92    93    2
   126   126   127    1
   127   126   129    1
   128   131   130    1
   129   128   127    2
   130   127   132   am
   131   132   133    1
   132   129   130    1
