@<TRIPOS>MOLECULE
tmp/5izkA00.pdb
 135 130 0 0 0
SMALL
GASTEIGER

@<TRIPOS>ATOM
      1  N          5.4630   12.3110  116.6970 N.3    14  HIS14      -0.1226
      2  CA         4.7600   11.1660  116.1410 C.3    14  HIS14       0.1752
      3  C          5.6460   10.4150  115.1460 C.2    14  HIS14       0.2596
      4  O          6.6860   10.9070  114.6980 O.2    14  HIS14      -0.2718
      5  CB         3.4660   11.6220  115.4680 C.3    14  HIS14       0.0759
      6  CG         2.4590   10.5310  115.2900 C.ar   14  HIS14       0.0818
      7  ND1        1.5520   10.1890  116.2700 N.ar   14  HIS14      -0.2268
      8  CD2        2.2180    9.7010  114.2480 C.ar   14  HIS14       0.1154
      9  CE1        0.7940    9.1970  115.8390 C.ar   14  HIS14       0.1986
     10  NE2        1.1770    8.8820  114.6140 N.ar   14  HIS14      -0.2212
     11  N          5.2100    9.2030  114.7890 N.am   15  ILE15      -0.1966
     12  CA         6.0030    8.3390  113.9200 C.3    15  ILE15       0.1727
     13  C          6.2140    8.9490  112.5410 C.2    15  ILE15       0.2616
     14  O          7.1240    8.5340  111.8150 O.2    15  ILE15      -0.2715
     15  CB         5.3450    6.9490  113.8040 C.3    15  ILE15       0.0290
     16  CG1        6.2700    5.9970  113.0470 C.3    15  ILE15       0.0022
     17  CG2        3.9900    7.0540  113.1250 C.3    15  ILE15       0.0023
     18  CD1        6.1430    4.5820  113.5290 C.3    15  ILE15       0.0001
     19  N          5.3910    9.9240  112.1550 N.am   16  ASP16      -0.1971
     20  CA         5.5360   10.6060  110.8730 C.3    16  ASP16       0.1709
     21  C          5.4740   12.1170  111.0500 C.2    16  ASP16       0.2293
     22  O          4.9710   12.8300  110.1780 O.2    16  ASP16      -0.2864
     23  CB         4.4670   10.1430  109.8820 C.3    16  ASP16       0.1436
     24  CG         3.1110   10.4750  110.2160 C.2    16  ASP16       0.3671
     25  OD1        2.7910   11.0970  111.2640 O.co2  16  ASP16      -0.2456
     26  OD2        2.1800   10.1580  109.3870 O.co2  16  ASP16      -0.2456
     27  N          8.0250   14.3630  111.5300 N.3    18  GLY18      -0.1210
     28  CA         9.1560   15.1590  111.1150 C.3    18  GLY18       0.1956
     29  C         10.2150   15.3590  112.1730 C.2    18  GLY18       0.2612
     30  O         11.0350   16.2750  112.0380 O.2    18  GLY18      -0.2717
     31  N         10.2290   14.5350  113.2240 N.am   19  LYS19      -0.1965
     32  CA        11.2460   14.6860  114.2570 C.3    19  LYS19       0.1728
     33  C         12.6420   14.4540  113.6800 C.2    19  LYS19       0.2617
     34  O         13.4700   15.3720  113.6360 O.2    19  LYS19      -0.2715
     35  CB        10.9500   13.7510  115.4340 C.3    19  LYS19       0.0311
     36  CG        10.4550   12.4270  114.9880 C.3    19  LYS19       0.0038
     37  CD        10.4090   11.4800  116.1750 C.3    19  LYS19       0.0206
     38  CE        10.7760   10.0400  115.7980 C.3    19  LYS19       0.1093
     39  NZ        10.6530    9.1150  116.9710 N.3    19  LYS19      -0.1314
     40  N         12.9220   13.2260  113.2240 N.am   20  THR20      -0.1937
     41  CA        14.2230   12.9390  112.6250 C.3    20  THR20       0.2028
     42  C         14.5980   13.9330  111.5370 C.2    20  THR20       0.2642
     43  O         15.7840   14.0680  111.2140 O.2    20  THR20      -0.2714
     44  CB        14.2550   11.5500  111.9980 C.3    20  THR20       0.1808
     45  OG1       14.0150   10.5680  113.0100 O.3    20  THR20      -0.2208
     46  CG2       15.6360   11.2920  111.4300 C.3    20  THR20       0.0379
     47  N         13.6160   14.6030  110.9360 N.am   21  ALA21      -0.1977
     48  CA        13.9150   15.5230  109.8480 C.3    21  ALA21       0.1597
     49  C         14.3840   16.8760  110.3600 C.2    21  ALA21       0.2287
     50  O         15.1360   17.5690  109.6660 O.2    21  ALA21      -0.2864
     51  CB        12.6880   15.6940  108.9510 C.3    21  ALA21       0.0319
     52  N         18.7740   17.2310  111.3540 N.3    24  ARG24      -0.1245
     53  CA        19.6010   17.6360  110.2230 C.3    24  ARG24       0.1563
     54  C         19.3560   19.0970  109.8660 C.2    24  ARG24       0.2260
     55  O         20.3010   19.8460  109.6010 O.2    24  ARG24      -0.2867
     56  CB        19.3270   16.7370  109.0160 C.3    24  ARG24       0.0307
     57  CG        19.7510   15.3110  109.3460 C.3    24  ARG24       0.0489
     58  CD        19.7760   14.3840  108.1020 C.3    24  ARG24       0.2205
     59  NE        18.5540   14.4170  107.3160 N.pl3  24  ARG24      -0.0865
     60  CZ        17.5300   13.6390  107.5570 C.cat  24  ARG24       0.5346
     61  NH1       17.5740   12.7530  108.5260 N.pl3  24  ARG24       0.1354
     62  NH2       16.4140   13.8380  106.8980 N.pl3  24  ARG24       0.1354
     63  N         14.9570    5.7020  115.9640 N.3    53  PRO53      -0.2102
     64  CA        14.2110    5.2610  114.7780 C.3    53  PRO53       0.1504
     65  C         12.7300    5.5480  114.8930 C.2    53  PRO53       0.2576
     66  O         12.1070    5.9990  113.9240 O.2    53  PRO53      -0.2718
     67  CB        14.5000    3.7550  114.7310 C.3    53  PRO53       0.0282
     68  CG        14.6980    3.3900  116.1670 C.3    53  PRO53       0.0208
     69  CD        15.4150    4.5640  116.7820 C.3    53  PRO53       0.0893
     70  N         12.1620    5.2130  116.0360 N.am   54  GLY54      -0.1957
     71  CA        10.7420    5.3710  116.1880 C.3    54  GLY54       0.1869
     72  C         10.2360    5.9230  117.4720 C.2    54  GLY54       0.2309
     73  O         10.5200    7.0460  117.8090 O.2    54  GLY54      -0.2863
     74  N          5.8710   21.8620  113.0930 N.3   105  ASN105     -0.1225
     75  CA         6.6170   21.4510  111.9150 C.3   105  ASN105      0.1785
     76  C          5.7030   21.3780  110.6960 C.2   105  ASN105      0.2597
     77  O          4.4760   21.3060  110.8070 O.2   105  ASN105     -0.2718
     78  CB         7.2830   20.0950  112.1620 C.3   105  ASN105      0.1169
     79  CG         7.9900   19.5530  110.9350 C.2   105  ASN105      0.2627
     80  OD1        8.5200   20.3130  110.1240 O.2   105  ASN105     -0.2716
     81  ND2        7.9910   18.2310  110.7870 N.am  105  ASN105     -0.0877
     82  N          6.3220   21.3870  109.5150 N.am  106  LYS106     -0.1980
     83  CA         5.5880   21.3440  108.2520 C.3   106  LYS106      0.1596
     84  C          4.7500   22.6060  108.0680 C.2   106  LYS106      0.2287
     85  O          3.6020   22.5410  107.6290 O.2   106  LYS106     -0.2864
     86  CB         4.7090   20.0930  108.1560 C.3   106  LYS106      0.0298
     87  CG         5.4630   18.7680  107.9560 C.3   106  LYS106      0.0038
     88  CD         6.4030   18.8480  106.7470 C.3   106  LYS106      0.0206
     89  CE         7.0940   17.5050  106.4750 C.3   106  LYS106      0.1093
     90  NZ         8.2630   17.6600  105.5540 N.3   106  LYS106     -0.1314
     91  N          4.6550   24.4920  105.8940 N.3   108  ASP108     -0.1225
     92  CA         4.5920   24.7630  104.4670 C.3   108  ASP108      0.1805
     93  C          3.3460   24.1990  103.8050 C.2   108  ASP108      0.2597
     94  O          3.0590   24.5640  102.6600 O.2   108  ASP108     -0.2718
     95  CB         5.8340   24.2030  103.7540 C.3   108  ASP108      0.1424
     96  CG         5.9420   22.6920  103.8640 C.2   108  ASP108      0.3668
     97  OD1        4.9260   22.0340  104.1520 O.co2 108  ASP108     -0.2456
     98  OD2        7.0450   22.1530  103.6580 O.co2 108  ASP108     -0.2456
     99  N          2.6130   23.3120  104.4790 N.am  109  LEU109     -0.1979
    100  CA         1.3760   22.7540  103.9490 C.3   109  LEU109      0.1596
    101  C          0.1870   23.6930  104.1010 C.2   109  LEU109      0.2287
    102  O         -0.8820   23.4050  103.5520 O.2   109  LEU109     -0.2864
    103  CB         1.0650   21.4210  104.6350 C.3   109  LEU109      0.0297
    104  CG         1.5440   20.1470  103.9330 C.3   109  LEU109      0.0022
    105  CD1        3.0190   20.2250  103.5840 C.3   109  LEU109      0.0001
    106  CD2        1.2600   18.9200  104.7890 C.3   109  LEU109      0.0001
    107  N         10.6440   22.7960  108.0020 N.3   145  ALA145     -0.1231
    108  CA        12.0350   22.3990  107.8480 C.3   145  ALA145      0.1694
    109  C         12.3860   22.0050  106.4180 C.2   145  ALA145      0.2591
    110  O         13.4420   22.4000  105.9120 O.2   145  ALA145     -0.2718
    111  CB        12.3490   21.2460  108.8020 C.3   145  ALA145      0.0304
    112  N         11.5320   21.2240  105.7590 N.am  146  LYS146     -0.1980
    113  CA        11.7550   20.7800  104.3840 C.3   146  LYS146      0.1596
    114  C         10.5280   21.1770  103.5750 C.2   146  LYS146      0.2287
    115  O          9.5800   20.3920  103.4320 O.2   146  LYS146     -0.2864
    116  CB        12.0140   19.2760  104.3180 C.3   146  LYS146      0.0298
    117  CG        13.4480   18.9620  104.7390 C.3   146  LYS146      0.0038
    118  CD        13.6400   17.4350  104.8830 C.3   146  LYS146      0.0206
    119  CE        15.1680   17.3150  104.9310 C.3   146  LYS146      0.1093
    120  NZ        15.5960   17.7220  106.3590 N.3   146  LYS146     -0.1314
    121  N          9.2310   21.0680  100.8710 N.3   148  GLY148     -0.1210
    122  CA         8.6820   20.3710   99.7220 C.3   148  GLY148      0.1956
    123  C          8.0440   19.0310  100.0250 C.2   148  GLY148      0.2612
    124  O          7.0020   18.6840   99.4590 O.2   148  GLY148     -0.2717
    125  N          8.6600   18.2730  100.9260 N.am  149  GLY149     -0.1942
    126  CA         8.2800   16.9040  101.1720 C.3   149  GLY149      0.1998
    127  C          9.5070   16.0140  101.1830 C.2   149  GLY149      0.2480
    128  O         10.5890   16.4240  101.6110 O.2   149  GLY149     -0.2729
    129  N          9.3660   14.7780  100.7000 N.am  150  PRO150     -0.2726
    130  CA        10.5100   13.8520  100.6900 C.3   150  PRO150      0.1402
    131  C         11.6190   14.2660   99.7330 C.2   150  PRO150      0.2269
    132  O         12.7380   14.5620  100.1630 O.2   150  PRO150     -0.2865
    133  CB         9.8790   12.5190  100.2640 C.3   150  PRO150      0.0296
    134  CG         8.4170   12.6670  100.5610 C.3   150  PRO150      0.0237
    135  CD         8.1120   14.1120  100.3130 C.3   150  PRO150      0.0939
@<TRIPOS>BOND
     1   124   123    2
     2   122   123    1
     3   122   121    1
     4   131   132    2
     5   131   130    1
     6   123   125   am
     7   133   134    1
     8   133   130    1
     9   135   134    1
    10   135   129    1
    11   130   129    1
    12   129   127   am
    13   125   126    1
    14   126   127    1
    15   127   128    2
    16    94    93    2
    17   115   114    2
    18   102   101    2
    19   114   113    1
    20   105   104    1
    21    98    96   ar
    22    95    96    1
    23    95    92    1
    24    93    92    1
    25    93    99   am
    26    96    97   ar
    27   104   103    1
    28   104   106    1
    29   100   101    1
    30   100    99    1
    31   100   103    1
    32   116   113    1
    33   116   117    1
    34   113   112    1
    35    92    91    1
    36   117   118    1
    37   118   119    1
    38   119   120    1
    39    90    89    1
    40   112   109   am
    41   110   109    2
    42   109   108    1
    43    89    88    1
    44    88    87    1
    45    62    60    1
    46    59    60    2
    47    59    58    1
    48    60    61    1
    49    85    84    2
    50   108   107    1
    51   108   111    1
    52    87    86    1
    53    84    83    1
    54    58    57    1
    55    86    83    1
    56    83    82    1
    57    51    48    1
    58    56    57    1
    59    56    53    1
    60    26    24   ar
    61    82    76   am
    62    55    54    2
    63    50    49    2
    64    48    49    1
    65    48    47    1
    66    54    53    1
    67    23    24    1
    68    23    20    1
    69    80    79    2
    70    22    21    2
    71    24    25   ar
    72    53    52    1
    73    76    77    2
    74    76    75    1
    75    81    79   am
    76    20    21    1
    77    20    19    1
    78    79    78    1
    79    47    42   am
    80    28    27    1
    81    28    29    1
    82    43    42    2
    83    46    44    1
    84    42    41    1
    85    14    13    2
    86    75    78    1
    87    75    74    1
    88    44    41    1
    89    44    45    1
    90    30    29    2
    91    19    13   am
    92    29    31   am
    93    13    12    1
    94    41    40    1
    95    16    18    1
    96    16    15    1
    97    17    15    1
    98    40    33   am
    99    31    32    1
   100    34    33    2
   101    33    32    1
   102    15    12    1
   103    12    11    1
   104    66    65    2
   105     8    10   ar
   106     8     6   ar
   107    32    35    1
   108    10     9   ar
   109     4     3    2
   110    67    64    1
   111    67    68    1
   112    64    65    1
   113    64    63    1
   114    11     3   am
   115    65    70   am
   116    36    35    1
   117    36    37    1
   118     3     2    1
   119     6     5    1
   120     6     7   ar
   121     5     2    1
   122    38    37    1
   123    38    39    1
   124     9     7   ar
   125    63    69    1
   126    70    71    1
   127     2     1    1
   128    68    69    1
   129    71    72    1
   130    72    73    2
