@<TRIPOS>MOLECULE
tmp/5izlA00.pdb
 174 171 0 0 0
SMALL
GASTEIGER

@<TRIPOS>ATOM
      1  N        -18.3510  -49.4260   32.0220 N.3    15  ILE15      -0.1231
      2  CA       -17.7520  -50.4290   31.1560 C.3    15  ILE15       0.1692
      3  C        -18.4920  -51.0130   29.9560 C.2    15  ILE15       0.2592
      4  O        -17.8510  -51.5610   29.0590 O.2    15  ILE15      -0.2718
      5  CB       -17.2640  -51.5910   32.0440 C.3    15  ILE15       0.0266
      6  CG1      -16.3100  -52.4960   31.2610 C.3    15  ILE15       0.0019
      7  CG2      -18.4450  -52.3880   32.5760 C.3    15  ILE15       0.0020
      8  CD1      -15.0280  -52.8140   31.9980 C.3    15  ILE15       0.0001
      9  N        -19.8200  -50.9190   29.9120 N.am   16  ASP16      -0.1960
     10  CA       -20.4930  -51.5000   28.7550 C.3    16  ASP16       0.1840
     11  C        -21.7380  -50.7260   28.3770 C.2    16  ASP16       0.2623
     12  O        -22.6780  -51.3020   27.8330 O.2    16  ASP16      -0.2715
     13  CB       -20.8200  -52.9820   28.9790 C.3    16  ASP16       0.1450
     14  CG       -19.7300  -53.8940   28.4870 C.2    16  ASP16       0.3671
     15  OD1      -19.3380  -53.7650   27.3230 O.co2  16  ASP16      -0.2456
     16  OD2      -19.2550  -54.7290   29.2640 O.co2  16  ASP16      -0.2456
     17  N        -21.7380  -49.4230   28.6000 N.am   17  SER17      -0.1936
     18  CA       -22.9190  -48.5950   28.4550 C.3    17  SER17       0.2055
     19  C        -23.2890  -48.2820   27.0170 C.2    17  SER17       0.2644
     20  O        -24.3450  -47.6960   26.7840 O.2    17  SER17      -0.2714
     21  CB       -22.6850  -47.3000   29.1910 C.3    17  SER17       0.2130
     22  OG       -21.3830  -46.8510   28.9100 O.3    17  SER17      -0.2179
     23  N        -22.4550  -48.6250   26.0530 N.am   18  GLY18      -0.1939
     24  CA       -22.7080  -48.3080   24.6780 C.3    18  GLY18       0.2014
     25  C        -22.0320  -47.0690   24.1540 C.2    18  GLY18       0.2639
     26  O        -22.5590  -46.4670   23.2240 O.2    18  GLY18      -0.2714
     27  N        -20.8710  -46.6860   24.6960 N.am   19  LYS19      -0.1963
     28  CA       -20.1730  -45.4870   24.2370 C.3    19  LYS19       0.1728
     29  C        -19.7080  -45.6190   22.7960 C.2    19  LYS19       0.2617
     30  O        -19.7820  -44.6620   22.0290 O.2    19  LYS19      -0.2715
     31  CB       -18.9690  -45.1830   25.1230 C.3    19  LYS19       0.0311
     32  CG       -19.2090  -45.1320   26.5820 C.3    19  LYS19       0.0038
     33  CD       -17.9330  -44.8730   27.3270 C.3    19  LYS19       0.0206
     34  CE       -17.0980  -46.0970   27.4050 C.3    19  LYS19       0.1093
     35  NZ       -17.8430  -47.1690   28.0580 N.3    19  LYS19      -0.1314
     36  N        -19.1880  -46.7740   22.4160 N.am   20  THR20      -0.1937
     37  CA       -18.7050  -46.9410   21.0540 C.3    20  THR20       0.2028
     38  C        -19.8620  -47.1270   20.0850 C.2    20  THR20       0.2642
     39  O        -19.8520  -46.5660   18.9940 O.2    20  THR20      -0.2714
     40  CB       -17.7350  -48.1220   20.9900 C.3    20  THR20       0.1808
     41  OG1      -16.6250  -47.8820   21.8570 O.3    20  THR20      -0.2208
     42  CG2      -17.2220  -48.3110   19.6270 C.3    20  THR20       0.0379
     43  N        -20.8770  -47.8890   20.4750 N.am   21  ALA21      -0.1977
     44  CA       -22.0670  -48.0210   19.6510 C.3    21  ALA21       0.1597
     45  C        -22.7440  -46.6810   19.4260 C.2    21  ALA21       0.2287
     46  O        -23.3130  -46.4470   18.3570 O.2    21  ALA21      -0.2864
     47  CB       -23.0330  -49.0090   20.2940 C.3    21  ALA21       0.0319
     48  N        -19.2730  -54.4330   15.4070 N.3    32  GLU32      -0.1231
     49  CA       -19.2070  -54.1980   16.8490 C.3    32  GLU32       0.1699
     50  C        -17.8930  -54.6800   17.4600 C.2    32  GLU32       0.2592
     51  O        -17.8330  -55.7660   18.0240 O.2    32  GLU32      -0.2718
     52  CB       -20.3840  -54.8820   17.5480 C.3    32  GLU32       0.0402
     53  CG       -20.4450  -54.6350   19.0470 C.3    32  GLU32       0.1161
     54  CD       -21.6510  -55.2880   19.6950 C.2    32  GLU32       0.3649
     55  OE1      -22.4180  -55.9650   18.9790 O.co2  32  GLU32      -0.2457
     56  OE2      -21.8330  -55.1230   20.9190 O.co2  32  GLU32      -0.2457
     57  N        -16.8390  -53.8800   17.3590 N.am   33  ARG33      -0.1966
     58  CA       -15.5590  -54.2890   17.9100 C.3    33  ARG33       0.1729
     59  C        -15.6420  -54.3590   19.4310 C.2    33  ARG33       0.2617
     60  O        -16.5830  -53.8620   20.0540 O.2    33  ARG33      -0.2715
     61  CB       -14.4600  -53.3260   17.4730 C.3    33  ARG33       0.0348
     62  CG       -14.3870  -53.1290   15.9720 C.3    33  ARG33       0.0492
     63  CD       -13.4070  -52.0350   15.6330 C.3    33  ARG33       0.2205
     64  NE       -12.1060  -52.3040   16.2360 N.pl3  33  ARG33      -0.0865
     65  CZ       -11.1320  -51.4080   16.3410 C.cat  33  ARG33       0.5346
     66  NH1      -11.3080  -50.1740   15.8900 N.pl3  33  ARG33       0.1354
     67  NH2       -9.9840  -51.7460   16.9050 N.pl3  33  ARG33       0.1354
     68  N        -14.6320  -54.9840   20.0290 N.am   34  GLY34      -0.1940
     69  CA       -14.6290  -55.2630   21.4530 C.3    34  GLY34       0.2014
     70  C        -14.4430  -54.0410   22.3150 C.2    34  GLY34       0.2639
     71  O        -14.8210  -52.9360   21.9250 O.2    34  GLY34      -0.2714
     72  N        -13.8430  -54.2130   23.4860 N.am   35  ILE35      -0.1963
     73  CA       -13.7690  -53.0900   24.3890 C.3    35  ILE35       0.1727
     74  C        -12.7410  -52.0810   23.9000 C.2    35  ILE35       0.2616
     75  O        -11.8840  -52.3630   23.0620 O.2    35  ILE35      -0.2715
     76  CB       -13.4630  -53.5430   25.8180 C.3    35  ILE35       0.0290
     77  CG1      -12.0610  -54.1150   25.8970 C.3    35  ILE35       0.0022
     78  CG2      -14.5620  -54.5020   26.3310 C.3    35  ILE35       0.0023
     79  CD1      -11.4960  -53.9920   27.2730 C.3    35  ILE35       0.0001
     80  N        -12.8440  -50.8800   24.4310 N.am   36  THR36      -0.1951
     81  CA       -12.0970  -49.7400   23.9510 C.3    36  THR36       0.1897
     82  C        -10.8660  -49.5820   24.8140 C.2    36  THR36       0.2313
     83  O        -10.9720  -49.5580   26.0340 O.2    36  THR36      -0.2863
     84  CB       -12.9530  -48.4810   23.9970 C.3    36  THR36       0.1794
     85  OG1      -14.0090  -48.5890   23.0420 O.3    36  THR36      -0.2208
     86  CG2      -12.1520  -47.2810   23.6860 C.3    36  THR36       0.0378
     87  N        -13.9200  -47.5410   28.9890 N.3    72  GLY72      -0.1210
     88  CA       -14.8040  -47.6090   30.1250 C.3    72  GLY72       0.1956
     89  C        -14.2600  -48.4900   31.2120 C.2    72  GLY72       0.2611
     90  O        -14.5520  -48.2860   32.3780 O.2    72  GLY72      -0.2717
     91  N        -13.4540  -49.4680   30.8400 N.am   73  HIS73      -0.1975
     92  CA       -12.8980  -50.3820   31.8130 C.3    73  HIS73       0.1656
     93  C        -12.1460  -49.6140   32.8840 C.2    73  HIS73       0.2291
     94  O        -11.5910  -48.5520   32.6340 O.2    73  HIS73      -0.2864
     95  CB       -11.9910  -51.3860   31.1260 C.3    73  HIS73       0.0771
     96  CG       -11.5830  -52.5130   32.0090 C.ar   73  HIS73       0.0820
     97  ND1      -10.4930  -53.3040   31.7530 N.ar   73  HIS73      -0.2267
     98  CD2      -12.1100  -52.9680   33.1660 C.ar   73  HIS73       0.1154
     99  CE1      -10.3630  -54.2030   32.7100 C.ar   73  HIS73       0.1986
    100  NE2      -11.3330  -54.0190   33.5810 N.ar   73  HIS73      -0.2212
    101  N        -29.0510  -44.8480   27.5500 N.3   123  ASN123     -0.1225
    102  CA       -28.9480  -45.7630   26.4330 C.3   123  ASN123      0.1785
    103  C        -29.4500  -47.1270   26.8530 C.2   123  ASN123      0.2597
    104  O        -29.6350  -47.4000   28.0330 O.2   123  ASN123     -0.2718
    105  CB       -27.5010  -45.8450   25.9310 C.3   123  ASN123      0.1169
    106  CG       -27.3790  -46.5800   24.6400 C.2   123  ASN123      0.2627
    107  OD1      -28.1590  -46.3800   23.7320 O.2   123  ASN123     -0.2716
    108  ND2      -26.4080  -47.4610   24.5600 N.am  123  ASN123     -0.0877
    109  N        -29.6550  -47.9770   25.8510 N.am  124  LYS124     -0.1980
    110  CA       -30.1140  -49.3500   26.0220 C.3   124  LYS124      0.1596
    111  C        -31.5890  -49.3630   26.3880 C.2   124  LYS124      0.2287
    112  O        -32.0240  -50.0380   27.3110 O.2   124  LYS124     -0.2864
    113  CB       -29.2550  -50.1140   27.0280 C.3   124  LYS124      0.0298
    114  CG       -27.9460  -50.5410   26.4270 C.3   124  LYS124      0.0038
    115  CD       -27.0710  -51.2790   27.3880 C.3   124  LYS124      0.0206
    116  CE       -26.0740  -52.1220   26.6470 C.3   124  LYS124      0.1093
    117  NZ       -24.8060  -52.1810   27.3860 N.3   124  LYS124     -0.1314
    118  N        -34.2200  -50.1470   24.3050 N.3   126  ASP126     -0.1225
    119  CA       -34.9360  -51.3120   23.8040 C.3   126  ASP126      0.1805
    120  C        -35.0980  -52.3830   24.8760 C.2   126  ASP126      0.2597
    121  O        -36.0680  -53.1470   24.8510 O.2   126  ASP126     -0.2718
    122  CB       -34.1920  -51.8790   22.5980 C.3   126  ASP126      0.1424
    123  CG       -32.7410  -52.1280   22.8920 C.2   126  ASP126      0.3668
    124  OD1      -32.1150  -51.2570   23.5180 O.co2 126  ASP126     -0.2456
    125  OD2      -32.2330  -53.1960   22.5200 O.co2 126  ASP126     -0.2456
    126  N        -34.1590  -52.4530   25.8180 N.am  127  LEU127     -0.1979
    127  CA       -34.2130  -53.4570   26.8710 C.3   127  LEU127      0.1596
    128  C        -35.4690  -53.3200   27.7140 C.2   127  LEU127      0.2287
    129  O        -35.9530  -54.3050   28.2820 O.2   127  LEU127     -0.2864
    130  CB       -32.9760  -53.3340   27.7590 C.3   127  LEU127      0.0297
    131  CG       -31.6040  -53.6240   27.1610 C.3   127  LEU127      0.0022
    132  CD1      -30.5220  -53.3110   28.1400 C.3   127  LEU127      0.0001
    133  CD2      -31.5370  -55.0680   26.7400 C.3   127  LEU127      0.0001
    134  N        -31.4460  -45.3420   21.9140 N.3   162  ALA162     -0.1231
    135  CA       -30.9880  -46.7310   21.8290 C.3   162  ALA162      0.1694
    136  C        -30.0050  -46.8180   20.6740 C.2   162  ALA162      0.2592
    137  O        -30.4100  -46.7840   19.5180 O.2   162  ALA162     -0.2718
    138  CB       -32.1330  -47.7190   21.6390 C.3   162  ALA162      0.0304
    139  N        -28.7210  -46.9340   20.9870 N.am  163  ALA163     -0.1966
    140  CA       -27.6760  -46.8470   19.9770 C.3   163  ALA163      0.1728
    141  C        -27.5230  -48.1130   19.1610 C.2   163  ALA163      0.2616
    142  O        -26.9730  -48.0540   18.0640 O.2   163  ALA163     -0.2715
    143  CB       -26.3510  -46.5120   20.6390 C.3   163  ALA163      0.0334
    144  N        -27.9790  -49.2480   19.6820 N.am  164  LYS164     -0.1964
    145  CA       -28.0670  -50.4890   18.9130 C.3   164  LYS164      0.1713
    146  C        -29.1740  -51.3110   19.5330 C.2   164  LYS164      0.2458
    147  O        -28.9370  -52.1070   20.4490 O.2   164  LYS164     -0.2730
    148  CB       -26.7530  -51.2700   18.9090 C.3   164  LYS164      0.0311
    149  CG       -26.7250  -52.3460   17.8410 C.3   164  LYS164      0.0038
    150  CD       -25.3450  -52.9840   17.7690 C.3   164  LYS164      0.0206
    151  CE       -25.3280  -54.0280   16.6660 C.3   164  LYS164      0.1093
    152  NZ       -26.2890  -55.0760   16.9410 N.3   164  LYS164     -0.1314
    153  N        -30.4130  -51.1210   19.0830 N.am  165  PRO165     -0.2716
    154  CA       -31.5210  -51.9060   19.6280 C.3   165  PRO165      0.1536
    155  C        -31.3280  -53.3770   19.3230 C.2   165  PRO165      0.2599
    156  O        -30.7390  -53.7460   18.3090 O.2   165  PRO165     -0.2715
    157  CB       -32.7460  -51.3400   18.9080 C.3   165  PRO165      0.0310
    158  CG       -32.3340  -50.0020   18.4600 C.3   165  PRO165      0.0237
    159  CD       -30.8810  -50.1010   18.1390 C.3   165  PRO165      0.0939
    160  N        -31.8120  -54.2200   20.2250 N.am  166  GLY166     -0.1941
    161  CA       -31.5040  -55.6310   20.1390 C.3   166  GLY166      0.2014
    162  C        -30.0390  -55.8660   20.4310 C.2   166  GLY166      0.2639
    163  O        -29.2110  -54.9820   20.2080 O.2   166  GLY166     -0.2714
    164  N        -29.6910  -57.0380   20.9370 N.am  167  GLY167     -0.1940
    165  CA       -28.3260  -57.2920   21.3270 C.3   167  GLY167      0.1998
    166  C        -27.3500  -57.2250   20.1710 C.2   167  GLY167      0.2480
    167  O        -27.6390  -56.6850   19.1000 O.2   167  GLY167     -0.2729
    168  N        -26.1490  -57.7660   20.3760 N.am  168  PRO168     -0.2726
    169  CA       -25.2460  -57.9170   19.2360 C.3   168  PRO168      0.1402
    170  C        -25.6790  -59.0620   18.3200 C.2   168  PRO168      0.2269
    171  O        -26.7190  -59.6840   18.5610 O.2   168  PRO168     -0.2865
    172  CB       -23.8960  -58.2080   19.8940 C.3   168  PRO168      0.0296
    173  CG       -24.2320  -58.7700   21.2200 C.3   168  PRO168      0.0237
    174  CD       -25.5050  -58.1090   21.6520 C.3   168  PRO168      0.0939
@<TRIPOS>BOND
     1    48    49    1
     2    63    62    1
     3    63    64    1
     4    66    65    1
     5    62    61    1
     6    64    65    2
     7    65    67    1
     8   151   152    1
     9   151   150    1
    10    49    50    1
    11    49    52    1
    12    57    50   am
    13    57    58    1
    14    50    51    2
    15    61    58    1
    16    52    53    1
    17   150   149    1
    18   149   148    1
    19    58    59    1
    20   142   141    2
    21   159   158    1
    22   159   153    1
    23   156   155    2
    24   170   171    2
    25   170   169    1
    26    46    45    2
    27   158   157    1
    28   157   154    1
    29   148   145    1
    30   145   146    1
    31   145   144    1
    32    55    54   ar
    33    39    38    2
    34    53    54    1
    35   153   146   am
    36   153   154    1
    37   167   166    2
    38   141   144   am
    39   141   140    1
    40   169   172    1
    41   169   168    1
    42   155   154    1
    43   155   160   am
    44    45    44    1
    45    59    68   am
    46    59    60    2
    47   137   136    2
    48   146   147    2
    49    42    40    1
    50    44    47    1
    51    44    43    1
    52    54    56   ar
    53   172   173    1
    54   140   143    1
    55   140   139    1
    56    68    69    1
    57    38    43   am
    58    38    37    1
    59   161   160    1
    60   161   162    1
    61   166   168   am
    62   166   165    1
    63   163   162    2
    64   168   174    1
    65   162   164   am
    66   136   139   am
    67   136   135    1
    68   164   165    1
    69    40    37    1
    70    40    41    1
    71    37    36    1
    72   173   174    1
    73    69    70    1
    74   138   135    1
    75   135   134    1
    76    71    70    2
    77    30    29    2
    78    70    72   am
    79    36    29   am
    80   125   123   ar
    81   122   123    1
    82   122   119    1
    83    29    28    1
    84   123   124   ar
    85    85    84    1
    86    75    74    2
    87    26    25    2
    88    72    73    1
    89    86    84    1
    90   107   106    2
    91   119   118    1
    92   119   120    1
    93    74    73    1
    94    74    80   am
    95    81    84    1
    96    81    80    1
    97    81    82    1
    98    25    24    1
    99    25    27   am
   100    28    27    1
   101    28    31    1
   102    73    76    1
   103   108   106   am
   104   106   105    1
   105    24    23    1
   106    82    83    2
   107   121   120    2
   108   120   126   am
   109    31    32    1
   110    76    77    1
   111    76    78    1
   112   126   127    1
   113   109   110    1
   114   109   103   am
   115    77    79    1
   116   105   102    1
   117   110   111    1
   118   110   113    1
   119    23    19   am
   120   111   112    2
   121   114   113    1
   122   114   115    1
   123   102   103    1
   124   102   101    1
   125    32    33    1
   126   116   117    1
   127   116   115    1
   128   133   131    1
   129    20    19    2
   130   103   104    2
   131   127   128    1
   132   127   130    1
   133    19    18    1
   134   131   130    1
   135   131   132    1
   136    15    14   ar
   137    33    34    1
   138    34    35    1
   139   128   129    2
   140    12    11    2
   141    11    17   am
   142    11    10    1
   143    18    17    1
   144    18    21    1
   145    14    13    1
   146    14    16   ar
   147    10    13    1
   148    10     9    1
   149    22    21    1
   150    87    88    1
   151     4     3    2
   152     9     3   am
   153     3     2    1
   154    88    89    1
   155    91    89   am
   156    91    92    1
   157    95    92    1
   158    95    96    1
   159     2     1    1
   160     2     5    1
   161    89    90    2
   162     6     8    1
   163     6     5    1
   164    97    96   ar
   165    97    99   ar
   166    92    93    1
   167    96    98   ar
   168     5     7    1
   169    94    93    2
   170    99   100   ar
   171    98   100   ar
