@<TRIPOS>MOLECULE
tmp/5izmB00.pdb
 164 158 0 0 0
SMALL
GASTEIGER

@<TRIPOS>ATOM
      1  N         17.6940   -7.6050   31.4450 N.3    13  ILE13      -0.1231
      2  CA        17.1110   -6.6850   30.4730 C.3    13  ILE13       0.1692
      3  C         18.2030   -5.8600   29.8060 C.2    13  ILE13       0.2592
      4  O         17.9160   -4.8960   29.0890 O.2    13  ILE13      -0.2718
      5  CB        16.0700   -5.7630   31.1330 C.3    13  ILE13       0.0266
      6  CG1       15.6500   -4.6390   30.1120 C.3    13  ILE13       0.0019
      7  CG2       16.5810   -5.0880   32.4230 C.3    13  ILE13       0.0020
      8  CD1       14.3570   -3.9460   30.6430 C.3    13  ILE13       0.0001
      9  N         19.4620   -6.2310   30.0310 N.am   14  ASP14      -0.1960
     10  CA        20.6010   -5.5100   29.4750 C.3    14  ASP14       0.1840
     11  C         21.6780   -6.5150   29.0720 C.2    14  ASP14       0.2623
     12  O         22.7720   -6.5830   29.6250 O.2    14  ASP14      -0.2715
     13  CB        21.1330   -4.4870   30.4740 C.3    14  ASP14       0.1450
     14  CG        22.0360   -3.4380   29.8670 C.2    14  ASP14       0.3671
     15  OD1       22.2470   -3.3830   28.6660 O.co2  14  ASP14      -0.2456
     16  OD2       22.4630   -2.5400   30.5960 O.co2  14  ASP14      -0.2456
     17  N         21.3740   -7.3160   28.0790 N.am   15  SER15      -0.1936
     18  CA        22.2560   -8.4140   27.7590 C.3    15  SER15       0.2055
     19  C         22.6420   -8.4690   26.2950 C.2    15  SER15       0.2644
     20  O         23.7310   -8.9490   25.9700 O.2    15  SER15      -0.2714
     21  CB        21.5950   -9.7330   28.1760 C.3    15  SER15       0.2130
     22  OG        21.4540   -9.8020   29.5830 O.3    15  SER15      -0.2179
     23  N         21.8040   -7.9520   25.4120 N.am   16  GLY16      -0.1939
     24  CA        21.9710   -8.1870   24.0010 C.3    16  GLY16       0.2014
     25  C         21.4220   -9.5140   23.5220 C.2    16  GLY16       0.2639
     26  O         21.7840   -9.9510   22.4340 O.2    16  GLY16      -0.2714
     27  N         20.5970  -10.1800   24.3310 N.am   17  LYS17      -0.1963
     28  CA        19.8440  -11.3640   23.9200 C.3    17  LYS17       0.1728
     29  C         19.3520  -11.2890   22.4830 C.2    17  LYS17       0.2617
     30  O         19.7120  -12.1200   21.6440 O.2    17  LYS17      -0.2715
     31  CB        18.6760  -11.5060   24.8730 C.3    17  LYS17       0.0311
     32  CG        19.1950  -11.4920   26.2580 C.3    17  LYS17       0.0038
     33  CD        18.0910  -11.7170   27.1900 C.3    17  LYS17       0.0206
     34  CE        17.2050  -10.5160   27.2290 C.3    17  LYS17       0.1093
     35  NZ        16.5930  -10.5230   28.5680 N.3    17  LYS17      -0.1314
     36  N         18.5110  -10.3140   22.1880 N.am   18  THR18      -0.1937
     37  CA        18.1190  -10.0240   20.8200 C.3    18  THR18       0.2028
     38  C         19.2970   -9.5120   19.9920 C.2    18  THR18       0.2642
     39  O         19.3860   -9.7900   18.7920 O.2    18  THR18      -0.2714
     40  CB        16.9940   -8.9940   20.8310 C.3    18  THR18       0.1808
     41  OG1       15.9610   -9.4620   21.7040 O.3    18  THR18      -0.2208
     42  CG2       16.4440   -8.8150   19.4410 C.3    18  THR18       0.0379
     43  N         20.1960   -8.7410   20.6080 N.am   19  ALA19      -0.1977
     44  CA        21.4200   -8.3190   19.9280 C.3    19  ALA19       0.1597
     45  C         22.2760   -9.5240   19.6030 C.2    19  ALA19       0.2287
     46  O         22.9590   -9.5630   18.5820 O.2    19  ALA19      -0.2864
     47  CB        22.2070   -7.3460   20.7670 C.3    19  ALA19       0.0319
     48  N         20.0070  -12.1680   16.8750 N.3    22  ARG22      -0.1245
     49  CA        20.1860  -11.8460   15.4650 C.3    22  ARG22       0.1563
     50  C         21.6160  -12.1420   15.0270 C.2    22  ARG22       0.2260
     51  O         21.8470  -12.6150   13.9140 O.2    22  ARG22      -0.2867
     52  CB        19.8430  -10.3790   15.1970 C.3    22  ARG22       0.0307
     53  CG        18.3660  -10.0550   15.1220 C.3    22  ARG22       0.0489
     54  CD        18.0670   -8.5880   15.0120 C.3    22  ARG22       0.2205
     55  NE        18.5560   -7.8320   16.1450 N.pl3  22  ARG22      -0.0865
     56  CZ        19.0250   -6.5620   16.1210 C.cat  22  ARG22       0.5346
     57  NH1       19.0860   -5.8830   15.0010 N.pl3  22  ARG22       0.1354
     58  NH2       19.5330   -6.1150   17.2610 N.pl3  22  ARG22       0.1354
     59  N         13.9750   -2.1280   19.0320 N.3    29  GLY29      -0.1210
     60  CA        13.8550   -1.5540   20.3600 C.3    29  GLY29       0.1956
     61  C         13.9650   -2.5930   21.4600 C.2    29  GLY29       0.2612
     62  O         14.7960   -3.5010   21.3880 O.2    29  GLY29      -0.2717
     63  N         13.1190   -2.4750   22.4830 N.am   30  ILE30      -0.1965
     64  CA        13.1120   -3.4250   23.5880 C.3    30  ILE30       0.1727
     65  C         12.0340   -4.4690   23.3430 C.2    30  ILE30       0.2616
     66  O         11.0020   -4.2070   22.7130 O.2    30  ILE30      -0.2715
     67  CB        12.9180   -2.7280   24.9520 C.3    30  ILE30       0.0290
     68  CG1       11.6920   -1.8090   24.9310 C.3    30  ILE30       0.0022
     69  CG2       14.1860   -1.9680   25.3480 C.3    30  ILE30       0.0023
     70  CD1       10.4580   -2.4160   25.5610 C.3    30  ILE30       0.0001
     71  N         12.2830   -5.6720   23.8470 N.am   31  THR31      -0.1951
     72  CA        11.4420   -6.8160   23.5380 C.3    31  THR31       0.1897
     73  C         10.2100   -6.8300   24.4350 C.2    31  THR31       0.2313
     74  O         10.3010   -6.5930   25.6440 O.2    31  THR31      -0.2863
     75  CB        12.2460   -8.1080   23.6990 C.3    31  THR31       0.1794
     76  OG1       13.5730   -7.9100   23.1870 O.3    31  THR31      -0.2208
     77  CG2       11.5940   -9.2430   22.9320 C.3    31  THR31       0.0378
     78  N         13.5480  -13.8130   24.6870 N.3    62  CYS62      -0.1221
     79  CA        12.5670  -13.3380   25.6390 C.3    62  CYS62       0.1794
     80  C         12.8200  -11.8810   25.9820 C.2    62  CYS62       0.2443
     81  O         13.9340  -11.3760   25.8070 O.2    62  CYS62      -0.2733
     82  CB        12.6180  -14.1890   26.9170 C.3    62  CYS62       0.0970
     83  SG        12.3130  -15.9600   26.6600 S.3    62  CYS62      -0.0800
     84  N         11.8000  -11.1760   26.4610 N.am   63  PRO63      -0.2718
     85  CA        12.0350   -9.8450   27.0210 C.3    63  PRO63       0.1535
     86  C         12.8690   -9.9420   28.2840 C.2    63  PRO63       0.2599
     87  O         13.0000  -11.0010   28.8990 O.2    63  PRO63      -0.2715
     88  CB        10.6250   -9.3300   27.3250 C.3    63  PRO63       0.0310
     89  CG         9.8100  -10.5660   27.4820 C.3    63  PRO63       0.0237
     90  CD        10.3760  -11.5470   26.5050 C.3    63  PRO63       0.0939
     91  N         13.4450   -8.8130   28.6670 N.am   64  GLY64      -0.1941
     92  CA        14.2390   -8.7970   29.8730 C.3    64  GLY64       0.2014
     93  C         13.6040   -7.9830   30.9740 C.2    64  GLY64       0.2638
     94  O         13.8800   -8.2040   32.1560 O.2    64  GLY64      -0.2714
     95  N         12.7560   -7.0330   30.5920 N.am   65  HIS65      -0.1973
     96  CA        12.2080   -6.0850   31.5520 C.3    65  HIS65       0.1656
     97  C         11.3970   -6.8170   32.6100 C.2    65  HIS65       0.2291
     98  O         10.4670   -7.5630   32.2920 O.2    65  HIS65      -0.2864
     99  CB        11.3530   -5.0470   30.8300 C.3    65  HIS65       0.0771
    100  CG        10.8740   -3.9340   31.7110 C.ar   65  HIS65       0.0820
    101  ND1       11.6670   -3.3490   32.6760 N.ar   65  HIS65      -0.2267
    102  CD2        9.6860   -3.2880   31.7600 C.ar   65  HIS65       0.1154
    103  CE1       10.9840   -2.3970   33.2870 C.ar   65  HIS65       0.1986
    104  NE2        9.7780   -2.3410   32.7500 N.ar   65  HIS65      -0.2212
    105  N         28.3900  -12.0570   27.3740 N.3   112  ASN112     -0.1225
    106  CA        28.4370  -11.1330   26.2800 C.3   112  ASN112      0.1785
    107  C         28.9320   -9.8210   26.6940 C.2   112  ASN112      0.2597
    108  O         29.2170   -9.6080   27.8350 O.2   112  ASN112     -0.2718
    109  CB        27.0550  -10.9640   25.7200 C.3   112  ASN112      0.1169
    110  CG        27.0610  -10.2440   24.4490 C.2   112  ASN112      0.2627
    111  OD1       27.9080   -9.4530   24.2320 O.2   112  ASN112     -0.2716
    112  ND2       26.1550  -10.5390   23.5910 N.am  112  ASN112     -0.0877
    113  N         29.0560   -8.8670   25.7670 N.am  113  LYS113     -0.1980
    114  CA        29.5600   -7.5170   26.0550 C.3   113  LYS113      0.1596
    115  C         31.0010   -7.5910   26.5520 C.2   113  LYS113      0.2287
    116  O         31.3560   -7.1210   27.6310 O.2   113  LYS113     -0.2864
    117  CB        28.6460   -6.7720   27.0370 C.3   113  LYS113      0.0298
    118  CG        27.5970   -5.8810   26.3840 C.3   113  LYS113      0.0038
    119  CD        26.4750   -5.6000   27.3340 C.3   113  LYS113      0.0206
    120  CE        25.8840   -4.2320   27.1530 C.3   113  LYS113      0.1093
    121  NZ        24.7880   -4.2980   26.1630 N.3   113  LYS113     -0.1314
    122  N         33.9330   -6.9500   24.3700 N.3   115  ASP115     -0.1225
    123  CA        34.7520   -5.8310   23.9230 C.3   115  ASP115      0.1805
    124  C         34.9250   -4.7880   25.0160 C.2   115  ASP115      0.2597
    125  O         36.0200   -4.2480   25.1830 O.2   115  ASP115     -0.2718
    126  CB        34.1330   -5.1820   22.6820 C.3   115  ASP115      0.1424
    127  CG        32.8230   -4.4220   22.9640 C.2   115  ASP115      0.3668
    128  OD1       32.3230   -4.3160   24.1020 O.co2 115  ASP115     -0.2456
    129  OD2       32.2920   -3.8950   21.9890 O.co2 115  ASP115     -0.2456
    130  N         33.8450   -4.4710   25.7470 N.am  116  LEU116     -0.1979
    131  CA        33.7920   -3.3560   26.6940 C.3   116  LEU116      0.1596
    132  C         34.9560   -3.4880   27.6440 C.2   116  LEU116      0.2287
    133  O         35.5740   -2.5030   28.0630 O.2   116  LEU116     -0.2864
    134  CB        32.4790   -3.3350   27.4960 C.3   116  LEU116      0.0297
    135  CG        32.1890   -2.0260   28.2650 C.3   116  LEU116      0.0022
    136  CD1       30.6820   -1.8210   28.4500 C.3   116  LEU116      0.0001
    137  CD2       32.9400   -1.8690   29.6250 C.3   116  LEU116      0.0001
    138  N         30.7320  -11.5940   21.9560 N.3   147  ALA147     -0.1231
    139  CA        30.3470  -10.1950   21.8670 C.3   147  ALA147      0.1694
    140  C         29.4520  -10.0140   20.6540 C.2   147  ALA147      0.2592
    141  O         29.8800  -10.2400   19.5220 O.2   147  ALA147     -0.2718
    142  CB        31.5700   -9.3000   21.7760 C.3   147  ALA147      0.0304
    143  N         28.2090   -9.6080   20.8920 N.am  148  ALA148     -0.1966
    144  CA        27.2520   -9.3960   19.8140 C.3   148  ALA148      0.1728
    145  C         27.5270   -8.0870   19.0810 C.2   148  ALA148      0.2616
    146  O         27.7080   -8.0730   17.8630 O.2   148  ALA148     -0.2715
    147  CB        25.8300   -9.4150   20.3550 C.3   148  ALA148      0.0334
    148  N         27.5570   -6.9890   19.8300 N.am  149  LYS149     -0.1977
    149  CA        27.8090   -5.6750   19.2510 C.3   149  LYS149      0.1596
    150  C         29.0760   -5.0510   19.8270 C.2   149  LYS149      0.2287
    151  O         29.1210   -4.6860   21.0020 O.2   149  LYS149     -0.2864
    152  CB        26.6140   -4.7490   19.4850 C.3   149  LYS149      0.0298
    153  CG        25.3100   -5.2590   18.8870 C.3   149  LYS149      0.0038
    154  CD        25.2230   -5.1280   17.4060 C.3   149  LYS149      0.0206
    155  CE        23.8540   -5.3240   16.7360 C.3   149  LYS149      0.1093
    156  NZ        23.5670   -6.7870   16.6490 N.3   149  LYS149     -0.1314
    157  N         30.5950   -2.2140   20.2800 N.3   151  GLY151     -0.1210
    158  CA        30.4850   -0.7680   20.3340 C.3   151  GLY151      0.1956
    159  C         29.0450   -0.2950   20.2950 C.2   151  GLY151      0.2612
    160  O         28.2480   -0.7670   19.4840 O.2   151  GLY151     -0.2717
    161  N         28.7110    0.6420   21.1760 N.am  152  GLY152     -0.1956
    162  CA        27.3650    1.1800   21.2440 C.3   152  GLY152      0.1869
    163  C         26.8730    1.6820   19.9010 C.2   152  GLY152      0.2309
    164  O         25.7710    1.3450   19.4670 O.2   152  GLY152     -0.2863
@<TRIPOS>BOND
     1    51    50    2
     2    57    56    1
     3    54    53    1
     4    54    55    1
     5    50    49    1
     6    53    52    1
     7    52    49    1
     8    49    48    1
     9    56    55    2
    10    56    58    1
    11   156   155    1
    12   155   154    1
    13   154   153    1
    14   146   145    2
    15    46    45    2
    16    39    38    2
    17   153   152    1
    18    59    60    1
    19   145   144    1
    20   145   148   am
    21   149   152    1
    22   149   150    1
    23   149   148    1
    24    42    40    1
    25   164   163    2
    26   160   159    2
    27   141   140    2
    28    45    44    1
    29   144   147    1
    30   144   143    1
    31   150   151    2
    32   163   162    1
    33    44    43    1
    34    44    47    1
    35    38    43   am
    36    38    37    1
    37   157   158    1
    38   159   158    1
    39   159   161   am
    40    60    61    1
    41   140   143   am
    42   140   139    1
    43    37    40    1
    44    37    36    1
    45    40    41    1
    46   161   162    1
    47    62    61    2
    48    61    63   am
    49    30    29    2
    50   142   139    1
    51   139   138    1
    52   129   127   ar
    53    36    29   am
    54    26    25    2
    55    29    28    1
    56    63    64    1
    57   126   127    1
    58   126   123    1
    59    66    65    2
    60    77    75    1
    61   127   128   ar
    62    76    75    1
    63    65    64    1
    64    65    71   am
    65    25    24    1
    66    25    27   am
    67    72    75    1
    68    72    71    1
    69    72    73    1
    70    64    67    1
    71   112   110   am
    72    28    27    1
    73    28    31    1
    74   123   122    1
    75   123   124    1
    76    24    23    1
    77   111   110    2
    78    73    74    2
    79   110   109    1
    80    78    79    1
    81    31    32    1
    82    68    67    1
    83    68    70    1
    84    67    69    1
    85   124   125    2
    86   124   130   am
    87    23    19   am
    88    79    80    1
    89    79    82    1
    90   109   106    1
    91   130   131    1
    92   113   114    1
    93   113   107   am
    94    81    80    2
    95    20    19    2
    96    80    84   am
    97   114   115    1
    98   114   117    1
    99   121   120    1
   100    32    33    1
   101   106   107    1
   102   106   105    1
   103    19    18    1
   104   118   117    1
   105   118   119    1
   106    84    90    1
   107    84    85    1
   108    90    89    1
   109   115   116    2
   110    83    82    1
   111   131   134    1
   112   131   132    1
   113   107   108    2
   114    85    88    1
   115    85    86    1
   116   120   119    1
   117    33    34    1
   118    34    35    1
   119    88    89    1
   120   134   135    1
   121   132   133    2
   122    18    17    1
   123    18    21    1
   124    17    11   am
   125    21    22    1
   126   135   136    1
   127   135   137    1
   128    86    91   am
   129    86    87    2
   130    15    14   ar
   131    91    92    1
   132    11    10    1
   133    11    12    2
   134     4     3    2
   135    10     9    1
   136    10    13    1
   137     3     9   am
   138     3     2    1
   139    14    13    1
   140    14    16   ar
   141    92    93    1
   142     6     8    1
   143     6     5    1
   144     2     5    1
   145     2     1    1
   146    95    93   am
   147    95    96    1
   148    99    96    1
   149    99   100    1
   150    93    94    2
   151     5     7    1
   152    96    97    1
   153   100   102   ar
   154   100   101   ar
   155   102   104   ar
   156    98    97    2
   157   101   103   ar
   158   104   103   ar
