@<TRIPOS>MOLECULE
tmp/5izrC00.pdb
 222 218 0 0 0
SMALL
GASTEIGER

@<TRIPOS>ATOM
      1  N        -52.8030   82.3310   27.7320 N.3   274  GLY274     -0.1210
      2  CA       -52.9300   80.9040   27.5330 C.3   274  GLY274      0.1956
      3  C        -51.8530   80.1860   28.2920 C.2   274  GLY274      0.2612
      4  O        -51.2410   80.7520   29.1940 O.2   274  GLY274     -0.2717
      5  N        -51.6350   78.9300   27.9150 N.am  275  GLY275     -0.1942
      6  CA       -50.5470   78.1120   28.4560 C.3   275  GLY275      0.2014
      7  C        -50.9390   76.6930   28.8580 C.2   275  GLY275      0.2639
      8  O        -50.4980   76.1880   29.8970 O.2   275  GLY275     -0.2714
      9  N        -51.7700   76.0490   28.0470 N.am  276  GLY276     -0.1954
     10  CA       -52.1890   74.6720   28.2910 C.3   276  GLY276      0.1869
     11  C        -52.6490   74.3470   29.7030 C.2   276  GLY276      0.2309
     12  O        -53.3400   75.1380   30.3610 O.2   276  GLY276     -0.2863
     13  N        -57.6160   83.0940   27.0200 N.3   305  ILE305     -0.1231
     14  CA       -57.2440   82.4560   25.7580 C.3   305  ILE305      0.1692
     15  C        -56.7430   81.0550   26.0420 C.2   305  ILE305      0.2593
     16  O        -56.1680   80.8050   27.0940 O.2   305  ILE305     -0.2718
     17  CB       -56.1170   83.2130   25.0220 C.3   305  ILE305      0.0266
     18  CG1      -56.3100   84.7290   25.1380 C.3   305  ILE305      0.0019
     19  CG2      -56.0630   82.7850   23.5600 C.3   305  ILE305      0.0020
     20  CD1      -55.3730   85.5560   24.2760 C.3   305  ILE305      0.0001
     21  N        -56.9790   80.1520   25.0980 N.am  306  SER306     -0.1938
     22  CA       -56.3950   78.8010   25.0900 C.3   306  SER306      0.2055
     23  C        -56.6280   77.9930   26.3920 C.2   306  SER306      0.2643
     24  O        -57.7740   77.7040   26.7200 O.2   306  SER306     -0.2714
     25  CB       -54.9170   78.8670   24.6740 C.3   306  SER306      0.2130
     26  OG       -54.5590   77.6530   24.0330 O.3   306  SER306     -0.2179
     27  N        -55.5720   77.6120   27.1120 N.am  307  GLY307     -0.1954
     28  CA       -55.7010   76.9210   28.4120 C.3   307  GLY307      0.1869
     29  C        -56.6420   77.5680   29.4310 C.2   307  GLY307      0.2309
     30  O        -57.4700   76.8860   30.0160 O.2   307  GLY307     -0.2863
     31  N        -60.1830   76.4960   29.4330 N.3   310  TRP310     -0.1241
     32  CA       -60.5420   75.1960   30.0030 C.3   310  TRP310      0.1605
     33  C        -61.0650   75.3850   31.4230 C.2   310  TRP310      0.2264
     34  O        -62.1540   74.9240   31.7750 O.2   310  TRP310     -0.2867
     35  CB       -59.3450   74.2560   30.0070 C.3   310  TRP310      0.0550
     36  CG       -58.6990   74.0770   28.6620 C.ar  310  TRP310      0.0003
     37  CD1      -59.1820   74.4710   27.4430 C.ar  310  TRP310      0.0946
     38  CD2      -57.4560   73.4380   28.4070 C.ar  310  TRP310      0.0152
     39  NE1      -58.3030   74.1230   26.4510 N.ar  310  TRP310     -0.2442
     40  CE2      -57.2380   73.4790   27.0170 C.ar  310  TRP310      0.0810
     41  CE3      -56.4970   72.8270   29.2230 C.ar  310  TRP310      0.0012
     42  CZ2      -56.1040   72.9320   26.4250 C.ar  310  TRP310      0.0191
     43  CZ3      -55.3620   72.2860   28.6290 C.ar  310  TRP310      0.0001
     44  CH2      -55.1780   72.3410   27.2460 C.ar  310  TRP310      0.0015
     45  N        -56.2030   57.2890   23.5800 N.3   345  PHE345     -0.1241
     46  CA       -55.7400   56.8970   22.2460 C.3   345  PHE345      0.1605
     47  C        -55.9780   55.4260   21.8940 C.2   345  PHE345      0.2264
     48  O        -55.5000   54.9500   20.8590 O.2   345  PHE345     -0.2867
     49  CB       -54.2560   57.2270   22.1110 C.3   345  PHE345      0.0534
     50  CG       -53.9540   58.6730   22.3020 C.ar  345  PHE345     -0.0203
     51  CD1      -54.2140   59.5810   21.2900 C.ar  345  PHE345     -0.0042
     52  CD2      -53.4110   59.1320   23.4970 C.ar  345  PHE345     -0.0042
     53  CE1      -53.9290   60.9250   21.4680 C.ar  345  PHE345     -0.0003
     54  CE2      -53.1290   60.4720   23.6820 C.ar  345  PHE345     -0.0003
     55  CZ       -53.3890   61.3720   22.6650 C.ar  345  PHE345     -0.0000
     56  N        -59.4880   69.0280   11.2240 N.3   368  PHE368     -0.1241
     57  CA       -58.6210   68.4560   12.2510 C.3   368  PHE368      0.1605
     58  C        -59.0320   69.0070   13.6250 C.2   368  PHE368      0.2264
     59  O        -59.0950   68.2680   14.6070 O.2   368  PHE368     -0.2867
     60  CB       -57.1560   68.7990   11.9400 C.3   368  PHE368      0.0534
     61  CG       -56.1650   67.8130   12.4850 C.ar  368  PHE368     -0.0203
     62  CD1      -55.1340   67.3330   11.6780 C.ar  368  PHE368     -0.0042
     63  CD2      -56.2520   67.3610   13.8090 C.ar  368  PHE368     -0.0042
     64  CE1      -54.2100   66.4290   12.1810 C.ar  368  PHE368     -0.0003
     65  CE2      -55.3360   66.4550   14.3150 C.ar  368  PHE368     -0.0003
     66  CZ       -54.3140   65.9870   13.4990 C.ar  368  PHE368     -0.0000
     67  N        -59.3970   67.2560   17.3900 N.3   372  TRP372     -0.1241
     68  CA       -58.7370   67.8430   18.5520 C.3   372  TRP372      0.1605
     69  C        -59.7580   68.1790   19.6390 C.2   372  TRP372      0.2264
     70  O        -59.4550   68.0770   20.8190 O.2   372  TRP372     -0.2867
     71  CB       -57.9350   69.0880   18.1360 C.3   372  TRP372      0.0550
     72  CG       -57.4430   69.9500   19.2780 C.ar  372  TRP372      0.0003
     73  CD1      -57.6050   71.3020   19.4170 C.ar  372  TRP372      0.0946
     74  CD2      -56.7140   69.5150   20.4210 C.ar  372  TRP372      0.0152
     75  NE1      -57.0190   71.7330   20.5750 N.ar  372  TRP372     -0.2442
     76  CE2      -56.4640   70.6560   21.2140 C.ar  372  TRP372      0.0810
     77  CE3      -56.2510   68.2750   20.8570 C.ar  372  TRP372      0.0012
     78  CZ2      -55.7690   70.5890   22.4210 C.ar  372  TRP372      0.0191
     79  CZ3      -55.5600   68.2080   22.0610 C.ar  372  TRP372      0.0001
     80  CH2      -55.3250   69.3570   22.8270 C.ar  372  TRP372      0.0015
     81  N        -60.5330   64.7110   21.3640 N.3   375  VAL375     -0.1245
     82  CA       -59.4870   64.1640   22.2310 C.3   375  VAL375      0.1561
     83  C        -59.2880   65.0610   23.4500 C.2   375  VAL375      0.2260
     84  O        -59.0170   64.5750   24.5390 O.2   375  VAL375     -0.2867
     85  CB       -58.1370   63.9210   21.5060 C.3   375  VAL375      0.0252
     86  CG1      -58.3530   63.2810   20.1390 C.3   375  VAL375      0.0019
     87  CG2      -57.3280   65.2020   21.3590 C.3   375  VAL375      0.0019
     88  N        -59.5110   64.1430   27.3250 N.3   379  MET379     -0.1245
     89  CA       -58.4570   64.3380   28.3390 C.3   379  MET379      0.1570
     90  C        -58.9360   65.1920   29.5070 C.2   379  MET379      0.2261
     91  O        -58.6430   64.9060   30.6600 O.2   379  MET379     -0.2867
     92  CB       -57.2290   64.9960   27.7180 C.3   379  MET379      0.0387
     93  CG       -56.4990   64.0930   26.7460 C.3   379  MET379      0.0595
     94  SD       -55.2470   64.9650   25.8010 S.3   379  MET379     -0.1393
     95  CE       -54.1140   65.4010   27.1210 C.3   379  MET379      0.0692
     96  N        -58.2070   76.8220   21.6060 N.3   461  SER461     -0.1202
     97  CA       -56.9210   76.2930   22.0420 C.3   461  SER461      0.2020
     98  C        -56.3390   75.3720   20.9810 C.2   461  SER461      0.2619
     99  O        -55.6750   74.3790   21.2910 O.2   461  SER461     -0.2717
    100  CB       -57.0920   75.5660   23.3730 C.3   461  SER461      0.2103
    101  OG       -58.0960   74.5750   23.2810 O.3   461  SER461     -0.2182
    102  N        -56.5820   75.7130   19.7190 N.am  462  ASN462     -0.1960
    103  CA       -56.0430   74.9470   18.6090 C.3   462  ASN462      0.1819
    104  C        -54.5400   75.0870   18.5570 C.2   462  ASN462      0.2621
    105  O        -53.9950   76.1900   18.6900 O.2   462  ASN462     -0.2715
    106  CB       -56.6330   75.4010   17.2710 C.3   462  ASN462      0.1195
    107  CG       -55.9770   74.7180   16.0860 C.2   462  ASN462      0.2630
    108  OD1      -55.4790   73.5920   16.1950 O.2   462  ASN462     -0.2716
    109  ND2      -55.9670   75.3960   14.9460 N.am  462  ASN462     -0.0877
    110  N        -53.8820   73.9600   18.3160 N.am  463  ILE463     -0.1963
    111  CA       -52.4270   73.9400   18.2440 C.3   463  ILE463      0.1727
    112  C        -51.8740   73.3490   16.9570 C.2   463  ILE463      0.2616
    113  O        -50.6590   73.2140   16.8250 O.2   463  ILE463     -0.2715
    114  CB       -51.7970   73.2430   19.4560 C.3   463  ILE463      0.0290
    115  CG1      -52.4960   71.9190   19.7360 C.3   463  ILE463      0.0022
    116  CG2      -51.9110   74.1730   20.6500 C.3   463  ILE463      0.0023
    117  CD1      -51.5470   70.8520   20.2270 C.3   463  ILE463      0.0001
    118  N        -52.7460   73.0720   15.9890 N.am  464  PHE464     -0.1974
    119  CA       -52.3440   72.3730   14.7760 C.3   464  PHE464      0.1639
    120  C        -52.3880   73.2470   13.5340 C.2   464  PHE464      0.2290
    121  O        -53.2660   74.0940   13.3990 O.2   464  PHE464     -0.2864
    122  CB       -53.2460   71.1670   14.5710 C.3   464  PHE464      0.0560
    123  CG       -53.2320   70.2230   15.7280 C.ar  464  PHE464     -0.0200
    124  CD1      -52.1250   69.4420   15.9690 C.ar  464  PHE464     -0.0042
    125  CD2      -54.3100   70.1390   16.5890 C.ar  464  PHE464     -0.0042
    126  CE1      -52.0910   68.5770   17.0410 C.ar  464  PHE464     -0.0003
    127  CE2      -54.2890   69.2630   17.6600 C.ar  464  PHE464     -0.0003
    128  CZ       -53.1740   68.4800   17.8860 C.ar  464  PHE464     -0.0000
    129  N        -45.1360   61.6760   21.7700 N.3   471  TRP471     -0.1227
    130  CA       -46.3430   61.9090   20.9620 C.3   471  TRP471      0.1737
    131  C        -46.1280   61.8060   19.4430 C.2   471  TRP471      0.2595
    132  O        -46.7770   62.5040   18.6660 O.2   471  TRP471     -0.2718
    133  CB       -47.0710   63.2050   21.3740 C.3   471  TRP471      0.0564
    134  CG       -46.3470   64.5230   21.1660 C.ar  471  TRP471      0.0003
    135  CD1      -45.0800   64.8500   21.5640 C.ar  471  TRP471      0.0946
    136  CD2      -46.8890   65.7090   20.5680 C.ar  471  TRP471      0.0152
    137  NE1      -44.7920   66.1460   21.2210 N.ar  471  TRP471     -0.2442
    138  CE2      -45.8850   66.6980   20.6120 C.ar  471  TRP471      0.0810
    139  CE3      -48.1190   66.0250   19.9850 C.ar  471  TRP471      0.0012
    140  CZ2      -46.0740   67.9820   20.0980 C.ar  471  TRP471      0.0191
    141  CZ3      -48.3040   67.3000   19.4740 C.ar  471  TRP471      0.0001
    142  CH2      -47.2890   68.2620   19.5350 C.ar  471  TRP471      0.0015
    143  N        -45.2040   60.9320   19.0400 N.am  472  LEU472     -0.1980
    144  CA       -45.1440   60.4090   17.6710 C.3   472  LEU472      0.1596
    145  C        -45.8560   59.0440   17.6220 C.2   472  LEU472      0.2287
    146  O        -46.0340   58.4720   16.5490 O.2   472  LEU472     -0.2864
    147  CB       -43.6840   60.2660   17.1830 C.3   472  LEU472      0.0297
    148  CG       -42.8580   61.5430   16.8920 C.3   472  LEU472      0.0022
    149  CD1      -41.4350   61.4120   17.4200 C.3   472  LEU472      0.0001
    150  CD2      -42.8220   61.9060   15.4100 C.3   472  LEU472      0.0001
    151  N        -49.0490   58.1480   19.6840 N.3   474  PRO474     -0.2102
    152  CA       -50.4880   58.3350   19.5230 C.3   474  PRO474      0.1504
    153  C        -50.8340   58.8870   18.1390 C.2   474  PRO474      0.2576
    154  O        -51.9300   58.6420   17.6290 O.2   474  PRO474     -0.2718
    155  CB       -50.8430   59.3530   20.6100 C.3   474  PRO474      0.0282
    156  CG       -49.6750   59.3910   21.5330 C.3   474  PRO474      0.0208
    157  CD       -48.4910   59.0630   20.6890 C.3   474  PRO474      0.0893
    158  N        -49.9000   59.6300   17.5480 N.am  475  GLY475     -0.1957
    159  CA       -50.0100   60.0650   16.1600 C.3   475  GLY475      0.1869
    160  C        -50.1400   58.9150   15.1750 C.2   475  GLY475      0.2309
    161  O        -50.9470   58.9830   14.2470 O.2   475  GLY475     -0.2863
    162  N        -53.5550   57.0320   16.0690 N.3   478  LEU478     -0.1245
    163  CA       -54.6340   57.7970   15.4000 C.3   478  LEU478      0.1561
    164  C        -54.7990   57.3800   13.9030 C.2   478  LEU478      0.2260
    165  O        -55.9120   57.4250   13.3820 O.2   478  LEU478     -0.2867
    166  CB       -54.4650   59.3260   15.6520 C.3   478  LEU478      0.0270
    167  CG       -55.0110   59.9340   16.9710 C.3   478  LEU478      0.0019
    168  CD1      -55.1890   61.4420   16.8380 C.3   478  LEU478      0.0001
    169  CD2      -56.3450   59.3310   17.4060 C.3   478  LEU478      0.0001
    170  N        -46.4860   70.5640   11.5170 N.3   499  LEU499     -0.1245
    171  CA       -47.4700   69.7430   12.2150 C.3   499  LEU499      0.1561
    172  C        -48.3030   70.6050   13.1700 C.2   499  LEU499      0.2260
    173  O        -49.5210   70.4540   13.2510 O.2   499  LEU499     -0.2867
    174  CB       -46.7250   68.6620   12.9750 C.3   499  LEU499      0.0270
    175  CG       -47.4620   67.3970   13.3910 C.3   499  LEU499      0.0019
    176  CD1      -46.4370   66.3950   13.8980 C.3   499  LEU499      0.0001
    177  CD2      -48.5210   67.6750   14.4460 C.3   499  LEU499      0.0001
    178  N        -49.9460   82.8400   18.2780 N.3   506  TYR506     -0.1227
    179  CA       -50.7900   81.8020   18.8650 C.3   506  TYR506      0.1736
    180  C        -50.4500   81.4600   20.3120 C.2   506  TYR506      0.2595
    181  O        -51.3390   81.1660   21.1090 O.2   506  TYR506     -0.2718
    182  CB       -50.7220   80.5410   18.0100 C.3   506  TYR506      0.0548
    183  CG       -51.4290   80.7010   16.6830 C.ar  506  TYR506     -0.0200
    184  CD1      -52.8060   80.8650   16.6330 C.ar  506  TYR506     -0.0009
    185  CD2      -50.7310   80.6900   15.4810 C.ar  506  TYR506     -0.0009
    186  CE1      -53.4670   81.0140   15.4270 C.ar  506  TYR506      0.0417
    187  CE2      -51.3860   80.8380   14.2720 C.ar  506  TYR506      0.0417
    188  CZ       -52.7470   81.0020   14.2510 C.ar  506  TYR506      0.1957
    189  OH       -53.3870   81.1530   13.0510 O.3   506  TYR506     -0.2866
    190  N        -49.1710   81.5350   20.6570 N.am  507  PHE507     -0.1976
    191  CA       -48.7220   81.1640   21.9940 C.3   507  PHE507      0.1639
    192  C        -48.3180   82.3330   22.8880 C.2   507  PHE507      0.2290
    193  O        -48.0750   82.1170   24.0630 O.2   507  PHE507     -0.2864
    194  CB       -47.5470   80.2130   21.8820 C.3   507  PHE507      0.0560
    195  CG       -47.7740   79.0970   20.9180 C.ar  507  PHE507     -0.0200
    196  CD1      -47.4150   79.2360   19.5900 C.ar  507  PHE507     -0.0042
    197  CD2      -48.3550   77.9160   21.3370 C.ar  507  PHE507     -0.0042
    198  CE1      -47.6150   78.2100   18.6960 C.ar  507  PHE507     -0.0003
    199  CE2      -48.5690   76.8850   20.4530 C.ar  507  PHE507     -0.0003
    200  CZ       -48.1960   77.0330   19.1290 C.ar  507  PHE507     -0.0000
    201  N        -45.6060   73.0660   28.0780 N.3   620  LEU620     -0.1231
    202  CA       -46.8690   73.1500   27.3150 C.3   620  LEU620      0.1693
    203  C        -47.3290   71.7760   26.8040 C.2   620  LEU620      0.2592
    204  O        -48.5000   71.4350   26.9090 O.2   620  LEU620     -0.2718
    205  CB       -46.7080   74.1340   26.1450 C.3   620  LEU620      0.0284
    206  CG       -47.9510   74.5610   25.3520 C.3   620  LEU620      0.0019
    207  CD1      -48.9140   75.3590   26.2090 C.3   620  LEU620      0.0001
    208  CD2      -47.5430   75.3810   24.1340 C.3   620  LEU620      0.0001
    209  N        -46.3770   71.0230   26.2440 N.am  621  SER621     -0.1952
    210  CA       -46.5210   69.6030   25.8540 C.3   621  SER621      0.1924
    211  C        -47.3170   68.7520   26.8220 C.2   621  SER621      0.2314
    212  O        -48.2120   68.0160   26.4210 O.2   621  SER621     -0.2863
    213  CB       -45.1260   68.9400   25.7600 C.3   621  SER621      0.2116
    214  OG       -44.4870   69.1830   24.5240 O.3   621  SER621     -0.2180
    215  N        -49.6010   67.0210   29.5180 N.3   623  MET623     -0.1245
    216  CA       -50.9970   67.0830   29.9260 C.3   623  MET623      0.1570
    217  C        -51.4140   65.9940   30.9180 C.2   623  MET623      0.2261
    218  O        -52.6060   65.7170   31.0710 O.2   623  MET623     -0.2867
    219  CB       -51.8980   67.0640   28.6950 C.3   623  MET623      0.0387
    220  CG       -52.0230   68.4170   28.0280 C.3   623  MET623      0.0595
    221  SD       -53.7290   68.7790   27.6110 S.3   623  MET623     -0.1393
    222  CE       -54.4600   68.9620   29.2360 C.3   623  MET623      0.0692
@<TRIPOS>BOND
     1    56    57    1
     2   170   171    1
     3    62    64   ar
     4    62    61   ar
     5    60    57    1
     6    60    61    1
     7    64    66   ar
     8   171   174    1
     9   171   172    1
    10    57    58    1
    11    61    63   ar
    12   174   175    1
    13   189   188    1
    14   172   173    2
    15   165   164    2
    16   175   176    1
    17   175   177    1
    18   121   120    2
    19    66    65   ar
    20   120   119    1
    21    58    59    2
    22    63    65   ar
    23   164   163    1
    24   161   160    2
    25   188   187   ar
    26   188   186   ar
    27   187   185   ar
    28   122   119    1
    29   122   123    1
    30   119   118    1
    31   109   107   am
    32   160   159    1
    33   163   166    1
    34   163   162    1
    35   150   148    1
    36   186   184   ar
    37   185   183   ar
    38   166   167    1
    39   123   124   ar
    40   123   125   ar
    41   124   126   ar
    42   118   112   am
    43   107   108    2
    44   107   106    1
    45   159   158    1
    46   146   145    2
    47   125   127   ar
    48   184   183   ar
    49   183   182    1
    50   113   112    2
    51   168   167    1
    52   148   147    1
    53   148   149    1
    54   112   111    1
    55   167   169    1
    56   126   128   ar
    57   147   144    1
    58   106   103    1
    59    67    68    1
    60   158   153   am
    61   145   144    1
    62   154   153    2
    63   127   128   ar
    64   144   143    1
    65   182   179    1
    66    71    68    1
    67    71    72    1
    68   153   152    1
    69   111   110    1
    70   111   114    1
    71   178   179    1
    72   110   104   am
    73    68    69    1
    74   104   103    1
    75   104   105    2
    76   103   102    1
    77   132   131    2
    78   198   200   ar
    79   198   196   ar
    80   179   180    1
    81   143   131   am
    82   200   199   ar
    83    72    73   ar
    84    72    74   ar
    85    73    75   ar
    86   131   130    1
    87   114   115    1
    88   114   116    1
    89   141   142   ar
    90   141   139   ar
    91   152   151    1
    92   152   155    1
    93   142   140   ar
    94   196   195   ar
    95    69    70    2
    96   151   157    1
    97   102    98   am
    98   115   117    1
    99   139   136   ar
   100   140   138   ar
   101    86    85    1
   102   180   190   am
   103   180   181    2
   104    74    77   ar
   105    74    76   ar
   106   199   197   ar
   107   136   138   ar
   108   136   134   ar
   109    75    76   ar
   110   155   156    1
   111   138   137   ar
   112   190   191    1
   113   157   156    1
   114    77    79   ar
   115    48    47    2
   116   195   197   ar
   117   195   194    1
   118   130   133    1
   119   130   129    1
   120    98    99    2
   121    98    97    1
   122   134   133    1
   123   134   135   ar
   124    76    78   ar
   125   137   135   ar
   126    51    53   ar
   127    51    50   ar
   128    87    85    1
   129    81    82    1
   130    53    55   ar
   131    85    82    1
   132    96    97    1
   133   194   191    1
   134    47    46    1
   135   191   192    1
   136    97   100    1
   137    79    80   ar
   138    49    46    1
   139    49    50    1
   140    82    83    1
   141    46    45    1
   142    50    52   ar
   143    78    80   ar
   144    55    54   ar
   145   192   193    2
   146   101   100    1
   147    83    84    2
   148    52    54   ar
   149    19    17    1
   150    26    25    1
   151   208   206    1
   152    20    18    1
   153   214   213    1
   154    25    22    1
   155    17    18    1
   156    17    14    1
   157    22    21    1
   158    22    23    1
   159    21    15   am
   160   206   205    1
   161   206   207    1
   162    14    15    1
   163    14    13    1
   164   213   210    1
   165    94    93    1
   166    94    95    1
   167   210   209    1
   168   210   211    1
   169    15    16    2
   170   205   202    1
   171   209   203   am
   172    23    24    2
   173    23    27   am
   174   212   211    2
   175    42    40   ar
   176    42    44   ar
   177    39    40   ar
   178    39    37   ar
   179    93    92    1
   180   203   204    2
   181   203   202    1
   182    40    38   ar
   183    27    28    1
   184    44    43   ar
   185   202   201    1
   186    88    89    1
   187    37    36   ar
   188     2     1    1
   189     2     3    1
   190   221   220    1
   191   221   222    1
   192    92    89    1
   193     5     3   am
   194     5     6    1
   195   220   219    1
   196     9    10    1
   197     9     7   am
   198    10    11    1
   199     3     4    2
   200    89    90    1
   201    38    36   ar
   202    38    41   ar
   203    28    29    1
   204     6     7    1
   205    43    41   ar
   206    36    35    1
   207   219   216    1
   208     7     8    2
   209    29    30    2
   210    31    32    1
   211    90    91    2
   212   215   216    1
   213    11    12    2
   214   216   217    1
   215    32    35    1
   216    32    33    1
   217   217   218    2
   218    33    34    2
