@<TRIPOS>MOLECULE
tmp/5izzA00.pdb
 174 171 0 0 0
SMALL
GASTEIGER

@<TRIPOS>ATOM
      1  N          3.2160   -8.8810    3.3570 N.3     9  PHE9       -0.1228
      2  CA         2.0770   -8.6070    2.4800 C.3     9  PHE9        0.1721
      3  C          2.3020   -7.5610    1.3780 C.2     9  PHE9        0.2437
      4  O          1.6770   -7.6860    0.3120 O.2     9  PHE9       -0.2733
      5  CB         0.8430   -8.2380    3.3250 C.3     9  PHE9        0.0547
      6  CG         0.9900   -6.9560    4.0970 C.ar    9  PHE9       -0.0202
      7  CD1        0.7460   -5.7300    3.4970 C.ar    9  PHE9       -0.0042
      8  CD2        1.3960   -6.9730    5.4070 C.ar    9  PHE9       -0.0042
      9  CE1        0.9180   -4.5560    4.2030 C.ar    9  PHE9       -0.0003
     10  CE2        1.5660   -5.8080    6.1180 C.ar    9  PHE9       -0.0003
     11  CZ         1.3220   -4.5850    5.5030 C.ar    9  PHE9       -0.0000
     12  N          3.1330   -6.5320    1.5290 N.am   10  PRO10      -0.2729
     13  CA         3.2760   -5.5770    0.4110 C.3    10  PRO10       0.1401
     14  C          3.9960   -6.2210   -0.7610 C.2    10  PRO10       0.2269
     15  O          4.7470   -7.1970   -0.5850 O.2    10  PRO10      -0.2865
     16  CB         4.1020   -4.4330    1.0050 C.3    10  PRO10       0.0296
     17  CG         4.1180   -4.6400    2.4890 C.3    10  PRO10       0.0237
     18  CD         3.9630   -6.1270    2.6770 C.3    10  PRO10       0.0939
     19  N          9.0530   -1.2990    2.4160 N.3    16  SER16      -0.1217
     20  CA         9.3130   -2.2590    3.4830 C.3    16  SER16       0.1889
     21  C         10.1220   -3.4450    2.9710 C.2    16  SER16       0.2288
     22  O         10.9390   -3.9990    3.7080 O.2    16  SER16      -0.2866
     23  CB         8.0070   -2.7380    4.1170 C.3    16  SER16       0.2089
     24  OG         7.1540   -3.3930    3.1910 O.3    16  SER16      -0.2183
     25  N          7.3980   -9.1530    8.4200 N.3    66  TRP66      -0.1241
     26  CA         7.1510   -7.7380    8.6920 C.3    66  TRP66       0.1605
     27  C          5.6560   -7.5160    8.5360 C.2    66  TRP66       0.2264
     28  O          5.0750   -7.9370    7.5260 O.2    66  TRP66      -0.2867
     29  CB         7.9440   -6.8430    7.7240 C.3    66  TRP66       0.0550
     30  CG         7.7770   -5.3490    7.9410 C.ar   66  TRP66       0.0003
     31  CD1        8.5590   -4.5430    8.7100 C.ar   66  TRP66       0.0946
     32  CD2        6.7740   -4.4960    7.3600 C.ar   66  TRP66       0.0152
     33  NE1        8.1050   -3.2530    8.6580 N.ar   66  TRP66      -0.2442
     34  CE2        7.0160   -3.1930    7.8270 C.ar   66  TRP66       0.0810
     35  CE3        5.6980   -4.7150    6.4860 C.ar   66  TRP66       0.0012
     36  CZ2        6.2320   -2.1070    7.4540 C.ar   66  TRP66       0.0191
     37  CZ3        4.9180   -3.6370    6.1340 C.ar   66  TRP66       0.0001
     38  CH2        5.1940   -2.3540    6.6100 C.ar   66  TRP66       0.0015
     39  N          1.8370   -5.3410   10.3720 N.3    68  VAL68      -0.1245
     40  CA         1.1910   -4.2790   11.1380 C.3    68  VAL68       0.1561
     41  C          0.5140   -4.9410   12.3180 C.2    68  VAL68       0.2260
     42  O         -0.3250   -5.8310   12.1300 O.2    68  VAL68      -0.2867
     43  CB         0.1690   -3.5160   10.2770 C.3    68  VAL68       0.0252
     44  CG1       -0.6130   -2.4810   11.1000 C.3    68  VAL68       0.0019
     45  CG2        0.8990   -2.8540    9.1240 C.3    68  VAL68       0.0019
     46  N         -3.3620   -5.2960   12.5310 N.3    71  TYR71      -0.1241
     47  CA        -4.1270   -6.0980   11.5820 C.3    71  TYR71       0.1605
     48  C         -4.7660   -7.2760   12.2880 C.2    71  TYR71       0.2264
     49  O         -5.6780   -7.9030   11.7350 O.2    71  TYR71      -0.2867
     50  CB        -3.2450   -6.5940   10.4260 C.3    71  TYR71       0.0534
     51  CG        -2.8890   -5.5720    9.3620 C.ar   71  TYR71      -0.0201
     52  CD1       -3.3850   -4.2800    9.3930 C.ar   71  TYR71      -0.0009
     53  CD2       -2.0790   -5.9260    8.2950 C.ar   71  TYR71      -0.0009
     54  CE1       -3.0520   -3.3620    8.3760 C.ar   71  TYR71       0.0417
     55  CE2       -1.7430   -5.0170    7.3030 C.ar   71  TYR71       0.0417
     56  CZ        -2.2330   -3.7520    7.3500 C.ar   71  TYR71       0.1957
     57  OH        -1.8930   -2.8800    6.3350 O.3    71  TYR71      -0.2866
     58  N          5.5910    4.1430   11.0590 N.3   121  HIS121     -0.1241
     59  CA         5.7210    5.0490    9.9320 C.3   121  HIS121      0.1621
     60  C          5.6510    6.5070   10.3940 C.2   121  HIS121      0.2264
     61  O          5.2470    6.8160   11.5190 O.2   121  HIS121     -0.2867
     62  CB         4.6600    4.7440    8.8580 C.3   121  HIS121      0.0745
     63  CG         3.2170    4.7470    9.3190 C.ar  121  HIS121      0.0817
     64  ND1        2.5050    5.9100    9.5330 N.ar  121  HIS121     -0.2268
     65  CD2        2.3340    3.7340    9.5020 C.ar  121  HIS121      0.1154
     66  CE1        1.2530    5.6100    9.8550 C.ar  121  HIS121      0.1986
     67  NE2        1.1220    4.2970    9.8500 N.ar  121  HIS121     -0.2212
     68  N        -11.2180    4.7450    5.3680 N.3   145  ARG145     -0.1245
     69  CA       -10.5040    3.5630    5.8110 C.3   145  ARG145      0.1563
     70  C         -9.4160    3.9000    6.8160 C.2   145  ARG145      0.2260
     71  O         -8.6760    4.8710    6.6440 O.2   145  ARG145     -0.2867
     72  CB        -9.8810    2.8840    4.6090 C.3   145  ARG145      0.0307
     73  CG        -8.9710    1.7140    4.9090 C.3   145  ARG145      0.0489
     74  CD        -7.5240    2.1300    5.1080 C.3   145  ARG145      0.2205
     75  NE        -6.6960    0.9750    5.4290 N.pl3 145  ARG145     -0.0865
     76  CZ        -5.3950    1.0090    5.7080 C.cat 145  ARG145      0.5346
     77  NH1       -4.7090    2.1390    5.7640 N.pl3 145  ARG145      0.1354
     78  NH2       -4.7910   -0.1240    5.9630 N.pl3 145  ARG145      0.1354
     79  N         -6.3470    1.4770    9.2700 N.3   147  PRO147     -0.2116
     80  CA        -5.6410    0.1820    9.2930 C.3   147  PRO147      0.1372
     81  C         -5.9290   -0.7170   10.4820 C.2   147  PRO147      0.2244
     82  O         -5.6190   -1.9080   10.4270 O.2   147  PRO147     -0.2868
     83  CB        -4.1700    0.5970    9.3330 C.3   147  PRO147      0.0268
     84  CG        -4.1860    1.9200   10.0540 C.3   147  PRO147      0.0207
     85  CD        -5.4450    2.6050    9.5700 C.3   147  PRO147      0.0892
     86  N         -3.8310   -2.5370    3.9680 N.3   167  VAL167     -0.1245
     87  CA        -3.5790   -1.5730    2.9020 C.3   167  VAL167      0.1561
     88  C         -3.6750   -2.1630    1.4880 C.2   167  VAL167      0.2260
     89  O         -4.0730   -1.4170    0.5820 O.2   167  VAL167     -0.2867
     90  CB        -2.2440   -0.8310    3.1350 C.3   167  VAL167      0.0252
     91  CG1       -1.0160   -1.7440    3.0090 C.3   167  VAL167      0.0019
     92  CG2       -2.1170    0.3690    2.1890 C.3   167  VAL167      0.0019
     93  N         -6.7300    6.9000    5.6570 N.3   183  VAL183     -0.1231
     94  CA        -5.4730    7.3780    6.2420 C.3   183  VAL183      0.1692
     95  C         -4.3700    6.3660    5.9460 C.2   183  VAL183      0.2592
     96  O         -4.5730    5.1460    6.0570 O.2   183  VAL183     -0.2718
     97  CB        -5.5870    7.6570    7.7590 C.3   183  VAL183      0.0266
     98  CG1       -6.5040    8.8520    8.0050 C.3   183  VAL183      0.0020
     99  CG2       -6.0580    6.4390    8.5360 C.3   183  VAL183      0.0020
    100  N         -3.2320    6.8870    5.5120 N.am  184  VAL184     -0.1966
    101  CA        -1.9650    6.1810    5.3370 C.3   184  VAL184      0.1712
    102  C         -0.8700    7.2380    5.3720 C.2   184  VAL184      0.2458
    103  O         -1.1280    8.4120    5.0600 O.2   184  VAL184     -0.2730
    104  CB        -1.8540    5.4080    4.0090 C.3   184  VAL184      0.0289
    105  CG1       -2.5050    4.0340    4.0740 C.3   184  VAL184      0.0023
    106  CG2       -2.3830    6.2150    2.8320 C.3   184  VAL184      0.0023
    107  N          0.3640    6.8720    5.6860 N.am  185  PRO185     -0.2727
    108  CA         1.4780    7.7580    5.3710 C.3   185  PRO185      0.1402
    109  C          1.6520    7.8330    3.8610 C.2   185  PRO185      0.2269
    110  O          1.1100    7.0420    3.0910 O.2   185  PRO185     -0.2865
    111  CB         2.6590    7.0870    6.0630 C.3   185  PRO185      0.0296
    112  CG         2.3330    5.6050    5.8910 C.3   185  PRO185      0.0237
    113  CD         0.8400    5.5300    6.0740 C.3   185  PRO185      0.0939
    114  N          4.2870    7.0960    2.2020 N.3   187  GLU187     -0.1231
    115  CA         5.2980    6.2360    1.5850 C.3   187  GLU187      0.1699
    116  C          4.7010    4.9910    0.9420 C.2   187  GLU187      0.2592
    117  O          5.2450    4.4830   -0.0470 O.2   187  GLU187     -0.2718
    118  CB         6.3460    5.8180    2.6270 C.3   187  GLU187      0.0402
    119  CG         5.8830    4.8080    3.7280 C.3   187  GLU187      0.1161
    120  CD         6.0600    3.3430    3.3180 C.2   187  GLU187      0.3649
    121  OE1        5.5780    2.4690    4.0480 O.co2 187  GLU187     -0.2457
    122  OE2        6.6580    3.0720    2.2550 O.co2 187  GLU187     -0.2457
    123  N          3.5910    4.4820    1.4880 N.am  188  ILE188     -0.1980
    124  CA         2.9780    3.2460    1.0040 C.3   188  ILE188      0.1595
    125  C          2.1060    3.4910   -0.2150 C.2   188  ILE188      0.2287
    126  O          1.7460    2.5360   -0.9180 O.2   188  ILE188     -0.2864
    127  CB         2.1740    2.5830    2.1420 C.3   188  ILE188      0.0276
    128  CG1        1.7650    1.1490    1.7840 C.3   188  ILE188      0.0022
    129  CG2        0.9460    3.4130    2.4990 C.3   188  ILE188      0.0022
    130  CD1        2.9340    0.2340    1.4060 C.3   188  ILE188      0.0001
    131  N         -1.4740   10.3680   13.6440 N.3   211  TYR211     -0.1241
    132  CA        -1.4450    9.0250   14.2200 C.3   211  TYR211      0.1605
    133  C         -0.3040    8.2900   13.5520 C.2   211  TYR211      0.2264
    134  O          0.2090    8.7200   12.5140 O.2   211  TYR211     -0.2867
    135  CB        -2.7650    8.2430   13.9880 C.3   211  TYR211      0.0534
    136  CG        -2.7820    7.7280   12.5820 C.ar  211  TYR211     -0.0201
    137  CD1       -3.0700    8.5850   11.5250 C.ar  211  TYR211     -0.0009
    138  CD2       -2.4130    6.4140   12.2760 C.ar  211  TYR211     -0.0009
    139  CE1       -3.0160    8.1560   10.2200 C.ar  211  TYR211      0.0417
    140  CE2       -2.3580    5.9780   10.9690 C.ar  211  TYR211      0.0417
    141  CZ        -2.6540    6.8540    9.9420 C.ar  211  TYR211      0.1957
    142  OH        -2.5650    6.4300    8.6270 O.3   211  TYR211     -0.2866
    143  N          0.8820    3.7850   13.2470 N.3   213  THR213     -0.1218
    144  CA         0.5490    2.4420   13.7050 C.3   213  THR213      0.1862
    145  C          1.8110    1.5860   13.7740 C.2   213  THR213      0.2287
    146  O          2.6650    1.6540   12.8700 O.2   213  THR213     -0.2866
    147  CB        -0.5520    1.8230   12.8180 C.3   213  THR213      0.1770
    148  OG1       -1.1860    0.7400   13.5190 O.3   213  THR213     -0.2211
    149  CG2       -0.0160    1.3510   11.5200 C.3   213  THR213      0.0375
    150  N          4.5540   -1.2170   13.4450 N.3   215  PHE215     -0.1241
    151  CA         5.0100   -2.3460   12.6490 C.3   215  PHE215      0.1605
    152  C          5.7550   -3.3560   13.5210 C.2   215  PHE215      0.2264
    153  O          6.4720   -2.9770   14.4580 O.2   215  PHE215     -0.2867
    154  CB         5.9910   -1.8800   11.5820 C.3   215  PHE215      0.0534
    155  CG         5.4740   -0.8600   10.6250 C.ar  215  PHE215     -0.0203
    156  CD1        4.2610   -1.0140    9.9900 C.ar  215  PHE215     -0.0042
    157  CD2        6.2540    0.2240   10.2980 C.ar  215  PHE215     -0.0042
    158  CE1        3.8200   -0.1080    9.0480 C.ar  215  PHE215     -0.0003
    159  CE2        5.8230    1.1660    9.3470 C.ar  215  PHE215     -0.0003
    160  CZ         4.5970    0.9870    8.7200 C.ar  215  PHE215     -0.0000
    161  N         11.8700    5.3910    7.4210 N.3   251  TRP251     -0.1241
    162  CA        10.4590    5.6700    7.1490 C.3   251  TRP251      0.1605
    163  C         10.1720    7.1700    7.0840 C.2   251  TRP251      0.2264
    164  O          9.3040    7.6020    6.3170 O.2   251  TRP251     -0.2867
    165  CB         9.5590    4.9620    8.1600 C.3   251  TRP251      0.0550
    166  CG         8.8990    3.7630    7.5170 C.ar  251  TRP251      0.0003
    167  CD1        7.6620    3.7270    6.9280 C.ar  251  TRP251      0.0946
    168  CD2        9.4650    2.4580    7.3280 C.ar  251  TRP251      0.0152
    169  NE1        7.4230    2.4800    6.3950 N.ar  251  TRP251     -0.2442
    170  CE2        8.5150    1.6850    6.6200 C.ar  251  TRP251      0.0810
    171  CE3       10.6840    1.8700    7.6810 C.ar  251  TRP251      0.0012
    172  CZ2        8.7410    0.3650    6.2830 C.ar  251  TRP251      0.0191
    173  CZ3       10.9050    0.5650    7.3400 C.ar  251  TRP251      0.0001
    174  CH2        9.9460   -0.1780    6.6520 C.ar  251  TRP251      0.0015
@<TRIPOS>BOND
     1   126   125    2
     2    14    15    2
     3    14    13    1
     4   125   124    1
     5   117   116    2
     6     4     3    2
     7    13    16    1
     8    13    12    1
     9    89    88    2
    10   116   123   am
    11   116   115    1
    12   124   123    1
    13   124   127    1
    14    16    17    1
    15     3    12   am
    16     3     2    1
    17   130   128    1
    18    88    87    1
    19    12    18    1
    20   115   114    1
    21   115   118    1
    22   128   127    1
    23   127   129    1
    24    92    90    1
    25   122   120   ar
    26    19    20    1
    27     2     5    1
    28     2     1    1
    29    17    18    1
    30   118   119    1
    31   106   104    1
    32    87    90    1
    33    87    86    1
    34    21    20    1
    35    21    22    2
    36    91    90    1
    37   110   109    2
    38    24    23    1
    39   120   119    1
    40   120   121   ar
    41     5     6    1
    42    20    23    1
    43     7     6   ar
    44     7     9   ar
    45   109   108    1
    46   104   105    1
    47   104   101    1
    48     6     8   ar
    49     9    11   ar
    50    72    73    1
    51    72    69    1
    52    73    74    1
    53   103   102    2
    54    74    75    1
    55   101   102    1
    56   101   100    1
    57    68    69    1
    58   108   107    1
    59   108   111    1
    60   102   107   am
    61     8    10   ar
    62    75    76    2
    63    11    10   ar
    64   100    95   am
    65    93    94    1
    66   107   113    1
    67    76    77    1
    68    76    78    1
    69    69    70    1
    70   112   111    1
    71   112   113    1
    72    95    96    2
    73    95    94    1
    74    37    35   ar
    75    37    38   ar
    76    94    97    1
    77   172   170   ar
    78   172   174   ar
    79   164   163    2
    80    57    56    1
    81   169   170   ar
    82   169   167   ar
    83    35    32   ar
    84    38    36   ar
    85   170   168   ar
    86    71    70    2
    87   174   173   ar
    88   167   166   ar
    89   163   162    1
    90   162   161    1
    91   162   165    1
    92    55    56   ar
    93    55    53   ar
    94   168   166   ar
    95   168   171   ar
    96   173   171   ar
    97    56    54   ar
    98    32    34   ar
    99    32    30   ar
   100    36    34   ar
   101   166   165    1
   102    28    27    2
   103    29    30    1
   104    29    26    1
   105    97    98    1
   106    97    99    1
   107    34    33   ar
   108    30    31   ar
   109    53    51   ar
   110    54    52   ar
   111    25    26    1
   112    27    26    1
   113   142   141    1
   114    33    31   ar
   115   160   158   ar
   116   160   159   ar
   117    62    63    1
   118    62    59    1
   119   158   156   ar
   120    45    43    1
   121    79    80    1
   122    79    85    1
   123    80    83    1
   124    80    81    1
   125    63    65   ar
   126    63    64   ar
   127    83    84    1
   128   159   157   ar
   129    51    52   ar
   130    51    50    1
   131    65    67   ar
   132    64    66   ar
   133    85    84    1
   134    67    66   ar
   135    59    60    1
   136    59    58    1
   137   141   139   ar
   138   141   140   ar
   139   156   155   ar
   140   139   137   ar
   141    43    44    1
   142    43    40    1
   143   157   155   ar
   144    39    40    1
   145    60    61    2
   146    50    47    1
   147    82    81    2
   148   155   154    1
   149   140   138   ar
   150    40    41    1
   151   149   147    1
   152   137   136   ar
   153    47    48    1
   154    47    46    1
   155   154   151    1
   156    49    48    2
   157    42    41    2
   158   138   136   ar
   159   134   133    2
   160   136   135    1
   161   151   150    1
   162   151   152    1
   163   147   148    1
   164   147   144    1
   165   146   145    2
   166   143   144    1
   167   152   153    2
   168   133   132    1
   169   131   132    1
   170   144   145    1
   171   135   132    1
