@<TRIPOS>MOLECULE
tmp/5j04B00.pdb
 130 121 0 0 0
SMALL
GASTEIGER

@<TRIPOS>ATOM
      1  N         37.0410   -8.0150  102.9950 N.3    41  GLY41      -0.1210
      2  CA        35.5990   -8.2120  102.7590 C.3    41  GLY41       0.1956
      3  C         34.9910   -8.7530  104.0470 C.2    41  GLY41       0.2611
      4  O         35.7000   -8.8960  105.0520 O.2    41  GLY41      -0.2717
      5  N         33.7030   -9.1000  104.0170 N.am   42  ALA42      -0.1979
      6  CA        32.9900   -9.5520  105.2290 C.3    42  ALA42       0.1597
      7  C         33.4150  -10.9950  105.6640 C.2    42  ALA42       0.2287
      8  O         33.3900  -11.9470  104.8580 O.2    42  ALA42      -0.2864
      9  CB        31.4870   -9.4720  104.9920 C.3    42  ALA42       0.0319
     10  N         23.7470   -8.6400   98.3350 N.3   155  HIS155     -0.1241
     11  CA        24.4720   -7.5890   97.5420 C.3   155  HIS155      0.1621
     12  C         23.5730   -6.7770   96.5880 C.2   155  HIS155      0.2264
     13  O         24.0450   -6.2620   95.5760 O.2   155  HIS155     -0.2867
     14  CB        25.6060   -8.2240   96.7160 C.3   155  HIS155      0.0745
     15  CG        26.7430   -8.7230   97.5550 C.ar  155  HIS155      0.0817
     16  ND1       27.9310   -9.1720   97.0140 N.ar  155  HIS155     -0.2268
     17  CD2       26.8770   -8.8370   98.8980 C.ar  155  HIS155      0.1154
     18  CE1       28.7400   -9.5560   97.9850 C.ar  155  HIS155      0.1986
     19  NE2       28.1250   -9.3600   99.1380 N.ar  155  HIS155     -0.2212
     20  N         23.8490  -14.6700   94.9030 N.3   163  GLN163     -0.1231
     21  CA        24.6040  -13.4910   95.1600 C.3   163  GLN163      0.1698
     22  C         25.2550  -12.8760   93.9230 C.2   163  GLN163      0.2592
     23  O         25.2370  -11.6600   93.7610 O.2   163  GLN163     -0.2718
     24  CB        25.6760  -13.8000   96.1780 C.3   163  GLN163      0.0381
     25  CG        26.4310  -12.5850   96.6640 C.3   163  GLN163      0.0905
     26  CD        26.9840  -12.8120   98.0910 C.2   163  GLN163      0.2608
     27  OE1       26.2200  -12.7740   99.0690 O.2   163  GLN163     -0.2717
     28  NE2       28.2960  -13.0670   98.2040 N.am  163  GLN163     -0.0878
     29  N         25.8630  -13.6840   93.0680 N.am  164  GLU164     -0.1979
     30  CA        26.6420  -13.1150   91.9710 C.3   164  GLU164      0.1602
     31  C         26.4850  -13.9600   90.7100 C.2   164  GLU164      0.2287
     32  O         26.4450  -15.1730   90.7760 O.2   164  GLU164     -0.2864
     33  CB        28.0840  -13.0130   92.4810 C.3   164  GLU164      0.0415
     34  CG        29.1450  -12.6230   91.4800 C.3   164  GLU164      0.1163
     35  CD        30.5910  -12.5560   92.0610 C.2   164  GLU164      0.3649
     36  OE1       31.4110  -11.7170   91.5220 O.co2 164  GLU164     -0.2457
     37  OE2       30.9300  -13.3580   93.0040 O.co2 164  GLU164     -0.2457
     38  N         31.9610   -4.3880   93.3240 N.3   205  GLU205     -0.1245
     39  CA        32.8070   -5.1200   92.4080 C.3   205  GLU205      0.1567
     40  C         32.7260   -4.5650   90.9740 C.2   205  GLU205      0.2260
     41  O         33.3460   -5.1100   90.0680 O.2   205  GLU205     -0.2867
     42  CB        32.3590   -6.5860   92.3520 C.3   205  GLU205      0.0388
     43  CG        32.1770   -7.3080   93.6810 C.3   205  GLU205      0.1160
     44  CD        30.8180   -7.1190   94.3810 C.2   205  GLU205      0.3649
     45  OE1       29.9150   -6.3270   93.9230 O.co2 205  GLU205     -0.2457
     46  OE2       30.6970   -7.7670   95.4640 O.co2 205  GLU205     -0.2457
     47  N         27.9630  -17.4090   91.8880 N.3   242  ASP242     -0.1239
     48  CA        28.2590  -17.6020   93.2860 C.3   242  ASP242      0.1674
     49  C         26.8790  -17.6300   93.9790 C.2   242  ASP242      0.2266
     50  O         26.1660  -16.6300   94.0580 O.2   242  ASP242     -0.2867
     51  CB        29.1490  -16.4770   93.7930 C.3   242  ASP242      0.1410
     52  CG        29.4370  -16.5790   95.3070 C.2   242  ASP242      0.3668
     53  OD1       28.7780  -17.4150   95.9440 O.co2 242  ASP242     -0.2456
     54  OD2       30.2870  -15.8170   95.8470 O.co2 242  ASP242     -0.2456
     55  N         29.6790  -21.6140   92.8400 N.3   283  GLU283     -0.1245
     56  CA        30.4280  -21.4020   94.0160 C.3   283  GLU283      0.1567
     57  C         29.4600  -21.4590   95.1870 C.2   283  GLU283      0.2260
     58  O         28.3760  -20.8850   95.1170 O.2   283  GLU283     -0.2867
     59  CB        31.2010  -20.0650   93.9690 C.3   283  GLU283      0.0388
     60  CG        31.8520  -19.6800   95.3480 C.3   283  GLU283      0.1160
     61  CD        32.4490  -18.2590   95.4140 C.2   283  GLU283      0.3649
     62  OE1       32.8040  -17.7610   94.3450 O.co2 283  GLU283     -0.2457
     63  OE2       32.5810  -17.6360   96.5400 O.co2 283  GLU283     -0.2457
     64  N         34.0770  -21.5160   98.7190 N.3   310  ASP310     -0.1239
     65  CA        34.6110  -20.2800   99.2550 C.3   310  ASP310      0.1674
     66  C         34.4150  -20.3400  100.7860 C.2   310  ASP310      0.2266
     67  O         35.3370  -20.6650  101.4730 O.2   310  ASP310     -0.2867
     68  CB        33.9290  -19.0830   98.6370 C.3   310  ASP310      0.1410
     69  CG        34.2620  -17.7850   99.3480 C.2   310  ASP310      0.3668
     70  OD1       35.3920  -17.6730   99.8640 O.co2 310  ASP310     -0.2456
     71  OD2       33.3700  -16.8860   99.3850 O.co2 310  ASP310     -0.2456
     72  N         38.2980  -21.2520   96.2440 N.3   333  LEU333     -0.1245
     73  CA        38.5440  -19.8190   96.1790 C.3   333  LEU333      0.1561
     74  C         39.6680  -19.4920   97.1130 C.2   333  LEU333      0.2260
     75  O         39.6160  -19.7970   98.3230 O.2   333  LEU333     -0.2867
     76  CB        37.2850  -19.0380   96.5670 C.3   333  LEU333      0.0270
     77  CG        37.0590  -17.6820   95.9120 C.3   333  LEU333      0.0019
     78  CD1       36.9350  -17.8090   94.3680 C.3   333  LEU333      0.0001
     79  CD2       35.8410  -16.9670   96.5100 C.3   333  LEU333      0.0001
     80  N         41.8520  -16.7990   98.8900 N.3   335  LYS335     -0.1245
     81  CA        41.8590  -15.4530   99.4010 C.3   335  LYS335      0.1561
     82  C         42.9920  -15.3090  100.3680 C.2   335  LYS335      0.2260
     83  O         42.8980  -15.7920  101.5250 O.2   335  LYS335     -0.2867
     84  CB        40.5400  -15.1720  100.1010 C.3   335  LYS335      0.0271
     85  CG        39.3850  -14.9330   99.1530 C.3   335  LYS335      0.0035
     86  CD        38.0810  -14.9530   99.9280 C.3   335  LYS335      0.0206
     87  CE        36.9130  -14.5460   99.0200 C.3   335  LYS335      0.1093
     88  NZ        35.5810  -14.8830   99.6240 N.3   335  LYS335     -0.1314
     89  N         41.3440  -15.0560   94.1910 N.3   362  SER362     -0.1202
     90  CA        40.2060  -14.1690   94.4390 C.3   362  SER362      0.2020
     91  C         40.4890  -12.8180   95.0560 C.2   362  SER362      0.2619
     92  O         41.3290  -12.6810   95.9400 O.2   362  SER362     -0.2717
     93  CB        39.2290  -14.8210   95.3960 C.3   362  SER362      0.2103
     94  OG        38.0200  -14.0600   95.5010 O.3   362  SER362     -0.2182
     95  N         39.6710  -11.8560   94.6610 N.am  363  HIS363     -0.1961
     96  CA        39.6560  -10.6090   95.3120 C.3   363  HIS363      0.1787
     97  C         38.8830  -10.6610   96.6670 C.2   363  HIS363      0.2620
     98  O         38.3580  -11.6840   97.0500 O.2   363  HIS363     -0.2715
     99  CB        39.1260   -9.5200   94.3840 C.3   363  HIS363      0.0785
    100  CG        37.7260   -9.6960   93.9600 C.ar  363  HIS363      0.0821
    101  ND1       37.0390   -8.7210   93.2660 N.ar  363  HIS363     -0.2267
    102  CD2       36.8740  -10.7390   94.0710 C.ar  363  HIS363      0.1154
    103  CE1       35.8030   -9.1320   93.0250 C.ar  363  HIS363      0.1986
    104  NE2       35.6830  -10.3660   93.4820 N.ar  363  HIS363     -0.2212
    105  N         38.7880   -9.5280   97.3340 N.am  364  ARG364     -0.1963
    106  CA        37.7320   -9.3160   98.2990 C.3   364  ARG364      0.1729
    107  C         36.8710   -8.1890   97.8200 C.2   364  ARG364      0.2616
    108  O         37.2230   -7.4700   96.8920 O.2   364  ARG364     -0.2715
    109  CB        38.3040   -8.9580   99.6910 C.3   364  ARG364      0.0348
    110  CG        39.3400   -9.9420  100.1340 C.3   364  ARG364      0.0492
    111  CD        38.7450  -11.3290  100.2020 C.3   364  ARG364      0.2205
    112  NE        37.5650  -11.4200  101.0690 N.pl3 364  ARG364     -0.0865
    113  CZ        37.5770  -11.7390  102.3890 C.cat 364  ARG364      0.5346
    114  NH1       38.6860  -12.0410  103.0200 N.pl3 364  ARG364      0.1354
    115  NH2       36.4760  -11.8000  103.0850 N.pl3 364  ARG364      0.1354
    116  N         35.7420   -7.9940   98.4740 N.am  365  SER365     -0.1950
    117  CA        34.8180   -6.9460   98.0490 C.3   365  SER365      0.1924
    118  C         35.4410   -5.5660   98.2920 C.2   365  SER365      0.2314
    119  O         35.2210   -4.6200   97.5380 O.2   365  SER365     -0.2863
    120  CB        33.4200   -7.1820   98.6820 C.3   365  SER365      0.2116
    121  OG        33.3650   -6.7540  100.0240 O.3   365  SER365     -0.2180
    122  N         39.2660  -14.4490   90.0360 N.3   386  LYS386     -0.1245
    123  CA        38.0130  -13.7470   90.3200 C.3   386  LYS386      0.1561
    124  C         38.3770  -12.4060   90.9300 C.2   386  LYS386      0.2260
    125  O         38.8650  -12.3210   92.0890 O.2   386  LYS386     -0.2867
    126  CB        37.1510  -14.5070   91.2760 C.3   386  LYS386      0.0271
    127  CG        35.7180  -14.0080   91.3960 C.3   386  LYS386      0.0035
    128  CD        35.0420  -14.7980   92.5460 C.3   386  LYS386      0.0206
    129  CE        33.5850  -14.4870   92.7920 C.3   386  LYS386      0.1093
    130  NZ        33.1850  -15.0040   94.1300 N.3   386  LYS386     -0.1314
@<TRIPOS>BOND
     1   122   123    1
     2    41    40    2
     3   123   124    1
     4   123   126    1
     5    31    32    2
     6    31    30    1
     7   124   125    2
     8    40    39    1
     9   126   127    1
    10   127   128    1
    11    34    35    1
    12    34    33    1
    13    36    35   ar
    14    47    48    1
    15    30    33    1
    16    30    29    1
    17    35    37   ar
    18    42    39    1
    19    42    43    1
    20    39    38    1
    21   128   129    1
    22   129   130    1
    23    55    56    1
    24   103   101   ar
    25   103   104   ar
    26    29    22   am
    27   101   100   ar
    28    48    51    1
    29    48    49    1
    30   104   102   ar
    31    43    44    1
    32    23    22    2
    33    51    52    1
    34    22    21    1
    35    45    44   ar
    36   100   102   ar
    37   100    99    1
    38    59    56    1
    39    59    60    1
    40    49    50    2
    41    56    57    1
    42    89    90    1
    43    62    61   ar
    44    78    77    1
    45    44    46   ar
    46    99    96    1
    47    90    91    1
    48    90    93    1
    49    95    91   am
    50    95    96    1
    51    20    21    1
    52    91    92    2
    53    58    57    2
    54    21    24    1
    55    52    54   ar
    56    52    53   ar
    57    96    97    1
    58    60    61    1
    59    93    94    1
    60    61    63   ar
    61    13    12    2
    62    77    79    1
    63    77    76    1
    64    24    25    1
    65    73    72    1
    66    73    76    1
    67    73    74    1
    68    12    11    1
    69    25    26    1
    70    97    98    2
    71    97   105   am
    72    14    11    1
    73    14    15    1
    74   108   107    2
    75    16    15   ar
    76    16    18   ar
    77    74    75    2
    78   105   106    1
    79   119   118    2
    80    11    10    1
    81    15    17   ar
    82   107   106    1
    83   107   116   am
    84    18    19   ar
    85   117   118    1
    86   117   116    1
    87   117   120    1
    88    26    28   am
    89    26    27    2
    90   106   109    1
    91    68    65    1
    92    68    69    1
    93   120   121    1
    94    64    65    1
    95    80    81    1
    96    17    19   ar
    97    87    88    1
    98    87    86    1
    99    85    86    1
   100    85    84    1
   101    65    66    1
   102    69    71   ar
   103    69    70   ar
   104    81    84    1
   105    81    82    1
   106   109   110    1
   107   110   111    1
   108   111   112    1
   109    82    83    2
   110    66    67    2
   111   112   113    2
   112   113   114    1
   113   113   115    1
   114     2     1    1
   115     2     3    1
   116     5     3   am
   117     5     6    1
   118     3     4    2
   119     8     7    2
   120     9     6    1
   121     6     7    1
