@<TRIPOS>MOLECULE
tmp/5j0dA00.pdb
 148 143 0 0 0
SMALL
GASTEIGER

@<TRIPOS>ATOM
      1  N         21.0170   12.4400   14.5220 N.3    26  PRO26      -0.2116
      2  CA        19.7270   12.4340   15.2240 C.3    26  PRO26       0.1372
      3  C         19.1460   13.8170   15.5390 C.2    26  PRO26       0.2244
      4  O         18.0690   13.8840   16.1220 O.2    26  PRO26      -0.2868
      5  CB        20.0640   11.7160   16.5230 C.3    26  PRO26       0.0268
      6  CG        21.4610   12.1560   16.7550 C.3    26  PRO26       0.0207
      7  CD        22.1340   12.1600   15.4360 C.3    26  PRO26       0.0892
      8  N         15.4520   15.0110   15.0500 N.3    29  LEU29      -0.1231
      9  CA        14.3370   14.1350   15.4430 C.3    29  LEU29       0.1678
     10  C         13.3530   14.7650   16.4280 C.2    29  LEU29       0.2434
     11  O         12.1480   14.6300   16.2150 O.2    29  LEU29      -0.2733
     12  CB        14.8200   12.7730   15.9110 C.3    29  LEU29       0.0284
     13  CG        15.5190   11.9710   14.8150 C.3    29  LEU29       0.0019
     14  CD1       16.0780   10.7270   15.4260 C.3    29  LEU29       0.0001
     15  CD2       14.6570   11.6780   13.6250 C.3    29  LEU29       0.0001
     16  N         13.8060   15.4940   17.4440 N.am   30  PRO30      -0.2718
     17  CA        12.8470   16.1280   18.3440 C.3    30  PRO30       0.1535
     18  C         12.0240   17.2430   17.7540 C.2    30  PRO30       0.2598
     19  O         11.0420   17.6450   18.3960 O.2    30  PRO30      -0.2715
     20  CB        13.7090   16.6910   19.4650 C.3    30  PRO30       0.0310
     21  CG        14.9900   15.9420   19.3690 C.3    30  PRO30       0.0237
     22  CD        15.1820   15.6680   17.9150 C.3    30  PRO30       0.0939
     23  N         12.4170   17.7300   16.5840 N.am   31  PHE31      -0.1974
     24  CA        11.8540   18.9290   15.9720 C.3    31  PHE31       0.1639
     25  C         10.9760   18.6310   14.7720 C.2    31  PHE31       0.2290
     26  O         10.3960   19.5590   14.1990 O.2    31  PHE31      -0.2864
     27  CB        12.9770   19.8630   15.5350 C.3    31  PHE31       0.0560
     28  CG        13.8570   20.2420   16.6690 C.ar   31  PHE31      -0.0200
     29  CD1       13.5530   21.3500   17.4530 C.ar   31  PHE31      -0.0042
     30  CD2       14.9840   19.4970   16.9940 C.ar   31  PHE31      -0.0042
     31  CE1       14.3390   21.6970   18.5370 C.ar   31  PHE31      -0.0003
     32  CE2       15.7680   19.8570   18.0870 C.ar   31  PHE31      -0.0003
     33  CZ        15.4430   20.9490   18.8460 C.ar   31  PHE31      -0.0000
     34  N          5.6520   19.2770   19.5640 N.3    35  VAL35      -0.1245
     35  CA         5.7450   18.6970   20.9010 C.3    35  VAL35       0.1561
     36  C          4.3210   18.3050   21.3510 C.2    35  VAL35       0.2260
     37  O          3.3780   19.0830   21.1870 O.2    35  VAL35      -0.2867
     38  CB         6.3610   19.6980   21.8870 C.3    35  VAL35       0.0252
     39  CG1        6.2930   19.1930   23.3080 C.3    35  VAL35       0.0019
     40  CG2        7.8040   20.0270   21.4940 C.3    35  VAL35       0.0019
     41  N          4.0650   12.9270   26.1690 N.3    40  LEU40      -0.1231
     42  CA         5.2280   13.0250   27.0330 C.3    40  LEU40       0.1693
     43  C          4.7110   13.3240   28.4500 C.2    40  LEU40       0.2593
     44  O          3.5170   13.5280   28.6460 O.2    40  LEU40      -0.2718
     45  CB         6.1720   14.1140   26.5030 C.3    40  LEU40       0.0284
     46  CG         6.6710   13.8770   25.0740 C.3    40  LEU40       0.0019
     47  CD1        7.2100   15.1510   24.4470 C.3    40  LEU40       0.0001
     48  CD2        7.7320   12.7920   25.0440 C.3    40  LEU40       0.0001
     49  N          5.5740   13.3460   29.4490 N.am   41  GLY41      -0.1942
     50  CA         5.0860   13.5390   30.8230 C.3    41  GLY41       0.2014
     51  C          4.8810   14.9860   31.2710 C.2    41  GLY41       0.2638
     52  O          4.8940   15.2320   32.4740 O.2    41  GLY41      -0.2714
     53  N          4.6450   15.9350   30.3450 N.am   42  ILE42      -0.1977
     54  CA         5.0390   17.3580   30.5730 C.3    42  ILE42       0.1596
     55  C          3.9690   18.4520   30.4030 C.2    42  ILE42       0.2287
     56  O          4.1210   19.3210   29.5340 O.2    42  ILE42      -0.2864
     57  CB         6.2820   17.6940   29.6930 C.3    42  ILE42       0.0276
     58  CG1        6.0340   17.3960   28.2000 C.3    42  ILE42       0.0022
     59  CG2        7.4840   16.9040   30.1680 C.3    42  ILE42       0.0022
     60  CD1        7.0990   17.9360   27.2550 C.3    42  ILE42       0.0001
     61  N          4.6130   22.2160   29.6510 N.3    45  TYR45      -0.1241
     62  CA         5.2550   22.6880   28.4060 C.3    45  TYR45       0.1605
     63  C          4.6010   23.9400   27.8490 C.2    45  TYR45       0.2264
     64  O          5.2660   24.9250   27.5670 O.2    45  TYR45      -0.2867
     65  CB         5.3120   21.5550   27.3640 C.3    45  TYR45       0.0534
     66  CG         6.0590   21.9870   26.1110 C.ar   45  TYR45      -0.0201
     67  CD1        7.4480   21.9600   26.0810 C.ar   45  TYR45      -0.0009
     68  CD2        5.3820   22.4770   25.0270 C.ar   45  TYR45      -0.0009
     69  CE1        8.1450   22.4280   24.9540 C.ar   45  TYR45       0.0417
     70  CE2        6.0560   22.9330   23.8930 C.ar   45  TYR45       0.0417
     71  CZ         7.4480   22.8950   23.8770 C.ar   45  TYR45       0.1957
     72  OH         8.1070   23.3710   22.7690 O.3    45  TYR45      -0.2866
     73  N          6.4630   25.8050   17.9340 N.3    53  MET53      -0.1245
     74  CA         6.8360   25.7570   16.5470 C.3    53  MET53       0.1570
     75  C          7.7140   24.5560   16.3190 C.2    53  MET53       0.2261
     76  O          8.4820   24.1640   17.2160 O.2    53  MET53      -0.2867
     77  CB         7.5500   27.0630   16.1760 C.3    53  MET53       0.0387
     78  CG         7.8200   27.2510   14.6980 C.3    53  MET53       0.0595
     79  SD         6.3850   27.1000   13.6170 S.3    53  MET53      -0.1393
     80  CE         5.2700   28.3440   14.2720 C.3    53  MET53       0.0692
     81  N         11.3430   28.2100   17.1050 N.3    80  MET80      -0.1245
     82  CA        11.5590   26.8180   17.3910 C.3    80  MET80       0.1570
     83  C         12.8040   26.6130   18.2460 C.2    80  MET80       0.2261
     84  O         12.7740   25.9090   19.2590 O.2    80  MET80      -0.2867
     85  CB        11.6450   26.0470   16.0860 C.3    80  MET80       0.0387
     86  CG        11.9120   24.5760   16.2300 C.3    80  MET80       0.0595
     87  SD        12.0550   23.7130   14.6610 S.3    80  MET80      -0.1393
     88  CE        13.7420   24.1470   14.2600 C.3    80  MET80       0.0692
     89  N         13.0880   25.6220   22.4640 N.3    84  ALA84      -0.1245
     90  CA        13.8010   24.4440   22.9310 C.3    84  ALA84       0.1562
     91  C         14.8530   24.8210   23.9680 C.2    84  ALA84       0.2260
     92  O         15.0200   24.1200   24.9630 O.2    84  ALA84      -0.2867
     93  CB        14.3850   23.6900   21.7520 C.3    84  ALA84       0.0290
     94  N         12.8880   25.7010   27.3620 N.3    87  TYR87      -0.1227
     95  CA        12.2220   24.6610   28.1210 C.3    87  TYR87       0.1736
     96  C         13.1890   23.6050   28.6410 C.2    87  TYR87       0.2595
     97  O         12.9940   23.0680   29.7300 O.2    87  TYR87      -0.2718
     98  CB        11.1310   23.9930   27.2720 C.3    87  TYR87       0.0548
     99  CG        10.3640   22.9960   28.0870 C.ar   87  TYR87      -0.0200
    100  CD1        9.3990   23.4380   28.9960 C.ar   87  TYR87      -0.0009
    101  CD2       10.6560   21.6380   28.0600 C.ar   87  TYR87      -0.0009
    102  CE1        8.6990   22.5540   29.7960 C.ar   87  TYR87       0.0417
    103  CE2        9.9990   20.7590   28.9060 C.ar   87  TYR87       0.0417
    104  CZ         9.0270   21.2130   29.7780 C.ar   87  TYR87       0.1957
    105  OH         8.3930   20.2820   30.5940 O.3    87  TYR87      -0.2866
    106  N         14.1790   23.2200   27.8340 N.am   88  ASN88      -0.1974
    107  CA        14.9680   22.0240   28.0740 C.3    88  ASN88       0.1688
    108  C         16.2230   22.3470   28.8450 C.2    88  ASN88       0.2292
    109  O         16.7750   23.4250   28.7310 O.2    88  ASN88      -0.2864
    110  CB        15.3040   21.3700   26.7350 C.3    88  ASN88       0.1181
    111  CG        14.0720   20.8700   26.0490 C.2    88  ASN88       0.2629
    112  OD1       13.5600   19.7860   26.3570 O.2    88  ASN88      -0.2716
    113  ND2       13.5360   21.6450   25.1350 N.am   88  ASN88      -0.0877
    114  N         20.4190   18.2040   28.2090 N.3    92  SER92      -0.1202
    115  CA        19.4930   17.3320   27.4920 C.3    92  SER92       0.2020
    116  C         19.8670   17.1670   26.0200 C.2    92  SER92       0.2619
    117  O         20.4600   18.0360   25.3940 O.2    92  SER92      -0.2717
    118  CB        18.0590   17.8370   27.6030 C.3    92  SER92       0.2103
    119  OG        17.8550   19.0570   26.9000 O.3    92  SER92      -0.2182
    120  N         19.4570   16.0450   25.4680 N.am   93  ARG93      -0.1965
    121  CA        19.5560   15.8340   24.0270 C.3    93  ARG93       0.1729
    122  C         18.8830   16.9610   23.2620 C.2    93  ARG93       0.2616
    123  O         19.4580   17.4770   22.3040 O.2    93  ARG93      -0.2715
    124  CB        18.9260   14.5110   23.6110 C.3    93  ARG93       0.0348
    125  CG        19.6130   13.2360   24.1160 C.3    93  ARG93       0.0492
    126  CD        18.7890   11.9950   23.8910 C.3    93  ARG93       0.2205
    127  NE        17.5880   12.0880   24.6990 N.pl3  93  ARG93      -0.0865
    128  CZ        16.5160   11.3300   24.5510 C.cat  93  ARG93       0.5346
    129  NH1       16.4880   10.3590   23.6550 N.pl3  93  ARG93       0.1354
    130  NH2       15.4750   11.5470   25.3530 N.pl3  93  ARG93       0.1354
    131  N         17.6560   17.3330   23.6360 N.am   94  VAL94      -0.1977
    132  CA        16.9760   18.3320   22.8460 C.3    94  VAL94       0.1596
    133  C         17.7610   19.6280   22.8060 C.2    94  VAL94       0.2287
    134  O         17.8610   20.2730   21.7500 O.2    94  VAL94      -0.2864
    135  CB        15.5430   18.5710   23.3510 C.3    94  VAL94       0.0276
    136  CG1       14.9170   19.7740   22.6680 C.3    94  VAL94       0.0022
    137  CG2       14.6860   17.3330   23.1260 C.3    94  VAL94       0.0022
    138  N         20.9170   19.1780   20.6510 N.3    97  PHE97      -0.1241
    139  CA        20.5100   19.0400   19.2550 C.3    97  PHE97       0.1605
    140  C         20.0380   20.3900   18.6930 C.2    97  PHE97       0.2264
    141  O         20.3440   20.7210   17.5370 O.2    97  PHE97      -0.2867
    142  CB        19.4000   18.0170   19.1400 C.3    97  PHE97       0.0534
    143  CG        19.8080   16.5760   19.4190 C.ar   97  PHE97      -0.0203
    144  CD1       21.1390   16.1700   19.6270 C.ar   97  PHE97      -0.0042
    145  CD2       18.8430   15.6100   19.4480 C.ar   97  PHE97      -0.0042
    146  CE1       21.4280   14.8240   19.8340 C.ar   97  PHE97      -0.0003
    147  CE2       19.1510   14.2650   19.6460 C.ar   97  PHE97      -0.0003
    148  CZ        20.4540   13.8860   19.8590 C.ar   97  PHE97      -0.0000
@<TRIPOS>BOND
     1    79    80    1
     2    79    78    1
     3    15    13    1
     4    26    25    2
     5    88    87    1
     6     1     2    1
     7     1     7    1
     8    87    86    1
     9    78    77    1
    10    25    24    1
    11    13    14    1
    12    13    12    1
    13     8     9    1
    14     2     3    1
    15     2     5    1
    16     7     6    1
    17     9    12    1
    18     9    10    1
    19    27    24    1
    20    27    28    1
    21     3     4    2
    22    24    23    1
    23    85    86    1
    24    85    82    1
    25    77    74    1
    26    11    10    2
    27    75    74    1
    28    75    76    2
    29    10    16   am
    30     5     6    1
    31    74    73    1
    32    23    18   am
    33    28    30   ar
    34    28    29   ar
    35    30    32   ar
    36    81    82    1
    37    82    83    1
    38    16    22    1
    39    16    17    1
    40    29    31   ar
    41   141   140    2
    42    18    17    1
    43    18    19    2
    44    22    21    1
    45    32    33   ar
    46    83    84    2
    47    17    20    1
    48    31    33   ar
    49   140   139    1
    50   142   139    1
    51   142   143    1
    52   139   138    1
    53    21    20    1
    54   143   145   ar
    55   143   144   ar
    56   145   147   ar
    57    34    35    1
    58   144   146   ar
    59   147   148   ar
    60   146   148   ar
    61    35    36    1
    62    35    38    1
    63    37    36    2
    64    40    38    1
    65   134   133    2
    66    93    90    1
    67    38    39    1
    68   123   122    2
    69    89    90    1
    70   136   135    1
    71    72    71    1
    72   133   132    1
    73   132   135    1
    74   132   131    1
    75    90    91    1
    76   137   135    1
    77   122   131   am
    78   122   121    1
    79   124   121    1
    80   124   125    1
    81   129   128    1
    82    71    70   ar
    83    71    69   ar
    84   126   125    1
    85   126   127    1
    86    70    68   ar
    87    91    92    2
    88   121   120    1
    89    47    46    1
    90   128   127    2
    91   128   130    1
    92    69    67   ar
    93    68    66   ar
    94    48    46    1
    95    46    45    1
    96   113   111   am
    97   117   116    2
    98   120   116   am
    99   116   115    1
   100   111   112    2
   101   111   110    1
   102    67    66   ar
   103    66    65    1
   104    41    42    1
   105    45    42    1
   106   110   107    1
   107   119   118    1
   108    42    43    1
   109    60    58    1
   110    98    99    1
   111    98    95    1
   112    94    95    1
   113    65    62    1
   114   115   118    1
   115   115   114    1
   116    64    63    2
   117   106   107    1
   118   106    96   am
   119    63    62    1
   120   101    99   ar
   121   101   103   ar
   122   107   108    1
   123    99   100   ar
   124    95    96    1
   125    58    57    1
   126    62    61    1
   127    43    44    2
   128    43    49   am
   129    96    97    2
   130   109   108    2
   131   103   104   ar
   132   100   102   ar
   133    49    50    1
   134    56    55    2
   135    57    59    1
   136    57    54    1
   137   104   102   ar
   138   104   105    1
   139    53    54    1
   140    53    51   am
   141    55    54    1
   142    50    51    1
   143    51    52    2
