@<TRIPOS>MOLECULE
tmp/5j14A02.pdb
 203 200 0 0 0
SMALL
GASTEIGER

@<TRIPOS>ATOM
      1  N         -2.8620  -18.4570  -34.1420 N.3   134  PHE134     -0.1228
      2  CA        -2.2030  -19.3910  -33.2530 C.3   134  PHE134      0.1721
      3  C         -3.1760  -19.9080  -32.1770 C.2   134  PHE134      0.2437
      4  O         -3.9170  -19.1290  -31.5790 O.2   134  PHE134     -0.2733
      5  CB        -0.9870  -18.7170  -32.6130 C.3   134  PHE134      0.0547
      6  CG        -0.3030  -19.5560  -31.5720 C.ar  134  PHE134     -0.0202
      7  CD1       -0.7130  -19.5190  -30.2530 C.ar  134  PHE134     -0.0042
      8  CD2        0.7610  -20.3610  -31.9150 C.ar  134  PHE134     -0.0042
      9  CE1       -0.0700  -20.2740  -29.2890 C.ar  134  PHE134     -0.0003
     10  CE2        1.4040  -21.1240  -30.9630 C.ar  134  PHE134     -0.0003
     11  CZ         0.9940  -21.0660  -29.6490 C.ar  134  PHE134     -0.0000
     12  N         -3.1560  -21.2150  -31.8970 N.am  135  PRO135     -0.2718
     13  CA        -2.3240  -22.2800  -32.4430 C.3   135  PRO135      0.1535
     14  C         -2.9550  -23.1140  -33.5530 C.2   135  PRO135      0.2598
     15  O         -2.2440  -23.9130  -34.1890 O.2   135  PRO135     -0.2715
     16  CB        -2.0870  -23.1660  -31.2250 C.3   135  PRO135      0.0310
     17  CG        -3.3810  -23.0460  -30.4670 C.3   135  PRO135      0.0237
     18  CD        -3.8280  -21.6330  -30.6490 C.3   135  PRO135      0.0939
     19  N         -4.2580  -22.9640  -33.7860 N.am  136  LEU136     -0.1978
     20  CA        -4.9190  -23.8470  -34.7620 C.3   136  LEU136      0.1596
     21  C         -4.5210  -23.6200  -36.2250 C.2   136  LEU136      0.2287
     22  O         -4.7930  -24.4850  -37.0730 O.2   136  LEU136     -0.2864
     23  CB        -6.4390  -23.8760  -34.6110 C.3   136  LEU136      0.0297
     24  CG        -6.8940  -24.3440  -33.2250 C.3   136  LEU136      0.0022
     25  CD1       -8.4020  -24.4370  -33.2470 C.3   136  LEU136      0.0001
     26  CD2       -6.3180  -25.6810  -32.7690 C.3   136  LEU136      0.0001
     27  N         -1.8870  -24.2700  -37.5610 N.3   138  TYR138     -0.1227
     28  CA        -1.0620  -25.3820  -38.0330 C.3   138  TYR138      0.1736
     29  C         -1.8910  -26.4240  -38.8290 C.2   138  TYR138      0.2595
     30  O         -1.3370  -27.2890  -39.4890 O.2   138  TYR138     -0.2718
     31  CB        -0.3340  -26.0700  -36.8810 C.3   138  TYR138      0.0548
     32  CG         0.8730  -25.3300  -36.3390 C.ar  138  TYR138     -0.0200
     33  CD1        2.1270  -25.4700  -36.9490 C.ar  138  TYR138     -0.0009
     34  CD2        0.7840  -24.5320  -35.1910 C.ar  138  TYR138     -0.0009
     35  CE1        3.2470  -24.8170  -36.4550 C.ar  138  TYR138      0.0417
     36  CE2        1.9160  -23.8940  -34.6790 C.ar  138  TYR138      0.0417
     37  CZ         3.1380  -24.0290  -35.3200 C.ar  138  TYR138      0.1957
     38  OH         4.2940  -23.4140  -34.8600 O.3   138  TYR138     -0.2866
     39  N         -3.2120  -26.3280  -38.7450 N.am  139  LEU139     -0.1980
     40  CA        -4.1140  -27.1490  -39.5510 C.3   139  LEU139      0.1596
     41  C         -4.4750  -26.5460  -40.9090 C.2   139  LEU139      0.2287
     42  O         -5.1950  -27.1880  -41.6800 O.2   139  LEU139     -0.2864
     43  CB        -5.3870  -27.4230  -38.7610 C.3   139  LEU139      0.0297
     44  CG        -5.1430  -28.2650  -37.4930 C.3   139  LEU139      0.0022
     45  CD1       -6.4030  -28.4250  -36.6620 C.3   139  LEU139      0.0001
     46  CD2       -4.5870  -29.6300  -37.8570 C.3   139  LEU139      0.0001
     47  N          9.5000  -25.7690  -32.0500 N.3   186  GLU186     -0.1245
     48  CA         8.2660  -26.4770  -32.4130 C.3   186  GLU186      0.1567
     49  C          8.0880  -26.8760  -33.8980 C.2   186  GLU186      0.2260
     50  O          7.1700  -26.4270  -34.5690 O.2   186  GLU186     -0.2867
     51  CB         7.0880  -25.6850  -31.8320 C.3   186  GLU186      0.0388
     52  CG         7.2120  -25.7430  -30.3090 C.3   186  GLU186      0.1160
     53  CD         6.0590  -25.1680  -29.5390 C.2   186  GLU186      0.3649
     54  OE1        5.3100  -24.4110  -30.1580 O.co2 186  GLU186     -0.2457
     55  OE2        5.9310  -25.4710  -28.3060 O.co2 186  GLU186     -0.2457
     56  N          6.9160  -28.5530  -37.0670 N.3   188  TRP188     -0.1241
     57  CA         5.6520  -29.2160  -37.3830 C.3   188  TRP188      0.1605
     58  C          5.8360  -30.1170  -38.6220 C.2   188  TRP188      0.2264
     59  O          6.4660  -29.7040  -39.6070 O.2   188  TRP188     -0.2867
     60  CB         4.5850  -28.1680  -37.6650 C.3   188  TRP188      0.0550
     61  CG         3.2450  -28.6980  -38.1070 C.ar  188  TRP188      0.0003
     62  CD1        2.6920  -28.5910  -39.3500 C.ar  188  TRP188      0.0946
     63  CD2        2.2590  -29.3330  -37.2830 C.ar  188  TRP188      0.0152
     64  NE1        1.4340  -29.1550  -39.3590 N.ar  188  TRP188     -0.2442
     65  CE2        1.1470  -29.6190  -38.1010 C.ar  188  TRP188      0.0810
     66  CE3        2.2250  -29.7230  -35.9370 C.ar  188  TRP188      0.0012
     67  CZ2        0.0160  -30.2660  -37.6180 C.ar  188  TRP188      0.0191
     68  CZ3        1.0960  -30.3730  -35.4580 C.ar  188  TRP188      0.0001
     69  CH2       -0.0010  -30.6270  -36.2940 C.ar  188  TRP188      0.0015
     70  N          1.0640  -34.8910  -41.1200 N.3   193  PHE193     -0.1227
     71  CA         1.0300  -34.9500  -39.6450 C.3   193  PHE193      0.1736
     72  C          0.1140  -36.0410  -39.0390 C.2   193  PHE193      0.2595
     73  O          0.3630  -36.4720  -37.9000 O.2   193  PHE193     -0.2718
     74  CB         0.6410  -33.5950  -39.0400 C.3   193  PHE193      0.0547
     75  CG        -0.8040  -33.2390  -39.2420 C.ar  193  PHE193     -0.0202
     76  CD1       -1.2120  -32.5610  -40.3790 C.ar  193  PHE193     -0.0042
     77  CD2       -1.7530  -33.5830  -38.2950 C.ar  193  PHE193     -0.0042
     78  CE1       -2.5470  -32.2480  -40.5800 C.ar  193  PHE193     -0.0003
     79  CE2       -3.0840  -33.2570  -38.4760 C.ar  193  PHE193     -0.0003
     80  CZ        -3.4820  -32.6050  -39.6220 C.ar  193  PHE193     -0.0000
     81  N         -0.9390  -36.4770  -39.7380 N.am  194  LEU194     -0.1980
     82  CA        -1.7910  -37.5510  -39.1680 C.3   194  LEU194      0.1596
     83  C         -1.0510  -38.8730  -39.0360 C.2   194  LEU194      0.2287
     84  O         -1.4540  -39.7230  -38.2340 O.2   194  LEU194     -0.2864
     85  CB        -3.1100  -37.7800  -39.9350 C.3   194  LEU194      0.0297
     86  CG        -4.1960  -36.7170  -39.7680 C.3   194  LEU194      0.0022
     87  CD1       -5.3900  -36.9560  -40.6920 C.3   194  LEU194      0.0001
     88  CD2       -4.6890  -36.6240  -38.3390 C.3   194  LEU194      0.0001
     89  N         -0.1000  -39.8610  -35.3420 N.3   197  PHE197     -0.1228
     90  CA        -1.1300  -40.2070  -34.3750 C.3   197  PHE197      0.1721
     91  C         -1.6630  -41.5820  -34.7420 C.2   197  PHE197      0.2437
     92  O         -1.7610  -41.8980  -35.9200 O.2   197  PHE197     -0.2733
     93  CB        -2.2530  -39.1770  -34.3920 C.3   197  PHE197      0.0547
     94  CG        -1.7990  -37.7820  -34.0320 C.ar  197  PHE197     -0.0202
     95  CD1       -1.3470  -36.9090  -35.0060 C.ar  197  PHE197     -0.0042
     96  CD2       -1.8010  -37.3550  -32.7150 C.ar  197  PHE197     -0.0042
     97  CE1       -0.9180  -35.6320  -34.6740 C.ar  197  PHE197     -0.0003
     98  CE2       -1.3780  -36.0750  -32.3760 C.ar  197  PHE197     -0.0003
     99  CZ        -0.9360  -35.2100  -33.3500 C.ar  197  PHE197     -0.0000
    100  N         -2.0020  -42.4010  -33.7390 N.am  198  PRO198     -0.2729
    101  CA        -1.9890  -42.0890  -32.3210 C.3   198  PRO198      0.1401
    102  C         -0.7270  -42.5330  -31.5830 C.2   198  PRO198      0.2269
    103  O         -0.7300  -42.5340  -30.3550 O.2   198  PRO198     -0.2865
    104  CB        -3.1520  -42.9290  -31.8120 C.3   198  PRO198      0.0296
    105  CG        -2.9390  -44.2030  -32.5660 C.3   198  PRO198      0.0237
    106  CD        -2.5270  -43.7650  -33.9600 C.3   198  PRO198      0.0939
    107  N          6.8560  -31.4280  -33.0330 N.3   234  VAL234     -0.1245
    108  CA         5.9470  -30.8350  -32.0640 C.3   234  VAL234      0.1561
    109  C          4.6400  -31.6250  -31.8540 C.2   234  VAL234      0.2260
    110  O          3.8550  -31.2850  -30.9670 O.2   234  VAL234     -0.2867
    111  CB         5.7290  -29.3280  -32.3340 C.3   234  VAL234      0.0252
    112  CG1        4.7240  -29.0950  -33.4500 C.3   234  VAL234      0.0019
    113  CG2        5.2530  -28.6100  -31.0830 C.3   234  VAL234      0.0019
    114  N          3.7590  -32.2820  -28.3280 N.3   237  ASN237     -0.1225
    115  CA         2.8710  -31.4570  -27.4870 C.3   237  ASN237      0.1785
    116  C          1.4200  -31.9510  -27.4840 C.2   237  ASN237      0.2597
    117  O          0.6020  -31.4840  -26.6670 O.2   237  ASN237     -0.2718
    118  CB         2.8790  -29.9900  -27.9470 C.3   237  ASN237      0.1169
    119  CG         4.1370  -29.2330  -27.5320 C.2   237  ASN237      0.2627
    120  OD1        5.0080  -29.7570  -26.8450 O.2   237  ASN237     -0.2716
    121  ND2        4.2190  -27.9830  -27.9510 N.am  237  ASN237     -0.0877
    122  N          1.1030  -32.8410  -28.4290 N.am  238  GLN238     -0.1965
    123  CA        -0.1870  -33.5590  -28.4470 C.3   238  GLN238      0.1733
    124  C         -0.0140  -35.0440  -28.0060 C.2   238  GLN238      0.2616
    125  O         -0.7430  -35.9410  -28.4680 O.2   238  GLN238     -0.2715
    126  CB        -0.8800  -33.4420  -29.8210 C.3   238  GLN238      0.0408
    127  CG        -1.1850  -32.0100  -30.2640 C.3   238  GLN238      0.0908
    128  CD        -0.0260  -31.3550  -31.0010 C.2   238  GLN238      0.2608
    129  OE1        0.5090  -31.9040  -31.9780 O.2   238  GLN238     -0.2717
    130  NE2        0.3520  -30.1690  -30.5530 N.am  238  GLN238     -0.0878
    131  N          0.9610  -35.2510  -27.1130 N.am  239  MET239     -0.1963
    132  CA         1.2340  -36.5030  -26.3540 C.3   239  MET239      0.1736
    133  C          2.0000  -37.5630  -27.1430 C.2   239  MET239      0.2616
    134  O          2.2480  -38.6380  -26.6160 O.2   239  MET239     -0.2715
    135  CB        -0.0490  -37.1150  -25.7310 C.3   239  MET239      0.0427
    136  CG        -0.8780  -36.1380  -24.9030 C.3   239  MET239      0.0599
    137  SD        -2.4970  -36.7430  -24.3510 S.3   239  MET239     -0.1393
    138  CE        -3.3040  -36.9350  -25.9390 C.3   239  MET239      0.0692
    139  N          2.4100  -37.2750  -28.3760 N.am  240  MET240     -0.1977
    140  CA         3.0440  -38.3040  -29.1890 C.3   240  MET240      0.1605
    141  C          4.5140  -38.4360  -28.8350 C.2   240  MET240      0.2287
    142  O          5.2040  -37.4480  -28.5980 O.2   240  MET240     -0.2864
    143  CB         2.8620  -38.0640  -30.6830 C.3   240  MET240      0.0413
    144  CG         1.4010  -37.9970  -31.0910 C.3   240  MET240      0.0598
    145  SD         0.5130  -39.5630  -30.8070 S.3   240  MET240     -0.1393
    146  CE        -0.2960  -39.3300  -29.2350 C.3   240  MET240      0.0692
    147  N          3.7120  -28.6070  -21.8640 N.3   265  TYR265     -0.1241
    148  CA         2.4890  -27.8290  -21.7130 C.3   265  TYR265      0.1605
    149  C          1.3110  -28.6950  -21.4030 C.2   265  TYR265      0.2264
    150  O          1.2490  -29.8190  -21.8540 O.2   265  TYR265     -0.2867
    151  CB         2.1780  -27.0770  -23.0120 C.3   265  TYR265      0.0534
    152  CG         3.0350  -25.8580  -23.2090 C.ar  265  TYR265     -0.0201
    153  CD1        2.7700  -24.7070  -22.5050 C.ar  265  TYR265     -0.0009
    154  CD2        4.1360  -25.8600  -24.0780 C.ar  265  TYR265     -0.0009
    155  CE1        3.5590  -23.5760  -22.6480 C.ar  265  TYR265      0.0417
    156  CE2        4.9320  -24.7200  -24.2230 C.ar  265  TYR265      0.0417
    157  CZ         4.6400  -23.5910  -23.4800 C.ar  265  TYR265      0.1957
    158  OH         5.3750  -22.4240  -23.5650 O.3   265  TYR265     -0.2866
    159  N         -2.4190  -29.2310  -22.2920 N.3   267  ILE267     -0.1245
    160  CA        -3.3340  -28.9090  -23.3710 C.3   267  ILE267      0.1561
    161  C         -4.5780  -28.1350  -22.8940 C.2   267  ILE267      0.2260
    162  O         -4.9160  -27.0830  -23.4570 O.2   267  ILE267     -0.2867
    163  CB        -3.7000  -30.1940  -24.1340 C.3   267  ILE267      0.0252
    164  CG1       -2.4890  -30.6710  -24.9540 C.3   267  ILE267      0.0019
    165  CG2       -4.9150  -29.9920  -25.0120 C.3   267  ILE267      0.0019
    166  CD1       -2.6080  -32.1120  -25.4310 C.3   267  ILE267      0.0001
    167  N         -3.7350  -24.5650  -22.1490 N.3   270  GLN270     -0.1231
    168  CA        -3.5130  -23.7670  -23.3600 C.3   270  GLN270      0.1698
    169  C         -4.7910  -23.5320  -24.1420 C.2   270  GLN270      0.2592
    170  O         -4.9840  -22.4630  -24.7250 O.2   270  GLN270     -0.2718
    171  CB        -2.4550  -24.4210  -24.2520 C.3   270  GLN270      0.0381
    172  CG        -1.0660  -24.3630  -23.6380 C.3   270  GLN270      0.0905
    173  CD        -0.4400  -22.9890  -23.7790 C.2   270  GLN270      0.2608
    174  OE1       -0.3090  -22.2260  -22.8030 O.2   270  GLN270     -0.2717
    175  NE2       -0.0990  -22.6380  -24.9900 N.am  270  GLN270     -0.0878
    176  N         -5.6510  -24.5360  -24.1950 N.am  271  LEU271     -0.1980
    177  CA        -6.9450  -24.3470  -24.8520 C.3   271  LEU271      0.1596
    178  C         -7.8380  -23.3290  -24.1510 C.2   271  LEU271      0.2287
    179  O         -8.6130  -22.6330  -24.8060 O.2   271  LEU271     -0.2864
    180  CB        -7.6880  -25.6610  -24.9580 C.3   271  LEU271      0.0297
    181  CG        -7.0910  -26.7080  -25.8890 C.3   271  LEU271      0.0022
    182  CD1       -7.9130  -27.9790  -25.7400 C.3   271  LEU271      0.0001
    183  CD2       -7.0150  -26.2520  -27.3330 C.3   271  LEU271      0.0001
    184  N         -6.1590  -19.8460  -25.1740 N.3   274  TYR274     -0.1241
    185  CA        -6.2600  -19.4470  -26.5840 C.3   274  TYR274      0.1605
    186  C         -7.6310  -19.6070  -27.1910 C.2   274  TYR274      0.2264
    187  O         -7.9660  -18.8500  -28.0910 O.2   274  TYR274     -0.2867
    188  CB        -5.1630  -20.0980  -27.4550 C.3   274  TYR274      0.0534
    189  CG        -3.8160  -19.5760  -27.0400 C.ar  274  TYR274     -0.0201
    190  CD1       -3.3700  -18.3040  -27.4440 C.ar  274  TYR274     -0.0009
    191  CD2       -3.0170  -20.3040  -26.1800 C.ar  274  TYR274     -0.0009
    192  CE1       -2.1500  -17.7990  -27.0170 C.ar  274  TYR274      0.0417
    193  CE2       -1.8090  -19.7970  -25.7370 C.ar  274  TYR274      0.0417
    194  CZ        -1.3690  -18.5500  -26.1760 C.ar  274  TYR274      0.1957
    195  OH        -0.1660  -18.0570  -25.7140 O.3   274  TYR274     -0.2866
    196  N         -7.3520  -32.5560  -16.1250 N.3   284  LEU284     -0.1245
    197  CA        -6.5230  -33.5110  -16.8140 C.3   284  LEU284      0.1561
    198  C         -5.0290  -33.1730  -16.9680 C.2   284  LEU284      0.2260
    199  O         -4.2920  -33.9740  -17.5790 O.2   284  LEU284     -0.2867
    200  CB        -7.1030  -33.7620  -18.1870 C.3   284  LEU284      0.0270
    201  CG        -7.9360  -35.0480  -18.2480 C.3   284  LEU284      0.0019
    202  CD1       -9.3620  -34.8400  -17.7390 C.3   284  LEU284      0.0001
    203  CD2       -7.8800  -35.6640  -19.6470 C.3   284  LEU284      0.0001
@<TRIPOS>BOND
     1    42    41    2
     2    70    71    1
     3    41    40    1
     4    87    86    1
     5    78    76   ar
     6    78    80   ar
     7    76    75   ar
     8    85    86    1
     9    85    82    1
    10    86    88    1
    11    81    82    1
    12    81    72   am
    13    71    74    1
    14    71    72    1
    15    80    79   ar
    16    59    58    2
    17    40    43    1
    18    40    39    1
    19    30    29    2
    20    64    62   ar
    21    64    65   ar
    22    62    61   ar
    23    75    74    1
    24    75    77   ar
    25    82    83    1
    26    72    73    2
    27    83    84    2
    28    29    39   am
    29    29    28    1
    30    43    44    1
    31    58    57    1
    32    79    77   ar
    33    61    60    1
    34    61    63   ar
    35    65    67   ar
    36    65    63   ar
    37    28    27    1
    38    28    31    1
    39    46    44    1
    40    60    57    1
    41    67    69   ar
    42    44    45    1
    43    57    56    1
    44    63    66   ar
    45    22    21    2
    46    33    35   ar
    47    33    32   ar
    48    31    32    1
    49    35    37   ar
    50    32    34   ar
    51    69    68   ar
    52    21    20    1
    53    66    68   ar
    54    92    91    2
    55    89    90    1
    56    37    38    1
    57    37    36   ar
    58    34    36   ar
    59    95    97   ar
    60    95    94   ar
    61    20    23    1
    62    20    19    1
    63    91    90    1
    64    91   100   am
    65    97    99   ar
    66    23    24    1
    67    50    49    2
    68    93    90    1
    69    93    94    1
    70    15    14    2
    71     1     2    1
    72    94    96   ar
    73   106   100    1
    74   106   105    1
    75    49    48    1
    76    19    14   am
    77   100   101    1
    78    14    13    1
    79   112   111    1
    80    99    98   ar
    81     2     5    1
    82     2     3    1
    83    25    24    1
    84    24    26    1
    85   107   108    1
    86    96    98   ar
    87     5     6    1
    88   105   104    1
    89    13    12    1
    90    13    16    1
    91    48    47    1
    92    48    51    1
    93   111   108    1
    94   111   113    1
    95   101   104    1
    96   101   102    1
    97     3    12   am
    98     3     4    2
    99   108   109    1
   100   129   128    2
   101     8     6   ar
   102     8    10   ar
   103    12    18    1
   104   109   110    2
   105    51    52    1
   106   102   103    2
   107     6     7   ar
   108    16    17    1
   109   144   145    1
   110   144   143    1
   111   128   130   am
   112   128   127    1
   113    10    11   ar
   114   145   146    1
   115   143   140    1
   116    18    17    1
   117    52    53    1
   118   127   126    1
   119     7     9   ar
   120    54    53   ar
   121   126   123    1
   122    11     9   ar
   123    53    55   ar
   124   140   141    1
   125   140   139    1
   126   141   142    2
   127   125   124    2
   128   123   122    1
   129   123   124    1
   130   122   116   am
   131   139   133   am
   132   114   115    1
   133   187   186    2
   134   124   131   am
   135   121   119   am
   136   118   119    1
   137   118   115    1
   138   119   120    2
   139   115   116    1
   140   116   117    2
   141   188   189    1
   142   188   185    1
   143   190   189   ar
   144   190   192   ar
   145   183   181    1
   146   186   185    1
   147   133   134    2
   148   133   132    1
   149   131   132    1
   150   189   191   ar
   151   192   194   ar
   152   185   184    1
   153   132   135    1
   154   191   193   ar
   155   194   193   ar
   156   194   195    1
   157   138   137    1
   158   181   182    1
   159   181   180    1
   160   135   136    1
   161   166   164    1
   162   165   163    1
   163   175   173   am
   164   180   177    1
   165   164   163    1
   166   136   137    1
   167   177   176    1
   168   177   178    1
   169   179   178    2
   170   170   169    2
   171   171   172    1
   172   171   168    1
   173   156   154   ar
   174   156   157   ar
   175   176   169   am
   176   169   168    1
   177   163   160    1
   178   154   152   ar
   179   173   172    1
   180   173   174    2
   181   158   157    1
   182   157   155   ar
   183   162   161    2
   184   160   161    1
   185   160   159    1
   186   168   167    1
   187   152   151    1
   188   152   153   ar
   189   151   148    1
   190   155   153   ar
   191   147   148    1
   192   150   149    2
   193   148   149    1
   194   203   201    1
   195   201   200    1
   196   201   202    1
   197   200   197    1
   198   199   198    2
   199   198   197    1
   200   197   196    1
