@<TRIPOS>MOLECULE
tmp/5j16A00.pdb
 144 136 0 0 0
SMALL
GASTEIGER

@<TRIPOS>ATOM
      1  N         12.1650   -4.0060    1.0320 N.3    52  GLU52      -0.1245
      2  CA        12.6970   -3.2290   -0.0940 C.3    52  GLU52       0.1567
      3  C         14.1900   -3.0380    0.0050 C.2    52  GLU52       0.2260
      4  O         14.9080   -3.3220   -0.9550 O.2    52  GLU52      -0.2867
      5  CB        11.9430   -1.9100   -0.3170 C.3    52  GLU52       0.0388
      6  CG        12.5000   -0.5920    0.2090 C.3    52  GLU52       0.1160
      7  CD        12.2770    0.5220   -0.7890 C.2    52  GLU52       0.3649
      8  OE1       11.4320    1.3940   -0.5080 O.co2  52  GLU52      -0.2457
      9  OE2       12.9320    0.4920   -1.8590 O.co2  52  GLU52      -0.2457
     10  N          7.7440   -2.2750    3.9030 N.3    70  ASP70      -0.1239
     11  CA         8.3400   -1.0560    3.4150 C.3    70  ASP70       0.1674
     12  C          8.5120   -0.2700    4.6900 C.2    70  ASP70       0.2266
     13  O          7.5300    0.1040    5.3130 O.2    70  ASP70      -0.2867
     14  CB         7.3930   -0.3440    2.4370 C.3    70  ASP70       0.1410
     15  CG         8.0770    0.7300    1.6340 C.2    70  ASP70       0.3668
     16  OD1        9.1730    1.1590    2.0250 O.co2  70  ASP70      -0.2456
     17  OD2        7.4740    1.1550    0.6140 O.co2  70  ASP70      -0.2456
     18  N          9.8980    2.7950    5.1750 N.3    72  ILE72      -0.1231
     19  CA         9.4420    4.1940    4.9660 C.3    72  ILE72       0.1692
     20  C          8.9220    4.2770    3.5390 C.2    72  ILE72       0.2592
     21  O          9.7160    4.3350    2.6060 O.2    72  ILE72      -0.2718
     22  CB        10.5570    5.2890    5.1520 C.3    72  ILE72       0.0266
     23  CG1       10.9250    5.4890    6.6350 C.3    72  ILE72       0.0019
     24  CG2       10.1050    6.6520    4.6240 C.3    72  ILE72       0.0020
     25  CD1       12.1350    4.7120    7.0940 C.3    72  ILE72       0.0001
     26  N          7.5910    4.2640    3.3900 N.am   73  ASP73      -0.1960
     27  CA         6.9600    4.5360    2.1320 C.3    73  ASP73       0.1840
     28  C          6.7260    6.0270    2.0750 C.2    73  ASP73       0.2623
     29  O          6.0770    6.5740    2.9300 O.2    73  ASP73      -0.2715
     30  CB         5.6630    3.7630    1.9580 C.3    73  ASP73       0.1450
     31  CG         5.1020    3.8690    0.5200 C.2    73  ASP73       0.3671
     32  OD1        5.8670    3.6170   -0.4540 O.co2  73  ASP73      -0.2456
     33  OD2        3.9230    4.2510    0.3610 O.co2  73  ASP73      -0.2456
     34  N          7.2200    6.6440    1.0140 N.am   74  GLY74      -0.1940
     35  CA         7.2760    8.0680    0.8690 C.3    74  GLY74       0.2014
     36  C          8.5580    8.6620    1.4030 C.2    74  GLY74       0.2640
     37  O          8.5000    9.5780    2.2330 O.2    74  GLY74      -0.2714
     38  N          9.7130    8.1700    0.9510 N.am   75  THR75      -0.1936
     39  CA        10.9930    8.7650    1.4070 C.3    75  THR75       0.2028
     40  C         11.2200   10.1980    0.9480 C.2    75  THR75       0.2642
     41  O         11.8380   10.9670    1.6640 O.2    75  THR75      -0.2714
     42  CB        12.2640    7.9380    1.0600 C.3    75  THR75       0.1808
     43  OG1       12.0500    7.2140   -0.1420 O.3    75  THR75      -0.2208
     44  CG2       12.5730    6.9630    2.1470 C.3    75  THR75       0.0379
     45  N         10.7290   10.5580   -0.2290 N.am   76  LEU76      -0.1977
     46  CA        10.8170   11.9460   -0.6830 C.3    76  LEU76       0.1596
     47  C         10.0090   12.8230    0.2600 C.2    76  LEU76       0.2287
     48  O         10.4950   13.8320    0.7210 O.2    76  LEU76      -0.2864
     49  CB        10.3210   12.1050   -2.1120 C.3    76  LEU76       0.0297
     50  CG        11.3840   11.7490   -3.1250 C.3    76  LEU76       0.0022
     51  CD1       10.7420   11.5090   -4.4960 C.3    76  LEU76       0.0001
     52  CD2       12.4370   12.8560   -3.1930 C.3    76  LEU76       0.0001
     53  N         -0.1270   10.5250  -10.1480 N.3   142  ASN142     -0.1240
     54  CA         0.9290   11.4900  -10.2410 C.3   142  ASN142      0.1653
     55  C          1.1080   12.1260  -11.6430 C.2   142  ASN142      0.2266
     56  O          1.0700   11.4260  -12.6650 O.2   142  ASN142     -0.2867
     57  CB         2.2370   10.8630   -9.7880 C.3   142  ASN142      0.1155
     58  CG         3.2800   11.9100   -9.5270 C.2   142  ASN142      0.2627
     59  OD1        3.8450   12.4770  -10.4660 O.2   142  ASN142     -0.2716
     60  ND2        3.4720   12.2470   -8.2620 N.am  142  ASN142     -0.0877
     61  N          3.3390   10.3610  -14.5490 N.3   145  TRP145     -0.1241
     62  CA         2.8210    9.3300  -15.4640 C.3   145  TRP145      0.1605
     63  C          2.2290    9.8970  -16.7380 C.2   145  TRP145      0.2264
     64  O          2.1930    9.1950  -17.7340 O.2   145  TRP145     -0.2867
     65  CB         1.7940    8.3720  -14.7660 C.3   145  TRP145      0.0550
     66  CG         2.3280    7.8580  -13.5160 C.ar  145  TRP145      0.0003
     67  CD1        1.7380    7.9120  -12.2840 C.ar  145  TRP145      0.0946
     68  CD2        3.6360    7.3170  -13.3190 C.ar  145  TRP145      0.0152
     69  NE1        2.5830    7.3900  -11.3330 N.ar  145  TRP145     -0.2442
     70  CE2        3.7600    7.0260  -11.9370 C.ar  145  TRP145      0.0810
     71  CE3        4.7050    7.0170  -14.1780 C.ar  145  TRP145      0.0012
     72  CZ2        4.9130    6.4320  -11.3900 C.ar  145  TRP145      0.0191
     73  CZ3        5.8500    6.4370  -13.6360 C.ar  145  TRP145      0.0001
     74  CH2        5.9440    6.1440  -12.2500 C.ar  145  TRP145      0.0015
     75  N          2.2330   11.3260   -2.9890 N.3   169  GLY169     -0.1210
     76  CA         3.5950   10.8220   -2.8400 C.3   169  GLY169      0.1956
     77  C          3.7850    9.6870   -1.8390 C.2   169  GLY169      0.2613
     78  O          4.9170    9.4800   -1.3330 O.2   169  GLY169     -0.2717
     79  N          2.7100    8.9440   -1.5620 N.am  170  SER170     -0.1938
     80  CA         2.8420    7.6570   -0.8390 C.3   170  SER170      0.2055
     81  C          1.8350    6.6740   -1.3660 C.2   170  SER170      0.2642
     82  O          0.6320    6.8300   -1.1540 O.2   170  SER170     -0.2714
     83  CB         2.6580    7.8030    0.6820 C.3   170  SER170      0.2130
     84  OG         2.4860    6.5320    1.3150 O.3   170  SER170     -0.2179
     85  N          2.3140    5.6490   -2.0430 N.am  171  ALA171     -0.1977
     86  CA         1.4220    4.6470   -2.5470 C.3   171  ALA171      0.1597
     87  C          0.6250    3.9530   -1.4110 C.2   171  ALA171      0.2287
     88  O         -0.5920    3.7200   -1.5190 O.2   171  ALA171     -0.2864
     89  CB         2.2050    3.6410   -3.3700 C.3   171  ALA171      0.0319
     90  N         -1.9660    6.4470   -0.2100 N.3   174  GLU174     -0.1245
     91  CA        -2.9860    6.5840   -1.2420 C.3   174  GLU174      0.1567
     92  C         -3.9280    5.4100   -1.4290 C.2   174  GLU174      0.2260
     93  O         -5.0970    5.5960   -1.7580 O.2   174  GLU174     -0.2867
     94  CB        -2.3460    6.9700   -2.5620 C.3   174  GLU174      0.0388
     95  CG        -1.9420    8.4170   -2.4790 C.3   174  GLU174      0.1160
     96  CD        -1.1660    8.8640   -3.6410 C.2   174  GLU174      0.3649
     97  OE1        0.0670    8.7420   -3.5840 O.co2 174  GLU174     -0.2457
     98  OE2       -1.8110    9.3090   -4.5940 O.co2 174  GLU174     -0.2457
     99  N         -7.1020    5.1520   -7.3420 N.3   186  TYR186     -0.1241
    100  CA        -5.6750    5.4800   -7.3870 C.3   186  TYR186      0.1605
    101  C         -5.0180    4.5810   -8.3940 C.2   186  TYR186      0.2264
    102  O         -5.4300    3.4420   -8.5540 O.2   186  TYR186     -0.2867
    103  CB        -5.0440    5.2830   -6.0240 C.3   186  TYR186      0.0534
    104  CG        -3.5190    5.1290   -6.0150 C.ar  186  TYR186     -0.0201
    105  CD1       -2.6780    6.1730   -6.3840 C.ar  186  TYR186     -0.0009
    106  CD2       -2.9320    3.9450   -5.6260 C.ar  186  TYR186     -0.0009
    107  CE1       -1.2890    6.0340   -6.3570 C.ar  186  TYR186      0.0417
    108  CE2       -1.5570    3.7900   -5.6130 C.ar  186  TYR186      0.0417
    109  CZ        -0.7340    4.8290   -5.9690 C.ar  186  TYR186      0.1957
    110  OH         0.6350    4.6280   -5.9130 O.3   186  TYR186     -0.2866
    111  N         -1.2030    3.5650  -10.8810 N.3   188  THR188     -0.1218
    112  CA         0.2160    3.7400  -11.1410 C.3   188  THR188      0.1862
    113  C          0.7080    2.5610  -11.9750 C.2   188  THR188      0.2287
    114  O          0.1990    1.4560  -11.8630 O.2   188  THR188     -0.2866
    115  CB         1.0250    3.9190   -9.8050 C.3   188  THR188      0.1770
    116  OG1        2.4330    3.9320  -10.0470 O.3   188  THR188     -0.2211
    117  CG2        0.7300    2.8310   -8.8400 C.3   188  THR188      0.0375
    118  N          3.9330    1.2980  -11.9200 N.3   190  ARG190     -0.1231
    119  CA         4.9050    0.4700  -11.1970 C.3   190  ARG190      0.1694
    120  C          4.8310    0.6120   -9.6520 C.2   190  ARG190      0.2591
    121  O          5.1470    1.6510   -9.0760 O.2   190  ARG190     -0.2718
    122  CB         6.3340    0.7580  -11.6740 C.3   190  ARG190      0.0321
    123  CG         7.3400   -0.2540  -11.1240 C.3   190  ARG190      0.0489
    124  CD         8.7500   -0.2670  -11.7620 C.3   190  ARG190      0.2205
    125  NE         9.3670   -1.5970  -11.5300 N.pl3 190  ARG190     -0.0865
    126  CZ         9.4180   -2.6230  -12.3940 C.cat 190  ARG190      0.5346
    127  NH1        8.9560   -2.5140  -13.6340 N.pl3 190  ARG190      0.1354
    128  NH2        9.9670   -3.7770  -12.0230 N.pl3 190  ARG190      0.1354
    129  N          4.4420   -0.4700   -9.0080 N.am  191  LEU191     -0.1980
    130  CA         4.6480   -0.6750   -7.6010 C.3   191  LEU191      0.1596
    131  C          5.3290   -2.0130   -7.2730 C.2   191  LEU191      0.2287
    132  O          5.1770   -2.9900   -7.9970 O.2   191  LEU191     -0.2864
    133  CB         3.2940   -0.6200   -6.9380 C.3   191  LEU191      0.0297
    134  CG         3.0390    0.5140   -5.9660 C.3   191  LEU191      0.0022
    135  CD1        3.6340    1.8550   -6.3330 C.3   191  LEU191      0.0001
    136  CD2        1.5380    0.6000   -5.6630 C.3   191  LEU191      0.0001
    137  N          4.9830   -2.0220   -1.3080 N.3   195  ASP195     -0.1239
    138  CA         4.1800   -0.7820   -1.3870 C.3   195  ASP195      0.1674
    139  C          2.6740   -1.0440   -1.2340 C.2   195  ASP195      0.2266
    140  O          1.9440   -0.1720   -0.7510 O.2   195  ASP195     -0.2867
    141  CB         4.4140   -0.0230   -2.7330 C.3   195  ASP195      0.1410
    142  CG         5.8650    0.4970   -2.9130 C.2   195  ASP195      0.3668
    143  OD1        6.3950    0.3760   -4.0810 O.co2 195  ASP195     -0.2456
    144  OD2        6.4530    1.0300   -1.9180 O.co2 195  ASP195     -0.2456
@<TRIPOS>BOND
     1    64    63    2
     2    63    62    1
     3    62    65    1
     4    62    61    1
     5    65    66    1
     6    71    73   ar
     7    71    68   ar
     8    73    74   ar
     9   127   126    1
    10    66    68   ar
    11    66    67   ar
    12    68    70   ar
    13    56    55    2
    14   126   128    1
    15   126   125    2
    16    67    69   ar
    17    74    72   ar
    18   113   114    2
    19   113   112    1
    20    70    72   ar
    21    70    69   ar
    22   118   119    1
    23   124   125    1
    24   124   123    1
    25   122   119    1
    26   122   123    1
    27    55    54    1
    28   119   120    1
    29   112   111    1
    30   112   115    1
    31    59    58    2
    32    54    53    1
    33    54    57    1
    34   116   115    1
    35   115   117    1
    36    57    58    1
    37   120   121    2
    38   120   129   am
    39    58    60   am
    40   129   130    1
    41   102   101    2
    42   101   100    1
    43   132   131    2
    44   130   131    1
    45   130   133    1
    46   100    99    1
    47   100   103    1
    48   133   134    1
    49   105   107   ar
    50   105   104   ar
    51   107   109   ar
    52   135   134    1
    53   103   104    1
    54   104   106   ar
    55   109   110    1
    56   109   108   ar
    57   134   136    1
    58   106   108   ar
    59    98    96   ar
    60    51    50    1
    61   143   142   ar
    62    96    97   ar
    63    96    95    1
    64    89    86    1
    65    52    50    1
    66    50    49    1
    67    75    76    1
    68   142   141    1
    69   142   144   ar
    70    76    77    1
    71   141   138    1
    72    94    95    1
    73    94    91    1
    74    86    85    1
    75    86    87    1
    76    49    46    1
    77    85    81   am
    78     9     7   ar
    79    77    79   am
    80    77    78    2
    81    93    92    2
    82    79    80    1
    83    88    87    2
    84    92    91    1
    85   138   137    1
    86   138   139    1
    87    81    82    2
    88    81    80    1
    89    91    90    1
    90   139   140    2
    91     4     3    2
    92    80    83    1
    93     7     8   ar
    94     7     6    1
    95    46    45    1
    96    46    47    1
    97    32    31   ar
    98     5     2    1
    99     5     6    1
   100    45    40   am
   101    43    42    1
   102     2     3    1
   103     2     1    1
   104    47    48    2
   105    33    31   ar
   106    31    30    1
   107    17    15   ar
   108    83    84    1
   109    35    34    1
   110    35    36    1
   111    40    39    1
   112    40    41    2
   113    38    36   am
   114    38    39    1
   115    34    28   am
   116    42    39    1
   117    42    44    1
   118    36    37    2
   119    15    16   ar
   120    15    14    1
   121    30    27    1
   122    28    27    1
   123    28    29    2
   124    27    26    1
   125    14    11    1
   126    21    20    2
   127    26    20   am
   128    11    10    1
   129    11    12    1
   130    20    19    1
   131    24    22    1
   132    12    13    2
   133    19    22    1
   134    19    18    1
   135    22    23    1
   136    23    25    1
