@<TRIPOS>MOLECULE
tmp/5j1aA00.pdb
 234 225 0 0 0
SMALL
GASTEIGER

@<TRIPOS>ATOM
      1  N        -22.4160    2.4270  -23.1040 N.3     3  PHE3       -0.1241
      2  CA       -21.9940    3.7940  -22.7870 C.3     3  PHE3        0.1605
      3  C        -23.1240    4.5400  -22.0770 C.2     3  PHE3        0.2264
      4  O        -24.2490    4.6110  -22.5850 O.2     3  PHE3       -0.2867
      5  CB       -21.4860    4.6150  -23.9890 C.3     3  PHE3        0.0534
      6  CG       -20.8810    5.9330  -23.5370 C.ar    3  PHE3       -0.0203
      7  CD1      -19.5850    5.9850  -23.0220 C.ar    3  PHE3       -0.0042
      8  CD2      -21.6360    7.1030  -23.5350 C.ar    3  PHE3       -0.0042
      9  CE1      -19.0560    7.1820  -22.5290 C.ar    3  PHE3       -0.0003
     10  CE2      -21.1050    8.3000  -23.0480 C.ar    3  PHE3       -0.0003
     11  CZ       -19.8300    8.3280  -22.5250 C.ar    3  PHE3       -0.0000
     12  N        -24.0230    8.0860  -19.1770 N.3     5  VAL5       -0.1245
     13  CA       -23.6400    9.3020  -18.4710 C.3     5  VAL5        0.1561
     14  C        -24.3460    9.2790  -17.1050 C.2     5  VAL5        0.2260
     15  O        -25.4760    8.7980  -16.9930 O.2     5  VAL5       -0.2867
     16  CB       -23.9320   10.5770  -19.2990 C.3     5  VAL5        0.0252
     17  CG1      -23.6840   11.8630  -18.4880 C.3     5  VAL5        0.0019
     18  CG2      -23.1070   10.5940  -20.5800 C.3     5  VAL5        0.0019
     19  N        -25.3110   11.7440  -13.8690 N.3     7  TRP7       -0.1241
     20  CA       -25.5230   13.1470  -13.5090 C.3     7  TRP7        0.1605
     21  C        -26.0920   13.2060  -12.1000 C.2     7  TRP7        0.2264
     22  O        -27.0770   12.5150  -11.7890 O.2     7  TRP7       -0.2867
     23  CB       -26.4730   13.7730  -14.5420 C.3     7  TRP7        0.0550
     24  CG       -26.6270   15.2550  -14.4790 C.ar    7  TRP7        0.0003
     25  CD1      -25.8380   16.1830  -15.0830 C.ar    7  TRP7        0.0946
     26  CD2      -27.7070   15.9770  -13.8770 C.ar    7  TRP7        0.0152
     27  NE1      -26.3300   17.4440  -14.8490 N.ar    7  TRP7       -0.2442
     28  CE2      -27.4870   17.3470  -14.1320 C.ar    7  TRP7        0.0810
     29  CE3      -28.8170   15.6040  -13.0970 C.ar    7  TRP7        0.0012
     30  CZ2      -28.3390   18.3440  -13.6510 C.ar    7  TRP7        0.0191
     31  CZ3      -29.6950   16.5920  -12.6750 C.ar    7  TRP7        0.0001
     32  CH2      -29.4520   17.9410  -12.9540 C.ar    7  TRP7        0.0015
     33  N        -20.8830   15.2960  -12.8680 N.3    21  VAL21      -0.1245
     34  CA       -21.2280   14.5930  -14.1130 C.3    21  VAL21       0.1561
     35  C        -20.0640   13.7380  -14.5890 C.2    21  VAL21       0.2260
     36  O        -18.9160   14.1830  -14.5460 O.2    21  VAL21      -0.2867
     37  CB       -21.6510   15.5670  -15.2380 C.3    21  VAL21       0.0252
     38  CG1      -22.3910   14.8480  -16.3660 C.3    21  VAL21       0.0019
     39  CG2      -22.4510   16.7580  -14.7150 C.3    21  VAL21       0.0019
     40  N        -15.0450    9.9370  -18.9030 N.3    31  HIS31      -0.1241
     41  CA       -15.1440   11.3900  -18.9630 C.3    31  HIS31       0.1621
     42  C        -15.6070   11.9800  -17.6590 C.2    31  HIS31       0.2264
     43  O        -16.3710   11.3410  -16.9190 O.2    31  HIS31      -0.2867
     44  CB       -16.1820   11.8170  -20.0380 C.3    31  HIS31       0.0745
     45  CG       -15.9180   11.2730  -21.4010 C.ar   31  HIS31       0.0817
     46  ND1      -16.2410    9.9670  -21.7290 N.ar   31  HIS31      -0.2268
     47  CD2      -15.4250   11.8910  -22.4980 C.ar   31  HIS31       0.1154
     48  CE1      -15.8870    9.8180  -22.9970 C.ar   31  HIS31       0.1986
     49  NE2      -15.4030   10.9490  -23.5030 N.ar   31  HIS31      -0.2212
     50  N        -17.0710   16.0480  -16.0570 N.3    33  TRP33      -0.1241
     51  CA       -17.3950   17.4480  -16.2860 C.3    33  TRP33       0.1605
     52  C        -16.6740   18.2580  -15.2260 C.2    33  TRP33       0.2264
     53  O        -16.6620   17.8660  -14.0510 O.2    33  TRP33      -0.2867
     54  CB       -18.9070   17.6950  -16.2530 C.3    33  TRP33       0.0550
     55  CG       -19.3170   19.0980  -16.5880 C.ar   33  TRP33       0.0003
     56  CD1      -19.8120   20.0340  -15.7280 C.ar   33  TRP33       0.0946
     57  CD2      -19.2990   19.7120  -17.8850 C.ar   33  TRP33       0.0152
     58  NE1      -20.1450   21.1790  -16.4150 N.ar   33  TRP33      -0.2442
     59  CE2      -19.8390   21.0110  -17.7410 C.ar   33  TRP33       0.0810
     60  CE3      -18.9070   19.2800  -19.1650 C.ar   33  TRP33       0.0012
     61  CZ2      -19.9880   21.8840  -18.8260 C.ar   33  TRP33       0.0191
     62  CZ3      -19.0460   20.1490  -20.2380 C.ar   33  TRP33       0.0001
     63  CH2      -19.5670   21.4400  -20.0630 C.ar   33  TRP33       0.0015
     64  N        -15.3560   19.5450  -20.9760 N.3    40  ILE40      -0.1245
     65  CA       -15.2820   18.0820  -20.9550 C.3    40  ILE40       0.1561
     66  C        -13.8500   17.6620  -20.6320 C.2    40  ILE40       0.2260
     67  O        -12.9090   18.1380  -21.2680 O.2    40  ILE40      -0.2867
     68  CB       -15.7750   17.4400  -22.2840 C.3    40  ILE40       0.0252
     69  CG1      -17.2530   17.8020  -22.5750 C.3    40  ILE40       0.0019
     70  CG2      -15.5550   15.9060  -22.2690 C.3    40  ILE40       0.0019
     71  CD1      -17.7060   17.5430  -23.9940 C.3    40  ILE40       0.0001
     72  N        -16.7920   17.7330  -30.7570 N.3    56  TRP56      -0.1241
     73  CA       -16.6770   17.7710  -29.2960 C.3    56  TRP56       0.1605
     74  C        -17.0840   19.1450  -28.7230 C.2    56  TRP56       0.2264
     75  O        -17.7250   19.1890  -27.6680 O.2    56  TRP56      -0.2867
     76  CB       -15.2560   17.3940  -28.8450 C.3    56  TRP56       0.0550
     77  CG       -15.0620   15.9120  -28.7040 C.ar   56  TRP56       0.0003
     78  CD1      -14.2210   15.1200  -29.4270 C.ar   56  TRP56       0.0946
     79  CD2      -15.7630   15.0390  -27.8020 C.ar   56  TRP56       0.0152
     80  NE1      -14.3380   13.8090  -29.0240 N.ar   56  TRP56      -0.2442
     81  CE2      -15.2900   13.7280  -28.0360 C.ar   56  TRP56       0.0810
     82  CE3      -16.7510   15.2380  -26.8220 C.ar   56  TRP56       0.0012
     83  CZ2      -15.7600   12.6220  -27.3150 C.ar   56  TRP56       0.0191
     84  CZ3      -17.2080   14.1430  -26.1010 C.ar   56  TRP56       0.0001
     85  CH2      -16.7220   12.8530  -26.3570 C.ar   56  TRP56       0.0015
     86  N        -20.9660   19.4270  -28.7360 N.3    59  LEU59      -0.1245
     87  CA       -21.4460   18.5670  -27.6390 C.3    59  LEU59       0.1561
     88  C        -21.2750   19.2990  -26.2970 C.2    59  LEU59       0.2260
     89  O        -22.2180   19.3440  -25.5020 O.2    59  LEU59      -0.2867
     90  CB       -20.6780   17.2230  -27.6130 C.3    59  LEU59       0.0270
     91  CG       -21.1030   16.1450  -28.6210 C.3    59  LEU59       0.0019
     92  CD1      -19.9390   15.2460  -28.9770 C.3    59  LEU59       0.0001
     93  CD2      -22.2710   15.3020  -28.0920 C.3    59  LEU59       0.0001
     94  N        -23.7540   22.3150  -25.9710 N.3    62  LEU62      -0.1231
     95  CA       -25.0900   21.7660  -25.7230 C.3    62  LEU62       0.1693
     96  C        -25.2330   21.3410  -24.2470 C.2    62  LEU62       0.2592
     97  O        -26.2400   21.6670  -23.6170 O.2    62  LEU62      -0.2718
     98  CB       -25.3470   20.5790  -26.6790 C.3    62  LEU62       0.0284
     99  CG       -26.7020   19.8510  -26.6130 C.3    62  LEU62       0.0019
    100  CD1      -27.8410   20.7290  -27.1400 C.3    62  LEU62       0.0001
    101  CD2      -26.6510   18.5770  -27.4290 C.3    62  LEU62       0.0001
    102  N        -24.1980   20.6920  -23.6800 N.am   63  PHE63      -0.1976
    103  CA       -24.2440   20.2850  -22.2810 C.3    63  PHE63       0.1639
    104  C        -24.1980   21.5000  -21.3260 C.2    63  PHE63       0.2290
    105  O        -24.9450   21.5280  -20.3440 O.2    63  PHE63      -0.2864
    106  CB       -23.1270   19.2870  -21.9430 C.3    63  PHE63       0.0560
    107  CG       -23.2590   18.7780  -20.5300 C.ar   63  PHE63      -0.0200
    108  CD1      -24.3010   17.9290  -20.1750 C.ar   63  PHE63      -0.0042
    109  CD2      -22.4020   19.2210  -19.5320 C.ar   63  PHE63      -0.0042
    110  CE1      -24.4520   17.4950  -18.8610 C.ar   63  PHE63      -0.0003
    111  CE2      -22.5480   18.7760  -18.2170 C.ar   63  PHE63      -0.0003
    112  CZ       -23.5660   17.9110  -17.8970 C.ar   63  PHE63      -0.0000
    113  N        -27.6920   23.3180  -21.3420 N.3    66  ARG66      -0.1231
    114  CA       -28.7380   22.4640  -20.7650 C.3    66  ARG66       0.1694
    115  C        -28.6130   22.3210  -19.2350 C.2    66  ARG66       0.2592
    116  O        -29.6370   22.1310  -18.5830 O.2    66  ARG66      -0.2718
    117  CB       -28.7650   21.0870  -21.4300 C.3    66  ARG66       0.0321
    118  CG       -29.4880   21.0950  -22.7640 C.3    66  ARG66       0.0489
    119  CD       -29.6980   19.7000  -23.3080 C.3    66  ARG66       0.2205
    120  NE       -30.6510   19.6990  -24.4180 N.pl3  66  ARG66      -0.0865
    121  CZ       -31.3000   18.6230  -24.8500 C.cat  66  ARG66       0.5346
    122  NH1      -31.1100   17.4460  -24.2680 N.pl3  66  ARG66       0.1354
    123  NH2      -32.1600   18.7190  -25.8550 N.pl3  66  ARG66       0.1354
    124  N        -27.3940   22.4540  -18.6590 N.am   67  THR67      -0.1953
    125  CA       -27.2110   22.3780  -17.2020 C.3    67  THR67       0.1897
    126  C        -27.6640   23.6730  -16.5140 C.2    67  THR67       0.2313
    127  O        -28.3070   23.5950  -15.4660 O.2    67  THR67      -0.2863
    128  CB       -25.7910   22.0210  -16.8140 C.3    67  THR67       0.1794
    129  OG1      -24.8760   22.8730  -17.4820 O.3    67  THR67      -0.2208
    130  CG2      -25.4720   20.5910  -17.1100 C.3    67  THR67       0.0378
    131  N        -29.9100   25.7190  -17.7140 N.3    69  ARG69      -0.1231
    132  CA       -31.3490   25.6300  -17.9500 C.3    69  ARG69       0.1694
    133  C        -32.0150   24.6830  -16.9310 C.2    69  ARG69       0.2592
    134  O        -33.1130   24.9710  -16.4540 O.2    69  ARG69      -0.2718
    135  CB       -31.5930   25.1220  -19.3790 C.3    69  ARG69       0.0321
    136  CG       -33.0380   25.2510  -19.8550 C.3    69  ARG69       0.0489
    137  CD       -33.1270   25.2440  -21.3680 C.3    69  ARG69       0.2205
    138  NE       -33.0430   23.8940  -21.9300 N.pl3  69  ARG69      -0.0865
    139  CZ       -32.5990   23.6190  -23.1530 C.cat  69  ARG69       0.5346
    140  NH1      -32.1690   24.5940  -23.9470 N.pl3  69  ARG69       0.1354
    141  NH2      -32.5690   22.3670  -23.5880 N.pl3  69  ARG69       0.1354
    142  N        -31.3490   23.5560  -16.6050 N.am   70  SER70      -0.1952
    143  CA       -31.8730   22.5560  -15.6670 C.3    70  SER70       0.1924
    144  C        -31.9140   23.0900  -14.2440 C.2    70  SER70       0.2314
    145  O        -32.9550   22.9860  -13.5900 O.2    70  SER70      -0.2863
    146  CB       -31.0390   21.2850  -15.7220 C.3    70  SER70       0.2116
    147  OG       -31.1470   20.7360  -17.0240 O.3    70  SER70      -0.2180
    148  N        -34.5430   25.8860  -14.0670 N.3    73  GLY73      -0.1210
    149  CA       -35.8570   25.2810  -14.2420 C.3    73  GLY73       0.1956
    150  C        -36.3540   24.6080  -12.9790 C.2    73  GLY73       0.2611
    151  O        -37.4870   24.8520  -12.5560 O.2    73  GLY73      -0.2717
    152  N        -35.4860   23.7730  -12.3500 N.am   74  ILE74      -0.1979
    153  CA       -35.7840   23.0520  -11.1050 C.3    74  ILE74       0.1595
    154  C        -36.0170   24.0890   -9.9770 C.2    74  ILE74       0.2287
    155  O        -37.0250   23.9980   -9.2830 O.2    74  ILE74      -0.2864
    156  CB       -34.6810   21.9930  -10.7660 C.3    74  ILE74       0.0276
    157  CG1      -34.6830   20.8560  -11.8270 C.3    74  ILE74       0.0022
    158  CG2      -34.9090   21.3800   -9.3690 C.3    74  ILE74       0.0022
    159  CD1      -33.3520   20.0550  -11.9950 C.3    74  ILE74       0.0001
    160  N        -29.6660   11.4870  -12.7030 N.3    91  VAL91      -0.1245
    161  CA       -30.0010   11.1350  -14.0830 C.3    91  VAL91       0.1561
    162  C        -28.9510   10.1810  -14.6300 C.2    91  VAL91       0.2260
    163  O        -27.7450   10.4030  -14.4590 O.2    91  VAL91      -0.2867
    164  CB       -30.1490   12.3900  -15.0010 C.3    91  VAL91       0.0252
    165  CG1      -30.4910   11.9980  -16.4360 C.3    91  VAL91       0.0019
    166  CG2      -31.2020   13.3600  -14.4700 C.3    91  VAL91       0.0019
    167  N        -28.2510    8.1840  -18.4650 N.3    93  GLY93      -0.1225
    168  CA       -28.6570    8.0070  -19.8430 C.3    93  GLY93       0.1811
    169  C        -27.5440    7.4250  -20.6650 C.2    93  GLY93       0.2280
    170  O        -26.3660    7.6210  -20.3460 O.2    93  GLY93      -0.2866
    171  N        -32.8990    6.8140  -20.7040 N.3   100  LEU100     -0.1245
    172  CA       -32.6800    8.0910  -20.0390 C.3   100  LEU100      0.1561
    173  C        -33.6820    8.1710  -18.8930 C.2   100  LEU100      0.2260
    174  O        -34.8910    8.2640  -19.1320 O.2   100  LEU100     -0.2867
    175  CB       -32.7940    9.2710  -21.0220 C.3   100  LEU100      0.0270
    176  CG       -32.5880   10.6820  -20.4380 C.3   100  LEU100      0.0019
    177  CD1      -31.2210   10.8370  -19.7980 C.3   100  LEU100      0.0001
    178  CD2      -32.7210   11.7390  -21.5410 C.3   100  LEU100      0.0001
    179  N        -34.5750    9.4170  -14.6700 N.3   102  LEU102     -0.1245
    180  CA       -34.3820   10.4240  -13.6640 C.3   102  LEU102      0.1561
    181  C        -35.0170    9.9990  -12.3550 C.2   102  LEU102      0.2260
    182  O        -36.1870    9.5830  -12.3140 O.2   102  LEU102     -0.2867
    183  CB       -34.9710   11.7720  -14.1640 C.3   102  LEU102      0.0270
    184  CG       -34.8040   13.0060  -13.2450 C.3   102  LEU102      0.0019
    185  CD1      -34.7820   14.2920  -14.0790 C.3   102  LEU102      0.0001
    186  CD2      -35.9560   13.0960  -12.2070 C.3   102  LEU102      0.0001
    187  N        -41.0020   12.6860  -22.2110 N.3   117  TRP117     -0.1241
    188  CA       -40.7890   12.2830  -20.8380 C.3   117  TRP117      0.1605
    189  C        -42.0930   11.7250  -20.3170 C.2   117  TRP117      0.2264
    190  O        -43.1500   12.3420  -20.4990 O.2   117  TRP117     -0.2867
    191  CB       -40.3080   13.4690  -20.0070 C.3   117  TRP117      0.0550
    192  CG       -38.9070   13.8800  -20.3210 C.ar  117  TRP117      0.0003
    193  CD1      -38.5060   14.7830  -21.2660 C.ar  117  TRP117      0.0946
    194  CD2      -37.7180   13.4180  -19.6730 C.ar  117  TRP117      0.0152
    195  NE1      -37.1390   14.9110  -21.2460 N.ar  117  TRP117     -0.2442
    196  CE2      -36.6280   14.0860  -20.2720 C.ar  117  TRP117      0.0810
    197  CE3      -37.4660   12.4900  -18.6460 C.ar  117  TRP117      0.0012
    198  CZ2      -35.3010   13.8570  -19.8770 C.ar  117  TRP117      0.0191
    199  CZ3      -36.1540   12.2690  -18.2490 C.ar  117  TRP117      0.0001
    200  CH2      -35.0880   12.9420  -18.8700 C.ar  117  TRP117      0.0015
    201  N        -44.0330   17.2540  -13.4670 N.3   130  PHE130     -0.1241
    202  CA       -42.6500   17.4610  -13.9120 C.3   130  PHE130      0.1605
    203  C        -42.5380   17.2060  -15.4150 C.2   130  PHE130      0.2264
    204  O        -41.8980   17.9830  -16.1120 O.2   130  PHE130     -0.2867
    205  CB       -41.6970   16.5510  -13.1140 C.3   130  PHE130      0.0534
    206  CG       -40.2200   16.8670  -13.2040 C.ar  130  PHE130     -0.0203
    207  CD1      -39.2790   15.8470  -13.2710 C.ar  130  PHE130     -0.0042
    208  CD2      -39.7670   18.1800  -13.1730 C.ar  130  PHE130     -0.0042
    209  CE1      -37.9090   16.1370  -13.3090 C.ar  130  PHE130     -0.0003
    210  CE2      -38.3990   18.4700  -13.2270 C.ar  130  PHE130     -0.0003
    211  CZ       -37.4810   17.4460  -13.2890 C.ar  130  PHE130     -0.0000
    212  N        -43.6490   20.1760  -17.4940 N.3   133  VAL133     -0.1231
    213  CA       -42.5400   21.1400  -17.5540 C.3   133  VAL133      0.1692
    214  C        -41.4050   20.6300  -18.5010 C.2   133  VAL133      0.2591
    215  O        -40.8420   21.4270  -19.2690 O.2   133  VAL133     -0.2718
    216  CB       -42.0160   21.4190  -16.1150 C.3   133  VAL133      0.0266
    217  CG1      -40.7390   22.2640  -16.1210 C.3   133  VAL133      0.0020
    218  CG2      -43.0980   22.0920  -15.2680 C.3   133  VAL133      0.0020
    219  N        -41.0740   19.3200  -18.4390 N.am  134  LEU134     -0.1980
    220  CA       -40.0220   18.7440  -19.2830 C.3   134  LEU134      0.1596
    221  C        -40.4270   18.6270  -20.7650 C.2   134  LEU134      0.2287
    222  O        -39.5420   18.6130  -21.6120 O.2   134  LEU134     -0.2864
    223  CB       -39.5780   17.3570  -18.7770 C.3   134  LEU134      0.0297
    224  CG       -38.7630   17.2890  -17.4720 C.3   134  LEU134      0.0022
    225  CD1      -38.6190   15.8420  -17.0100 C.3   134  LEU134      0.0001
    226  CD2      -37.3690   17.8740  -17.6550 C.3   134  LEU134      0.0001
    227  N        -30.0660   12.3600  -29.8080 N.3   147  LEU147     -0.1245
    228  CA       -28.8310   12.1210  -29.0350 C.3   147  LEU147      0.1561
    229  C        -28.7460   10.6610  -28.5910 C.2   147  LEU147      0.2260
    230  O        -27.6830   10.0460  -28.6570 O.2   147  LEU147     -0.2867
    231  CB       -28.7660   13.0420  -27.8060 C.3   147  LEU147      0.0270
    232  CG       -28.4340   14.5140  -28.0390 C.3   147  LEU147      0.0019
    233  CD1      -28.7590   15.3240  -26.8100 C.3   147  LEU147      0.0001
    234  CD2      -26.9660   14.7070  -28.4140 C.3   147  LEU147      0.0001
@<TRIPOS>BOND
     1    72    73    1
     2   227   228    1
     3    78    80   ar
     4    78    77   ar
     5    73    76    1
     6    73    74    1
     7   228   229    1
     8   228   231    1
     9    80    81   ar
    10    92    91    1
    11    76    77    1
    12    86    87    1
    13    74    75    2
    14    77    79   ar
    15   230   229    2
    16    91    93    1
    17    91    90    1
    18   234   232    1
    19   232   231    1
    20   232   233    1
    21    81    79   ar
    22    81    83   ar
    23    79    82   ar
    24    87    90    1
    25    87    88    1
    26   101    99    1
    27    83    85   ar
    28   100    99    1
    29    82    84   ar
    30    98    99    1
    31    98    95    1
    32    85    84   ar
    33    88    89    2
    34    94    95    1
    35   123   121    1
    36    95    96    1
    37   121   120    2
    38   121   122    1
    39   120   119    1
    40    96   102   am
    41    96    97    2
    42    71    69    1
    43     5     6    1
    44     5     2    1
    45   140   139    1
    46   102   103    1
    47   141   139    1
    48     6     8   ar
    49     6     7   ar
    50     8    10   ar
    51    49    48   ar
    52    49    47   ar
    53   119   118    1
    54   139   138    2
    55     1     2    1
    56    10    11   ar
    57     7     9   ar
    58    48    46   ar
    59     2     3    1
    60   118   117    1
    61     4     3    2
    62    69    68    1
    63     9    11   ar
    64    47    45   ar
    65    68    70    1
    66    68    65    1
    67   103   106    1
    68   103   104    1
    69   187   188    1
    70   106   107    1
    71   138   137    1
    72    46    45   ar
    73   222   221    2
    74   178   176    1
    75   117   114    1
    76    45    44    1
    77   137   136    1
    78   113   114    1
    79   104   105    2
    80    67    66    2
    81   193   195   ar
    82   193   192   ar
    83   195   196   ar
    84   175   176    1
    85   175   172    1
    86    64    65    1
    87    65    66    1
    88   188   189    1
    89   188   191    1
    90   221   220    1
    91   114   115    1
    92   171   172    1
    93   169   170    2
    94   169   168    1
    95    18    16    1
    96   107   108   ar
    97   107   109   ar
    98   190   189    2
    99   176   177    1
   100   192   191    1
   101   192   194   ar
   102   196   198   ar
   103   196   194   ar
   104    62    63   ar
   105    62    60   ar
   106   108   110   ar
   107    63    61   ar
   108   172   173    1
   109    44    41    1
   110   198   200   ar
   111   136   135    1
   112   168   167    1
   113   194   197   ar
   114   109   111   ar
   115   135   132    1
   116    16    17    1
   117    16    13    1
   118   220   223    1
   119   220   219    1
   120   215   214    2
   121   115   124   am
   122   115   116    2
   123    12    13    1
   124    60    57   ar
   125   174   173    2
   126    41    40    1
   127    41    42    1
   128   200   199   ar
   129   110   112   ar
   130    61    59   ar
   131   223   224    1
   132   124   125    1
   133   197   199   ar
   134   214   219   am
   135   214   213    1
   136    13    14    1
   137   111   112   ar
   138   132   131    1
   139   132   133    1
   140    57    59   ar
   141    57    55   ar
   142    59    58   ar
   143    42    43    2
   144   226   224    1
   145   213   212    1
   146   213   216    1
   147   129   128    1
   148   224   225    1
   149   125   128    1
   150   125   126    1
   151   130   128    1
   152    14    15    2
   153   147   146    1
   154   133   142   am
   155   133   134    2
   156   142   143    1
   157    55    54    1
   158    55    56   ar
   159   126   127    2
   160   165   164    1
   161    58    56   ar
   162    38    37    1
   163    51    54    1
   164    51    50    1
   165    51    52    1
   166   217   216    1
   167   216   218    1
   168   204   203    2
   169   146   143    1
   170   143   144    1
   171   203   202    1
   172    37    39    1
   173    37    34    1
   174    52    53    2
   175    25    27   ar
   176    25    24   ar
   177   164   166    1
   178   164   161    1
   179    27    28   ar
   180   179   180    1
   181   162   163    2
   182   162   161    1
   183    35    36    2
   184    35    34    1
   185    23    24    1
   186    23    20    1
   187    24    26   ar
   188   144   145    2
   189   149   148    1
   190   149   150    1
   191   183   180    1
   192   183   184    1
   193    28    26   ar
   194    28    30   ar
   195    34    33    1
   196   161   160    1
   197   185   184    1
   198   202   201    1
   199   202   205    1
   200    26    29   ar
   201    19    20    1
   202   180   181    1
   203    30    32   ar
   204    20    21    1
   205   209   211   ar
   206   209   207   ar
   207   211   210   ar
   208   207   206   ar
   209   184   186    1
   210   210   208   ar
   211   206   208   ar
   212   206   205    1
   213    29    31   ar
   214   150   151    2
   215   150   152   am
   216    32    31   ar
   217   181   182    2
   218   152   153    1
   219    21    22    2
   220   159   157    1
   221   157   156    1
   222   153   156    1
   223   153   154    1
   224   156   158    1
   225   154   155    2
