@<TRIPOS>MOLECULE
tmp/5j1eC00.pdb
 82 77 0 0 0
SMALL
GASTEIGER

@<TRIPOS>ATOM
      1  N        -56.9530   47.0020  -91.2420 N.3   437  ASP437     -0.1225
      2  CA       -57.6950   46.9470  -89.9910 C.3   437  ASP437      0.1805
      3  C        -57.1290   45.8290  -89.1300 C.2   437  ASP437      0.2598
      4  O        -56.4630   44.9110  -89.6210 O.2   437  ASP437     -0.2718
      5  CB       -59.2000   46.7420  -90.2140 C.3   437  ASP437      0.1424
      6  CG       -60.0290   47.1610  -89.0090 C.2   437  ASP437      0.3668
      7  OD1      -59.5970   48.0840  -88.2860 O.co2 437  ASP437     -0.2456
      8  OD2      -61.1080   46.5750  -88.7810 O.co2 437  ASP437     -0.2456
      9  N        -57.3950   45.9330  -87.8300 N.am  438  GLY438     -0.1957
     10  CA       -57.0020   44.9060  -86.8900 C.3   438  GLY438      0.1869
     11  C        -58.0670   44.7390  -85.8250 C.2   438  GLY438      0.2309
     12  O        -58.9310   45.5990  -85.6370 O.2   438  GLY438     -0.2863
     13  N        -54.0460   47.2520  -84.9520 N.3   472  GLU472     -0.1245
     14  CA       -54.1390   48.3020  -85.9650 C.3   472  GLU472      0.1567
     15  C        -52.7550   48.6850  -86.4810 C.2   472  GLU472      0.2260
     16  O        -52.5000   48.6630  -87.6940 O.2   472  GLU472     -0.2867
     17  CB       -54.8620   49.5240  -85.3930 C.3   472  GLU472      0.0388
     18  CG       -56.3030   49.2690  -84.9720 C.3   472  GLU472      0.1160
     19  CD       -57.2720   49.2850  -86.1430 C.2   472  GLU472      0.3649
     20  OE1      -56.8260   49.5230  -87.2860 O.co2 472  GLU472     -0.2457
     21  OE2      -58.4810   49.0640  -85.9200 O.co2 472  GLU472     -0.2457
     22  N        -58.9450   52.9960  -89.8590 N.3   492  ASP492     -0.1225
     23  CA       -60.0850   53.4720  -89.0890 C.3   492  ASP492      0.1805
     24  C        -59.7240   53.8330  -87.6560 C.2   492  ASP492      0.2598
     25  O        -60.6150   54.1870  -86.8770 O.2   492  ASP492     -0.2718
     26  CB       -61.2030   52.4210  -89.0960 C.3   492  ASP492      0.1424
     27  CG       -60.7680   51.0970  -88.4930 C.2   492  ASP492      0.3668
     28  OD1      -59.5540   50.9050  -88.2650 O.co2 492  ASP492     -0.2456
     29  OD2      -61.6450   50.2410  -88.2500 O.co2 492  ASP492     -0.2456
     30  N        -58.4470   53.7570  -87.2880 N.am  493  SER493     -0.1938
     31  CA       -58.0000   53.9820  -85.9180 C.3   493  SER493      0.2055
     32  C        -57.4650   55.4040  -85.7920 C.2   493  SER493      0.2642
     33  O        -56.4220   55.7350  -86.3670 O.2   493  SER493     -0.2714
     34  CB       -56.9360   52.9580  -85.5270 C.3   493  SER493      0.2130
     35  OG       -56.4500   53.1950  -84.2180 O.3   493  SER493     -0.2179
     36  N        -58.1800   56.2450  -85.0390 N.am  494  GLN494     -0.1976
     37  CA       -57.6490   57.5600  -84.6970 C.3   494  GLN494      0.1601
     38  C        -56.4140   57.4480  -83.8160 C.2   494  GLN494      0.2287
     39  O        -55.6150   58.3900  -83.7540 O.2   494  GLN494     -0.2864
     40  CB       -58.7140   58.4010  -83.9880 C.3   494  GLN494      0.0394
     41  CG       -60.1490   58.1210  -84.4170 C.3   494  GLN494      0.0908
     42  CD       -60.7870   56.9910  -83.6270 C.2   494  GLN494      0.2608
     43  OE1      -60.1710   55.9490  -83.4020 O.2   494  GLN494     -0.2717
     44  NE2      -62.0250   57.1990  -83.1950 N.am  494  GLN494     -0.0878
     45  N        -65.0860   53.8830  -88.6450 N.3   532  ALA532     -0.1231
     46  CA       -65.2960   52.4470  -88.7340 C.3   532  ALA532      0.1694
     47  C        -66.7800   52.1050  -88.6730 C.2   532  ALA532      0.2592
     48  O        -67.5690   52.7770  -88.0010 O.2   532  ALA532     -0.2718
     49  CB       -64.5510   51.7260  -87.6110 C.3   532  ALA532      0.0304
     50  N        -67.1520   51.0430  -89.3940 N.am  533  HIS533     -0.1962
     51  CA       -68.5190   50.5150  -89.3950 C.3   533  HIS533      0.1787
     52  C        -69.5270   51.5650  -89.8540 C.2   533  HIS533      0.2620
     53  O        -70.6430   51.6450  -89.3370 O.2   533  HIS533     -0.2715
     54  CB       -68.9050   49.9680  -88.0190 C.3   533  HIS533      0.0785
     55  CG       -68.1160   48.7680  -87.5980 C.ar  533  HIS533      0.0821
     56  ND1      -68.4180   47.4910  -88.0210 N.ar  533  HIS533     -0.2267
     57  CD2      -67.0390   48.6490  -86.7850 C.ar  533  HIS533      0.1154
     58  CE1      -67.5610   46.6390  -87.4890 C.ar  533  HIS533      0.1986
     59  NE2      -66.7130   47.3160  -86.7360 N.ar  533  HIS533     -0.2212
     60  N        -69.1350   52.3820  -90.8320 N.am  534  LYS534     -0.1977
     61  CA       -70.0570   53.3210  -91.4600 C.3   534  LYS534      0.1596
     62  C        -70.3780   52.9500  -92.9040 C.2   534  LYS534      0.2287
     63  O        -70.9160   53.7770  -93.6460 O.2   534  LYS534     -0.2864
     64  CB       -69.4900   54.7400  -91.3910 C.3   534  LYS534      0.0298
     65  CG       -69.3130   55.2640  -89.9710 C.3   534  LYS534      0.0038
     66  CD       -70.6150   55.2350  -89.1910 C.3   534  LYS534      0.0206
     67  CE       -71.6480   56.1610  -89.7960 C.3   534  LYS534      0.1093
     68  NZ       -72.9450   56.0820  -89.0710 N.3   534  LYS534     -0.1314
     69  N        -62.2830   44.8560  -92.1040 N.3   543  ASP543     -0.1239
     70  CA       -62.8400   44.7130  -90.7650 C.3   543  ASP543      0.1674
     71  C        -63.5520   43.3760  -90.6080 C.2   543  ASP543      0.2266
     72  O        -63.4120   42.7080  -89.5770 O.2   543  ASP543     -0.2867
     73  CB       -63.8000   45.8630  -90.4700 C.3   543  ASP543      0.1410
     74  CG       -64.5750   45.6520  -89.1880 C.2   543  ASP543      0.3668
     75  OD1      -64.0370   45.9660  -88.1040 O.co2 543  ASP543     -0.2456
     76  OD2      -65.7180   45.1550  -89.2650 O.co2 543  ASP543     -0.2456
     77  N        -61.8640   40.6730  -87.8180 N.3   547  SER547     -0.1217
     78  CA       -62.7400   40.4990  -86.6590 C.3   547  SER547      0.1889
     79  C        -63.4480   39.1550  -86.7970 C.2   547  SER547      0.2288
     80  O        -64.5340   39.0610  -87.3710 O.2   547  SER547     -0.2866
     81  CB       -63.7280   41.6530  -86.5400 C.3   547  SER547      0.2089
     82  OG       -64.5830   41.4750  -85.4250 O.3   547  SER547     -0.2183
@<TRIPOS>BOND
     1    63    62    2
     2    62    61    1
     3    69    70    1
     4    61    64    1
     5    61    60    1
     6    64    65    1
     7     1     2    1
     8    60    52   am
     9    70    71    1
    10    70    73    1
    11    71    72    2
    12    73    74    1
    13     5     2    1
    14     5     6    1
    15     2     3    1
    16    65    66    1
    17    22    23    1
    18    52    51    1
    19    52    53    2
    20    67    66    1
    21    67    68    1
    22     4     3    2
    23    51    50    1
    24    51    54    1
    25    50    47   am
    26    76    74   ar
    27    74    75   ar
    28     3     9   am
    29    26    23    1
    30    26    27    1
    31    23    24    1
    32     6     8   ar
    33     6     7   ar
    34    46    47    1
    35    46    45    1
    36    46    49    1
    37    47    48    2
    38    27    28   ar
    39    27    29   ar
    40    56    55   ar
    41    56    58   ar
    42    54    55    1
    43     9    10    1
    44    77    78    1
    45    16    15    2
    46    24    30   am
    47    24    25    2
    48    55    57   ar
    49    58    59   ar
    50    80    79    2
    51    30    31    1
    52    20    19   ar
    53    10    11    1
    54    79    78    1
    55    57    59   ar
    56    78    81    1
    57    81    82    1
    58    15    14    1
    59    33    32    2
    60    19    21   ar
    61    19    18    1
    62    14    17    1
    63    14    13    1
    64    31    32    1
    65    31    34    1
    66    11    12    2
    67    32    36   am
    68    34    35    1
    69    17    18    1
    70    36    37    1
    71    37    40    1
    72    37    38    1
    73    41    40    1
    74    41    42    1
    75    38    39    2
    76    42    43    2
    77    42    44   am
