@<TRIPOS>MOLECULE
tmp/5j1gB00.pdb
 75 75 0 0 0
SMALL
GASTEIGER

@<TRIPOS>ATOM
      1  N         23.1440  -59.4480  -10.5290 N.3    74  LEU74      -0.1245
      2  CA        23.8680  -59.1130  -11.7520 C.3    74  LEU74       0.1561
      3  C         24.8790  -60.1870  -12.1330 C.2    74  LEU74       0.2260
      4  O         25.3230  -60.2460  -13.2750 O.2    74  LEU74      -0.2867
      5  CB        24.5860  -57.7770  -11.5990 C.3    74  LEU74       0.0270
      6  CG        23.6860  -56.5470  -11.5050 C.3    74  LEU74       0.0019
      7  CD1       24.4870  -55.3390  -11.0470 C.3    74  LEU74       0.0001
      8  CD2       23.0240  -56.2960  -12.8570 C.3    74  LEU74       0.0001
      9  N         24.2880  -63.4340  -12.0300 N.3    76  LEU76      -0.1231
     10  CA        23.6420  -64.5650  -12.6820 C.3    76  LEU76       0.1678
     11  C         23.9960  -64.5820  -14.1680 C.2    76  LEU76       0.2434
     12  O         24.0080  -63.5390  -14.8120 O.2    76  LEU76      -0.2733
     13  CB        22.1310  -64.5030  -12.4890 C.3    76  LEU76       0.0284
     14  CG        21.6880  -64.6220  -11.0300 C.3    76  LEU76       0.0019
     15  CD1       20.2150  -64.2950  -10.8980 C.3    76  LEU76       0.0001
     16  CD2       21.9910  -66.0460  -10.5130 C.3    76  LEU76       0.0001
     17  N         24.2890  -65.7700  -14.7240 N.am   77  PRO77      -0.2718
     18  CA        24.7660  -65.8050  -16.1090 C.3    77  PRO77       0.1535
     19  C         23.7260  -65.4920  -17.1770 C.2    77  PRO77       0.2598
     20  O         24.1100  -65.1780  -18.3010 O.2    77  PRO77      -0.2715
     21  CB        25.2410  -67.2580  -16.2720 C.3    77  PRO77       0.0310
     22  CG        25.4670  -67.7490  -14.9110 C.3    77  PRO77       0.0237
     23  CD        24.4260  -67.0860  -14.0770 C.3    77  PRO77       0.0939
     24  N         22.4400  -65.6040  -16.8650 N.am   78  GLU78      -0.1964
     25  CA        21.4340  -65.5510  -17.9200 C.3    78  GLU78       0.1718
     26  C         21.2800  -64.1550  -18.5220 C.2    78  GLU78       0.2458
     27  O         21.4440  -63.1460  -17.8330 O.2    78  GLU78      -0.2730
     28  CB        20.0840  -66.0340  -17.3990 C.3    78  GLU78       0.0428
     29  CG        19.9330  -67.5640  -17.3770 C.3    78  GLU78       0.1163
     30  CD        21.0500  -68.2730  -16.6160 C.2    78  GLU78       0.3649
     31  OE1       21.1870  -68.0110  -15.4130 O.co2  78  GLU78      -0.2457
     32  OE2       21.7730  -69.1100  -17.2170 O.co2  78  GLU78      -0.2457
     33  N         20.9570  -64.0930  -19.8230 N.am   79  PRO79      -0.2716
     34  CA        20.7320  -62.7630  -20.3910 C.3    79  PRO79       0.1536
     35  C         19.6430  -62.0320  -19.6370 C.2    79  PRO79       0.2599
     36  O         18.6660  -62.6490  -19.2090 O.2    79  PRO79      -0.2715
     37  CB        20.3020  -63.0520  -21.8320 C.3    79  PRO79       0.0310
     38  CG        19.8270  -64.4710  -21.8180 C.3    79  PRO79       0.0237
     39  CD        20.6540  -65.1620  -20.7890 C.3    79  PRO79       0.0939
     40  N         19.8040  -60.7200  -19.4930 N.am   80  SER80      -0.1937
     41  CA        18.8880  -59.9250  -18.6960 C.3    80  SER80       0.2040
     42  C         18.8500  -58.4980  -19.2140 C.2    80  SER80       0.2485
     43  O         19.7470  -57.7170  -18.9110 O.2    80  SER80      -0.2729
     44  CB        19.3050  -59.9270  -17.2300 C.3    80  SER80       0.2129
     45  OG        18.4890  -59.0420  -16.4910 O.3    80  SER80      -0.2179
     46  N         17.8160  -58.1620  -19.9930 N.am   81  PRO81      -0.2726
     47  CA        17.7070  -56.7850  -20.5170 C.3    81  PRO81       0.1402
     48  C         17.5530  -55.7280  -19.4290 C.2    81  PRO81       0.2269
     49  O         17.8100  -54.5440  -19.6780 O.2    81  PRO81      -0.2865
     50  CB        16.4480  -56.8400  -21.3730 C.3    81  PRO81       0.0296
     51  CG        16.3680  -58.2720  -21.8230 C.3    81  PRO81       0.0237
     52  CD        16.8840  -59.0810  -20.6650 C.3    81  PRO81       0.0939
     53  N         19.2750  -55.7130  -16.6240 N.3    83  ALA83      -0.1231
     54  CA        20.5450  -55.5650  -15.9120 C.3    83  ALA83       0.1679
     55  C         21.1360  -54.1580  -16.0250 C.2    83  ALA83       0.2434
     56  O         21.6290  -53.6270  -15.0400 O.2    83  ALA83      -0.2733
     57  CB        21.5550  -56.6060  -16.4080 C.3    83  ALA83       0.0304
     58  N         21.1120  -53.5600  -17.2280 N.am   84  PRO84      -0.2729
     59  CA        21.6180  -52.1890  -17.3550 C.3    84  PRO84       0.1401
     60  C         20.8820  -51.1930  -16.4580 C.2    84  PRO84       0.2269
     61  O         21.4900  -50.2790  -15.9090 O.2    84  PRO84      -0.2865
     62  CB        21.3830  -51.8710  -18.8320 C.3    84  PRO84       0.0296
     63  CG        21.3810  -53.1910  -19.5070 C.3    84  PRO84       0.0237
     64  CD        20.7690  -54.1380  -18.5420 C.3    84  PRO84       0.0939
     65  N         22.0610  -51.7560  -12.8910 N.3    87  ARG87      -0.1245
     66  CA        23.3840  -51.1450  -12.7350 C.3    87  ARG87       0.1563
     67  C         23.2940  -49.6200  -12.6860 C.2    87  ARG87       0.2260
     68  O         23.9980  -48.9740  -11.9210 O.2    87  ARG87      -0.2867
     69  CB        24.3180  -51.5530  -13.8720 C.3    87  ARG87       0.0307
     70  CG        24.8390  -52.9770  -13.7870 C.3    87  ARG87       0.0489
     71  CD        26.0280  -53.1900  -14.7220 C.3    87  ARG87       0.2205
     72  NE        26.7140  -54.4560  -14.4590 N.pl3  87  ARG87      -0.0865
     73  CZ        26.5370  -55.5790  -15.1460 C.cat  87  ARG87       0.5346
     74  NH1       27.2190  -56.6640  -14.8080 N.pl3  87  ARG87       0.1354
     75  NH2       25.6900  -55.6290  -16.1660 N.pl3  87  ARG87       0.1354
@<TRIPOS>BOND
     1    37    38    1
     2    37    34    1
     3    51    50    1
     4    51    52    1
     5    38    39    1
     6    50    47    1
     7    39    33    1
     8    52    46    1
     9    47    46    1
    10    47    48    1
    11    34    33    1
    12    34    35    1
    13    46    42   am
    14    33    26   am
    15    49    48    2
    16    35    40   am
    17    35    36    2
    18    63    62    1
    19    63    64    1
    20    40    41    1
    21    42    43    2
    22    42    41    1
    23    62    59    1
    24    41    44    1
    25    64    58    1
    26    26    25    1
    27    26    27    2
    28    20    19    2
    29    25    28    1
    30    25    24    1
    31    28    29    1
    32    29    30    1
    33    59    58    1
    34    59    60    1
    35    44    45    1
    36    58    55   am
    37    32    30   ar
    38    19    24   am
    39    19    18    1
    40    53    54    1
    41    30    31   ar
    42    60    61    2
    43    57    54    1
    44    21    18    1
    45    21    22    1
    46    75    73    1
    47    18    17    1
    48    55    54    1
    49    55    56    2
    50    73    74    1
    51    73    72    2
    52    22    23    1
    53    12    11    2
    54    17    11   am
    55    17    23    1
    56    71    72    1
    57    71    70    1
    58    11    10    1
    59    69    70    1
    60    69    66    1
    61     4     3    2
    62    65    66    1
    63     8     6    1
    64    66    67    1
    65    67    68    2
    66    10    13    1
    67    10     9    1
    68    13    14    1
    69     3     2    1
    70     2     5    1
    71     2     1    1
    72     5     6    1
    73     6     7    1
    74    14    15    1
    75    14    16    1
