@<TRIPOS>MOLECULE
tmp/5j1jA00.pdb
 166 158 0 0 0
SMALL
GASTEIGER

@<TRIPOS>ATOM
      1  N         35.3560   78.6820   53.3160 N.3    16  GLY16      -0.1210
      2  CA        35.8310   77.7480   52.3090 C.3    16  GLY16       0.1956
      3  C         34.7590   77.4780   51.2710 C.2    16  GLY16       0.2612
      4  O         33.5730   77.4290   51.5940 O.2    16  GLY16      -0.2717
      5  N         35.1690   77.3270   50.0150 N.am   17  GLY17      -0.1942
      6  CA        34.2590   76.8590   48.9880 C.3    17  GLY17       0.2014
      7  C         33.2340   77.8660   48.4920 C.2    17  GLY17       0.2639
      8  O         32.2580   77.4660   47.8680 O.2    17  GLY17      -0.2714
      9  N         33.4550   79.1540   48.7440 N.am   18  VAL18      -0.1963
     10  CA        32.5050   80.1990   48.3400 C.3    18  VAL18       0.1727
     11  C         32.7240   80.6380   46.8780 C.2    18  VAL18       0.2617
     12  O         31.9090   81.3480   46.3040 O.2    18  VAL18      -0.2715
     13  CB        32.6260   81.4090   49.3040 C.3    18  VAL18       0.0290
     14  CG1       33.9620   82.1350   49.1300 C.3    18  VAL18       0.0023
     15  CG2       31.4730   82.3830   49.1510 C.3    18  VAL18       0.0023
     16  N         33.8110   80.1670   46.2730 N.am   19  GLY19      -0.1940
     17  CA        34.1230   80.4680   44.8840 C.3    19  GLY19       0.2014
     18  C         35.2930   81.4030   44.6610 C.2    19  GLY19       0.2639
     19  O         35.3940   82.0140   43.6020 O.2    19  GLY19      -0.2714
     20  N         36.1620   81.5410   45.6570 N.am   20  LYS20      -0.1963
     21  CA        37.3280   82.4210   45.5460 C.3    20  LYS20       0.1728
     22  C         38.1640   82.1090   44.3060 C.2    20  LYS20       0.2617
     23  O         38.5440   83.0140   43.5560 O.2    20  LYS20      -0.2715
     24  CB        38.2120   82.3080   46.7960 C.3    20  LYS20       0.0311
     25  CG        37.5210   82.7280   48.0970 C.3    20  LYS20       0.0038
     26  CD        38.4660   82.5950   49.3200 C.3    20  LYS20       0.0206
     27  CE        38.8330   81.1350   49.6490 C.3    20  LYS20       0.1093
     28  NZ        37.6270   80.2960   49.9460 N.3    20  LYS20      -0.1314
     29  N         38.4420   80.8310   44.0770 N.am   21  THR21      -0.1937
     30  CA        39.3180   80.4640   42.9650 C.3    21  THR21       0.2028
     31  C         38.5890   80.5900   41.6240 C.2    21  THR21       0.2642
     32  O         39.1440   81.1000   40.6480 O.2    21  THR21      -0.2714
     33  CB        39.8810   79.0440   43.1670 C.3    21  THR21       0.1808
     34  OG1       40.6620   79.0440   44.3680 O.3    21  THR21      -0.2208
     35  CG2       40.7860   78.6240   42.0030 C.3    21  THR21       0.0379
     36  N         37.3270   80.1780   41.5760 N.am   22  ASN22      -0.1971
     37  CA        36.5560   80.3700   40.3470 C.3    22  ASN22       0.1688
     38  C         36.4340   81.8430   39.9800 C.2    22  ASN22       0.2292
     39  O         36.5460   82.2190   38.8100 O.2    22  ASN22      -0.2864
     40  CB        35.1700   79.7450   40.4630 C.3    22  ASN22       0.1181
     41  CG        35.1160   78.3880   39.8200 C.2    22  ASN22       0.2629
     42  OD1       34.9740   78.2740   38.5950 O.2    22  ASN22      -0.2716
     43  ND2       35.2750   77.3450   40.6280 N.am   22  ASN22      -0.0877
     44  N         46.8070   80.3240   47.3640 N.3    44  ASP44      -0.1239
     45  CA        46.5130   79.1900   48.2450 C.3    44  ASP44       0.1674
     46  C         47.7710   78.3260   48.2390 C.2    44  ASP44       0.2266
     47  O         47.8560   77.3020   47.5610 O.2    44  ASP44      -0.2867
     48  CB        45.2760   78.4270   47.7830 C.3    44  ASP44       0.1410
     49  CG        44.7250   77.5060   48.8410 C.2    44  ASP44       0.3668
     50  OD1       45.4370   77.2290   49.8290 O.co2  44  ASP44      -0.2456
     51  OD2       43.5690   77.0590   48.6760 O.co2  44  ASP44      -0.2456
     52  N         44.9470   75.4130   43.5190 N.3    49  ASN49      -0.1240
     53  CA        43.7930   75.0120   42.7180 C.3    49  ASN49       0.1653
     54  C         43.6510   75.7400   41.3880 C.2    49  ASN49       0.2266
     55  O         42.8730   75.3060   40.5530 O.2    49  ASN49      -0.2867
     56  CB        42.4940   75.2240   43.4990 C.3    49  ASN49       0.1155
     57  CG        42.1660   74.0840   44.4570 C.2    49  ASN49       0.2627
     58  OD1       42.8930   73.0790   44.5910 O.2    49  ASN49      -0.2716
     59  ND2       41.0650   74.2460   45.1400 N.am   49  ASN49      -0.0877
     60  N         41.8730   74.0530   38.0910 N.3    53  LEU53      -0.1245
     61  CA        40.6960   74.5550   37.3840 C.3    53  LEU53       0.1561
     62  C         40.9740   74.7690   35.8950 C.2    53  LEU53       0.2260
     63  O         40.0480   74.7550   35.0820 O.2    53  LEU53      -0.2867
     64  CB        40.1950   75.8640   37.9950 C.3    53  LEU53       0.0270
     65  CG        39.4150   75.7790   39.3090 C.3    53  LEU53       0.0019
     66  CD1       38.6730   77.1000   39.4880 C.3    53  LEU53       0.0001
     67  CD2       38.4420   74.6050   39.3300 C.3    53  LEU53       0.0001
     68  N         43.2400   84.0380   47.2390 N.3   124  THR124     -0.1218
     69  CA        43.7350   83.6430   48.5600 C.3   124  THR124      0.1862
     70  C         43.1420   82.3160   49.0310 C.2   124  THR124      0.2287
     71  O         42.1280   81.8310   48.5100 O.2   124  THR124     -0.2866
     72  CB        43.4710   84.7050   49.6600 C.3   124  THR124      0.1770
     73  OG1       42.0820   84.7120   50.0140 O.3   124  THR124     -0.2211
     74  CG2       43.8920   86.0900   49.1910 C.3   124  THR124      0.0375
     75  N         41.3080   79.8410   51.9040 N.3   126  ALA126     -0.1245
     76  CA        40.2760   79.9680   52.9350 C.3   126  ALA126      0.1562
     77  C         40.8840   80.3660   54.2650 C.2   126  ALA126      0.2260
     78  O         42.0670   80.1500   54.5160 O.2   126  ALA126     -0.2867
     79  CB        39.4990   78.6440   53.1010 C.3   126  ALA126      0.0290
     80  N         28.1890   85.5050   45.1120 N.3   177  ASN177     -0.1225
     81  CA        28.3410   84.3620   44.2180 C.3   177  ASN177      0.1785
     82  C         27.2800   83.2920   44.5130 C.2   177  ASN177      0.2597
     83  O         26.6930   83.2570   45.5990 O.2   177  ASN177     -0.2718
     84  CB        29.7610   83.7750   44.3490 C.3   177  ASN177      0.1169
     85  CG        30.0480   82.6700   43.3420 C.2   177  ASN177      0.2627
     86  OD1       29.6070   82.7100   42.1920 O.2   177  ASN177     -0.2716
     87  ND2       30.8050   81.6630   43.7830 N.am  177  ASN177     -0.0877
     88  N         27.0280   82.4500   43.5160 N.am  178  MET178     -0.1979
     89  CA        26.0630   81.3330   43.5650 C.3   178  MET178      0.1605
     90  C         24.6440   81.8020   43.9060 C.2   178  MET178      0.2287
     91  O         23.8880   81.1140   44.6040 O.2   178  MET178     -0.2864
     92  CB        26.5500   80.2330   44.5350 C.3   178  MET178      0.0413
     93  CG        27.6910   79.3570   43.9230 C.3   178  MET178      0.0598
     94  SD        28.2780   77.8880   44.8730 S.3   178  MET178     -0.1393
     95  CE        29.7510   78.5350   45.6490 C.3   178  MET178      0.0692
     96  N         27.5670   86.9460   40.7840 N.3   210  ILE210     -0.1231
     97  CA        27.6840   85.8200   39.8610 C.3   210  ILE210      0.1678
     98  C         26.5780   84.8260   40.1910 C.2   210  ILE210      0.2434
     99  O         26.4690   84.3740   41.3350 O.2   210  ILE210     -0.2733
    100  CB        29.0390   85.0950   39.9800 C.3   210  ILE210      0.0265
    101  CG1       30.2150   86.0850   39.9250 C.3   210  ILE210      0.0019
    102  CG2       29.1540   83.9790   38.9270 C.3   210  ILE210      0.0020
    103  CD1       30.2670   86.9330   38.6410 C.3   210  ILE210      0.0001
    104  N         25.7510   84.4770   39.2010 N.am  211  PRO211     -0.2718
    105  CA        24.6670   83.5290   39.4540 C.3   211  PRO211      0.1535
    106  C         25.1820   82.1130   39.6290 C.2   211  PRO211      0.2599
    107  O         26.2260   81.7600   39.0730 O.2   211  PRO211     -0.2715
    108  CB        23.8170   83.6270   38.1820 C.3   211  PRO211      0.0310
    109  CG        24.8330   83.9420   37.1020 C.3   211  PRO211      0.0237
    110  CD        25.7970   84.9160   37.7950 C.3   211  PRO211      0.0939
    111  N         24.4670   81.3100   40.4150 N.am  212  TYR212     -0.1960
    112  CA        24.6710   79.8780   40.3600 C.3   212  TYR212      0.1771
    113  C         24.3880   79.4260   38.9300 C.2   212  TYR212      0.2619
    114  O         23.3420   79.7420   38.3600 O.2   212  TYR212     -0.2715
    115  CB        23.7640   79.1390   41.3440 C.3   212  TYR212      0.0574
    116  CG        24.0210   77.6550   41.3520 C.ar  212  TYR212     -0.0198
    117  CD1       23.4380   76.8270   40.4050 C.ar  212  TYR212     -0.0009
    118  CD2       24.8700   77.0900   42.2860 C.ar  212  TYR212     -0.0009
    119  CE1       23.6840   75.4690   40.3930 C.ar  212  TYR212      0.0417
    120  CE2       25.1260   75.7200   42.2810 C.ar  212  TYR212      0.0417
    121  CZ        24.5280   74.9250   41.3280 C.ar  212  TYR212      0.1957
    122  OH        24.7620   73.5690   41.3090 O.3   212  TYR212     -0.2866
    123  N         25.3130   78.6690   38.3610 N.am  213  ASP213     -0.1971
    124  CA        25.1990   78.2420   36.9740 C.3   213  ASP213      0.1709
    125  C         25.7490   76.8270   36.8550 C.2   213  ASP213      0.2293
    126  O         26.9000   76.5810   37.2190 O.2   213  ASP213     -0.2864
    127  CB        25.9690   79.2220   36.0720 C.3   213  ASP213      0.1436
    128  CG        25.6530   79.0500   34.5850 C.2   213  ASP213      0.3671
    129  OD1       25.2080   77.9590   34.1710 O.co2 213  ASP213     -0.2456
    130  OD2       25.8600   80.0240   33.8290 O.co2 213  ASP213     -0.2456
    131  N         29.1990   76.3080   35.4350 N.3   216  VAL216     -0.1231
    132  CA        30.4190   76.3370   36.2520 C.3   216  VAL216      0.1692
    133  C         30.7580   74.9300   36.7250 C.2   216  VAL216      0.2591
    134  O         31.9260   74.5290   36.7200 O.2   216  VAL216     -0.2718
    135  CB        30.2910   77.2730   37.4680 C.3   216  VAL216      0.0266
    136  CG1       31.5450   77.1880   38.3400 C.3   216  VAL216      0.0020
    137  CG2       30.0680   78.6970   36.9940 C.3   216  VAL216      0.0020
    138  N         29.7350   74.1750   37.1140 N.am  217  ARG217     -0.1980
    139  CA        29.9320   72.8020   37.5590 C.3   217  ARG217      0.1597
    140  C         30.5370   71.9670   36.4440 C.2   217  ARG217      0.2287
    141  O         31.4740   71.2000   36.6800 O.2   217  ARG217     -0.2864
    142  CB        28.6090   72.1950   38.0350 C.3   217  ARG217      0.0334
    143  CG        27.9800   72.9390   39.2150 C.3   217  ARG217      0.0492
    144  CD        28.8580   72.8430   40.4520 C.3   217  ARG217      0.2205
    145  NE        28.3670   73.6690   41.5540 N.pl3 217  ARG217     -0.0865
    146  CZ        28.0980   73.2130   42.7740 C.cat 217  ARG217      0.5346
    147  NH1       28.2750   71.9310   43.0630 N.pl3 217  ARG217      0.1354
    148  NH2       27.6590   74.0430   43.7120 N.pl3 217  ARG217      0.1354
    149  N         34.3030   73.0540   35.7620 N.3   220  VAL220     -0.1245
    150  CA        35.2140   72.5300   36.7710 C.3   220  VAL220      0.1561
    151  C         35.5260   71.0560   36.4800 C.2   220  VAL220      0.2260
    152  O         36.6730   70.6160   36.6170 O.2   220  VAL220     -0.2867
    153  CB        34.6100   72.7280   38.2010 C.3   220  VAL220      0.0252
    154  CG1       35.3250   71.8790   39.2330 C.3   220  VAL220      0.0019
    155  CG2       34.6590   74.1930   38.5940 C.3   220  VAL220      0.0019
    156  N         30.5670   87.4850   34.6870 N.3   239  PHE239     -0.1241
    157  CA        31.9880   87.7940   34.8300 C.3   239  PHE239      0.1605
    158  C         32.4220   88.9110   33.8830 C.2   239  PHE239      0.2264
    159  O         33.2460   89.7530   34.2500 O.2   239  PHE239     -0.2867
    160  CB        32.8520   86.5530   34.6110 C.3   239  PHE239      0.0534
    161  CG        32.9660   85.6960   35.8380 C.ar  239  PHE239     -0.0203
    162  CD1       33.6310   86.1670   36.9690 C.ar  239  PHE239     -0.0042
    163  CD2       32.3850   84.4390   35.8830 C.ar  239  PHE239     -0.0042
    164  CE1       33.7160   85.3950   38.1230 C.ar  239  PHE239     -0.0003
    165  CE2       32.4810   83.6530   37.0240 C.ar  239  PHE239     -0.0003
    166  CZ        33.1420   84.1360   38.1480 C.ar  239  PHE239     -0.0000
@<TRIPOS>BOND
     1   130   128   ar
     2   158   159    2
     3   158   157    1
     4   129   128   ar
     5   128   127    1
     6   160   157    1
     7   160   161    1
     8   156   157    1
     9    63    62    2
    10   131   132    1
    11   149   150    1
    12   161   163   ar
    13   161   162   ar
    14   163   165   ar
    15    62    61    1
    16   127   124    1
    17   132   133    1
    18   132   135    1
    19   140   141    2
    20   140   139    1
    21   151   152    2
    22   151   150    1
    23   134   133    2
    24   133   138   am
    25   150   153    1
    26   125   124    1
    27   125   126    2
    28   162   164   ar
    29   124   123    1
    30   137   135    1
    31   165   166   ar
    32   109   110    1
    33   109   108    1
    34   138   139    1
    35    61    64    1
    36    61    60    1
    37   135   136    1
    38   139   142    1
    39   110   104    1
    40    64    65    1
    41   142   143    1
    42   164   166   ar
    43   108   105    1
    44   153   155    1
    45   153   154    1
    46   114   113    2
    47   123   113   am
    48    42    41    2
    49   103   101    1
    50    39    38    2
    51   102   100    1
    52   113   112    1
    53   107   106    2
    54   104   105    1
    55   104    98   am
    56   143   144    1
    57    65    67    1
    58    65    66    1
    59   105   106    1
    60   106   111   am
    61    41    40    1
    62    41    43   am
    63    97   100    1
    64    97    98    1
    65    97    96    1
    66   101   100    1
    67    38    37    1
    68    98    99    2
    69    37    40    1
    70    37    36    1
    71   112   111    1
    72   112   115    1
    73   119   117   ar
    74   119   121   ar
    75   117   116   ar
    76   144   145    1
    77    55    54    2
    78    32    31    2
    79   122   121    1
    80   121   120   ar
    81   115   116    1
    82   116   118   ar
    83    54    53    1
    84   145   146    2
    85    36    31   am
    86    31    30    1
    87    35    33    1
    88    86    85    2
    89   120   118   ar
    90    53    56    1
    91    53    52    1
    92   146   147    1
    93   146   148    1
    94    30    33    1
    95    30    29    1
    96    33    34    1
    97    85    87   am
    98    85    84    1
    99    56    57    1
   100    88    89    1
   101    88    82   am
   102    23    22    2
   103    89    90    1
   104    89    92    1
   105    19    18    2
   106    90    91    2
   107    93    92    1
   108    93    94    1
   109    29    22   am
   110    81    84    1
   111    81    82    1
   112    81    80    1
   113    22    21    1
   114    57    58    2
   115    57    59   am
   116    82    83    2
   117    18    17    1
   118    18    20   am
   119    94    95    1
   120    17    16    1
   121    21    20    1
   122    21    24    1
   123    16    11   am
   124    12    11    2
   125    24    25    1
   126    11    10    1
   127    68    69    1
   128    44    45    1
   129    47    46    2
   130    48    45    1
   131    48    49    1
   132     8     7    2
   133    25    26    1
   134    46    45    1
   135    10     9    1
   136    10    13    1
   137     7     9   am
   138     7     6    1
   139    71    70    2
   140    69    70    1
   141    69    72    1
   142    51    49   ar
   143    49    50   ar
   144     6     5    1
   145    14    13    1
   146    15    13    1
   147    74    72    1
   148    26    27    1
   149    27    28    1
   150    72    73    1
   151     5     3   am
   152     3     4    2
   153     3     2    1
   154    75    76    1
   155     2     1    1
   156    76    79    1
   157    76    77    1
   158    77    78    2
