@<TRIPOS>MOLECULE
tmp/5j1qA00.pdb
 155 146 0 0 0
SMALL
GASTEIGER

@<TRIPOS>ATOM
      1  N         10.7400   58.7010  108.5890 N.3    64  HIS64      -0.1241
      2  CA         9.7370   58.0330  109.3930 C.3    64  HIS64       0.1621
      3  C         10.3330   56.7910  110.0070 C.2    64  HIS64       0.2264
      4  O         10.8440   55.9150  109.2970 O.2    64  HIS64      -0.2867
      5  CB         8.5190   57.7150  108.5350 C.3    64  HIS64       0.0745
      6  CG         7.7090   58.9260  108.1820 C.ar   64  HIS64       0.0817
      7  ND1        7.1330   59.1070  106.9430 N.ar   64  HIS64      -0.2268
      8  CD2        7.4080   60.0350  108.8960 C.ar   64  HIS64       0.1154
      9  CE1        6.4860   60.2580  106.9200 C.ar   64  HIS64       0.1986
     10  NE2        6.6340   60.8370  108.0950 N.ar   64  HIS64      -0.2212
     11  N          9.8750   52.9940  108.9860 N.3    67  GLU67      -0.1245
     12  CA        10.0490   52.6290  107.5740 C.3    67  GLU67       0.1567
     13  C         11.4720   52.1410  107.3460 C.2    67  GLU67       0.2260
     14  O         12.2530   52.7450  106.6090 O.2    67  GLU67      -0.2867
     15  CB         9.6810   53.8270  106.6840 C.3    67  GLU67       0.0388
     16  CG         8.1870   54.1130  106.7240 C.3    67  GLU67       0.1160
     17  CD         7.8010   55.4870  106.2280 C.2    67  GLU67       0.3649
     18  OE1        6.7290   56.0070  106.6280 O.co2  67  GLU67      -0.2457
     19  OE2        8.5380   56.0620  105.4110 O.co2  67  GLU67      -0.2457
     20  N          6.4740   56.4890  114.3920 N.3   122  ARG122     -0.1245
     21  CA         6.5960   57.2320  113.1330 C.3   122  ARG122      0.1563
     22  C          7.3510   58.5450  113.2820 C.2   122  ARG122      0.2260
     23  O          8.2410   58.8630  112.4860 O.2   122  ARG122     -0.2867
     24  CB         5.1980   57.5480  112.5990 C.3   122  ARG122      0.0307
     25  CG         5.1230   58.4510  111.3710 C.3   122  ARG122      0.0489
     26  CD         3.6750   58.7380  111.0230 C.3   122  ARG122      0.2205
     27  NE         3.5070   59.7410  109.9770 N.pl3 122  ARG122     -0.0865
     28  CZ         3.5940   59.5030  108.6660 C.cat 122  ARG122      0.5346
     29  NH1        3.8740   58.2830  108.1980 N.pl3 122  ARG122      0.1354
     30  NH2        3.4030   60.4940  107.8050 N.pl3 122  ARG122      0.1354
     31  N          7.6200   64.8450  108.0040 N.3   139  ASN139     -0.1225
     32  CA         7.1130   65.1430  106.6750 C.3   139  ASN139      0.1785
     33  C          5.7970   65.9260  106.6560 C.2   139  ASN139      0.2597
     34  O          5.1030   65.9710  105.6240 O.2   139  ASN139     -0.2718
     35  CB         7.0420   63.8950  105.8020 C.3   139  ASN139      0.1169
     36  CG         7.3380   64.2060  104.3400 C.2   139  ASN139      0.2627
     37  OD1        8.1560   65.0790  104.0470 O.2   139  ASN139     -0.2716
     38  ND2        6.6910   63.4880  103.4200 N.am  139  ASN139     -0.0877
     39  N          5.4660   66.5430  107.7910 N.am  140  ARG140     -0.1979
     40  CA         4.4670   67.5980  107.8600 C.3   140  ARG140      0.1597
     41  C          5.0770   68.8840  108.4400 C.2   140  ARG140      0.2287
     42  O          4.3520   69.8290  108.6990 O.2   140  ARG140     -0.2864
     43  CB         3.2940   67.1450  108.7360 C.3   140  ARG140      0.0334
     44  CG         2.6030   65.8750  108.2680 C.3   140  ARG140      0.0492
     45  CD         1.8700   66.0360  106.9430 C.3   140  ARG140      0.2205
     46  NE         1.1930   64.7870  106.5990 N.pl3 140  ARG140     -0.0865
     47  CZ         1.7830   63.7310  106.0380 C.cat 140  ARG140      0.5346
     48  NH1        3.0790   63.7610  105.7130 N.pl3 140  ARG140      0.1354
     49  NH2        1.0770   62.6270  105.8030 N.pl3 140  ARG140      0.1354
     50  N         10.9740   56.7090  101.4070 N.3   192  HIS192     -0.1226
     51  CA         9.9530   56.3280  102.3640 C.3   192  HIS192      0.1752
     52  C          9.4880   54.9090  102.0300 C.2   192  HIS192      0.2597
     53  O          9.9210   54.3170  101.0450 O.2   192  HIS192     -0.2718
     54  CB         8.7610   57.2740  102.2650 C.3   192  HIS192      0.0759
     55  CG         9.0050   58.6370  102.8500 C.ar  192  HIS192      0.0818
     56  ND1        8.5050   59.0130  104.0750 N.ar  192  HIS192     -0.2268
     57  CD2        9.6870   59.7070  102.3850 C.ar  192  HIS192      0.1154
     58  CE1        8.8630   60.2530  104.3420 C.ar  192  HIS192      0.1986
     59  NE2        9.5860   60.6970  103.3330 N.ar  192  HIS192     -0.2212
     60  N          8.6150   54.3720  102.8720 N.am  193  SER193     -0.1938
     61  CA         7.8010   53.2100  102.5240 C.3   193  SER193      0.2055
     62  C          6.4420   53.3470  103.2180 C.2   193  SER193      0.2643
     63  O          6.2940   54.2070  104.0920 O.2   193  SER193     -0.2714
     64  CB         8.5150   51.9110  102.9230 C.3   193  SER193      0.2130
     65  OG         8.3900   51.6340  104.3080 O.3   193  SER193     -0.2179
     66  N          5.4250   52.5630  102.8600 N.am  194  TYR194     -0.1973
     67  CA         5.3980   51.6110  101.7380 C.3   194  TYR194      0.1639
     68  C          4.3220   52.0510  100.7370 C.2   194  TYR194      0.2290
     69  O          3.7100   53.1100  100.8960 O.2   194  TYR194     -0.2864
     70  CB         5.1390   50.1760  102.2510 C.3   194  TYR194      0.0560
     71  CG         3.8080   50.0330  102.9610 C.ar  194  TYR194     -0.0198
     72  CD1        3.7020   50.2860  104.3200 C.ar  194  TYR194     -0.0009
     73  CD2        2.6460   49.7010  102.2590 C.ar  194  TYR194     -0.0009
     74  CE1        2.4870   50.1970  104.9770 C.ar  194  TYR194      0.0417
     75  CE2        1.4240   49.6080  102.9060 C.ar  194  TYR194      0.0417
     76  CZ         1.3510   49.8540  104.2580 C.ar  194  TYR194      0.1957
     77  OH         0.1450   49.7460  104.8910 O.3   194  TYR194     -0.2866
     78  N          6.5620   59.5940   93.6580 N.3   199  LEU199     -0.1245
     79  CA         5.7190   60.7800   93.7910 C.3   199  LEU199      0.1561
     80  C          6.5330   62.0230   93.4770 C.2   199  LEU199      0.2260
     81  O          7.7150   62.0790   93.7930 O.2   199  LEU199     -0.2867
     82  CB         5.2140   60.8990   95.2220 C.3   199  LEU199      0.0270
     83  CG         4.4460   59.7200   95.7940 C.3   199  LEU199      0.0019
     84  CD1        4.2170   59.9170   97.2790 C.3   199  LEU199      0.0001
     85  CD2        3.1380   59.5130   95.0440 C.3   199  LEU199      0.0001
     86  N          1.9170   67.7340   96.8680 N.3   203  SER203     -0.1217
     87  CA         1.0720   67.1010   97.8730 C.3   203  SER203      0.1889
     88  C          0.2780   68.1120   98.7180 C.2   203  SER203      0.2288
     89  O         -0.7970   67.7560   99.1970 O.2   203  SER203     -0.2866
     90  CB         1.9140   66.2060   98.7930 C.3   203  SER203      0.2089
     91  OG         2.4340   65.0910   98.0780 O.3   203  SER203     -0.2183
     92  N         -1.1580   59.4650   95.9970 N.3   243  ILE243     -0.1231
     93  CA        -1.2890   58.8310   97.3050 C.3   243  ILE243      0.1692
     94  C         -2.3850   59.5130   98.1320 C.2   243  ILE243      0.2592
     95  O         -3.4110   58.8980   98.4250 O.2   243  ILE243     -0.2718
     96  CB         0.0900   58.6550   98.0050 C.3   243  ILE243      0.0266
     97  CG1       -0.0110   57.5440   99.0560 C.3   243  ILE243      0.0019
     98  CG2        0.6720   59.9590   98.5590 C.3   243  ILE243      0.0020
     99  CD1        1.2920   57.1940   99.7400 C.3   243  ILE243      0.0001
    100  N         -2.2090   60.7890   98.4470 N.am  244  TYR244     -0.1976
    101  CA        -3.2050   61.5810   99.1880 C.3   244  TYR244      0.1639
    102  C         -2.6490   62.9780   99.3450 C.2   244  TYR244      0.2290
    103  O         -1.4190   63.1580   99.3050 O.2   244  TYR244     -0.2864
    104  CB        -3.5600   61.0210  100.5860 C.3   244  TYR244      0.0560
    105  CG        -2.3980   60.4990  101.4060 C.ar  244  TYR244     -0.0198
    106  CD1       -1.4540   61.3570  101.9670 C.ar  244  TYR244     -0.0009
    107  CD2       -2.2560   59.1340  101.6400 C.ar  244  TYR244     -0.0009
    108  CE1       -0.3960   60.8630  102.7230 C.ar  244  TYR244      0.0417
    109  CE2       -1.1990   58.6250  102.3870 C.ar  244  TYR244      0.0417
    110  CZ        -0.2710   59.4980  102.9290 C.ar  244  TYR244      0.1957
    111  OH         0.7730   58.9960  103.6750 O.3   244  TYR244     -0.2866
    112  N         -1.2730   66.0090  101.4150 N.3   246  ALA246     -0.1245
    113  CA        -0.5720   66.1270  102.6900 C.3   246  ALA246      0.1562
    114  C          0.3550   67.3240  102.6050 C.2   246  ALA246      0.2260
    115  O          1.2250   67.3710  101.7360 O.2   246  ALA246     -0.2867
    116  CB         0.2120   64.8640  102.9930 C.3   246  ALA246      0.0290
    117  N          5.3330   68.6350  103.3790 N.3   249  GLY249     -0.1225
    118  CA         6.2930   67.6430  102.9280 C.3   249  GLY249      0.1811
    119  C          7.5850   68.2560  102.4270 C.2   249  GLY249      0.2280
    120  O          7.5860   69.3380  101.8250 O.2   249  GLY249     -0.2866
    121  N          9.5810   67.1690   99.9370 N.3   251  ASP251     -0.1239
    122  CA         9.6880   67.2120   98.4760 C.3   251  ASP251      0.1674
    123  C          9.0740   68.4940   97.8980 C.2   251  ASP251      0.2266
    124  O          9.6700   69.1280   97.0280 O.2   251  ASP251     -0.2867
    125  CB         9.1660   65.9260   97.7980 C.3   251  ASP251      0.1410
    126  CG         7.6500   65.7460   97.8660 C.2   251  ASP251      0.3668
    127  OD1        6.9640   66.2800   98.7780 O.co2 251  ASP251     -0.2456
    128  OD2        7.1540   65.0100   96.9720 O.co2 251  ASP251     -0.2456
    129  N          9.5760   61.7960   95.9670 N.3   264  THR264     -0.1218
    130  CA         9.4350   60.9430   97.1330 C.3   264  THR264      0.1862
    131  C          9.2230   59.5310   96.6240 C.2   264  THR264      0.2287
    132  O          8.2840   59.2840   95.8490 O.2   264  THR264     -0.2866
    133  CB         8.2090   61.3240   98.0110 C.3   264  THR264      0.1770
    134  OG1        8.2920   62.6920   98.4310 O.3   264  THR264     -0.2211
    135  CG2        8.1080   60.4350   99.2380 C.3   264  THR264      0.0375
    136  N          8.1840   55.7110   97.5810 N.3   266  GLU266     -0.1245
    137  CA         7.5750   54.7910   98.5410 C.3   266  GLU266      0.1567
    138  C          7.9810   53.3890   98.0970 C.2   266  GLU266      0.2260
    139  O          7.5760   52.9250   97.0240 O.2   266  GLU266     -0.2867
    140  CB         6.0370   54.8960   98.5570 C.3   266  GLU266      0.0388
    141  CG         5.4600   56.2640   98.8850 C.3   266  GLU266      0.1160
    142  CD         5.4030   56.5960  100.3550 C.2   266  GLU266      0.3649
    143  OE1        5.9180   55.8200  101.1990 O.co2 266  GLU266     -0.2457
    144  OE2        4.8300   57.6680  100.6590 O.co2 266  GLU266     -0.2457
    145  N          5.1930   48.0830  106.9050 N.3   275  PHE275     -0.1241
    146  CA         6.4160   48.6140  107.5070 C.3   275  PHE275      0.1605
    147  C          7.3730   47.5500  108.0170 C.2   275  PHE275      0.2264
    148  O          8.5690   47.8150  108.1110 O.2   275  PHE275     -0.2867
    149  CB         6.0840   49.5720  108.6520 C.3   275  PHE275      0.0534
    150  CG         5.2030   50.7040  108.2340 C.ar  275  PHE275     -0.0203
    151  CD1        5.6170   51.5750  107.2410 C.ar  275  PHE275     -0.0042
    152  CD2        3.9450   50.8760  108.7940 C.ar  275  PHE275     -0.0042
    153  CE1        4.7950   52.6060  106.8150 C.ar  275  PHE275     -0.0003
    154  CE2        3.1220   51.9140  108.3780 C.ar  275  PHE275     -0.0003
    155  CZ         3.5450   52.7690  107.3820 C.ar  275  PHE275     -0.0000
@<TRIPOS>BOND
     1    80    79    1
     2    80    81    2
     3    78    79    1
     4    79    82    1
     5    85    83    1
     6    82    83    1
     7    83    84    1
     8   132   131    2
     9   129   130    1
    10    92    93    1
    11   131   130    1
    12    86    87    1
    13   128   126   ar
    14   139   138    2
    15   124   123    2
    16   130   133    1
    17    93    96    1
    18    93    94    1
    19   136   137    1
    20   125   126    1
    21   125   122    1
    22   126   127   ar
    23    87    88    1
    24    87    90    1
    25   123   122    1
    26    96    98    1
    27    96    97    1
    28   133   134    1
    29   133   135    1
    30    91    90    1
    31   138   137    1
    32    94    95    2
    33    94   100   am
    34   100   101    1
    35   122   121    1
    36   137   140    1
    37   140   141    1
    38    88    89    2
    39   141   142    1
    40    97    99    1
    41   101   102    1
    42   101   104    1
    43   103   102    2
    44   142   144   ar
    45   142   143   ar
    46   104   105    1
    47    68    69    2
    48    68    67    1
    49    53    52    2
    50   105   107   ar
    51   105   106   ar
    52    50    51    1
    53   112   113    1
    54   107   109   ar
    55   115   114    2
    56    67    70    1
    57    67    66    1
    58   120   119    2
    59   106   108   ar
    60    52    51    1
    61    52    60   am
    62    70    71    1
    63    73    75   ar
    64    73    71   ar
    65    54    51    1
    66    54    55    1
    67    57    55   ar
    68    57    59   ar
    69   109   110   ar
    70   119   118    1
    71    61    60    1
    72    61    64    1
    73    61    62    1
    74   114   113    1
    75   113   116    1
    76   108   110   ar
    77    55    56   ar
    78    66    62   am
    79    75    76   ar
    80    64    65    1
    81   118   117    1
    82   110   111    1
    83    71    72   ar
    84    62    63    2
    85    59    58   ar
    86    38    36   am
    87    37    36    2
    88    56    58   ar
    89    76    77    1
    90    76    74   ar
    91    72    74   ar
    92    36    35    1
    93    19    17   ar
    94    34    33    2
    95    48    47    1
    96    35    32    1
    97    49    47    1
    98    47    46    2
    99    17    18   ar
   100    17    16    1
   101    46    45    1
   102    14    13    2
   103    33    32    1
   104    33    39   am
   105    32    31    1
   106    15    16    1
   107    15    12    1
   108   153   151   ar
   109   153   155   ar
   110   145   146    1
   111     9     7   ar
   112     9    10   ar
   113     7     6   ar
   114    45    44    1
   115   151   150   ar
   116    13    12    1
   117   155   154   ar
   118   146   147    1
   119   146   149    1
   120    12    11    1
   121    39    40    1
   122    30    28    1
   123    40    41    1
   124    40    43    1
   125   147   148    2
   126    10     8   ar
   127     6     5    1
   128     6     8   ar
   129    29    28    1
   130   150   149    1
   131   150   152   ar
   132    44    43    1
   133   154   152   ar
   134    41    42    2
   135     5     2    1
   136     1     2    1
   137    28    27    2
   138     4     3    2
   139     2     3    1
   140    27    26    1
   141    26    25    1
   142    25    24    1
   143    23    22    2
   144    24    21    1
   145    21    22    1
   146    21    20    1
