@<TRIPOS>MOLECULE
tmp/5j1rA00.pdb
 158 156 0 0 0
SMALL
GASTEIGER

@<TRIPOS>ATOM
      1  N         35.8600    7.0330   13.7730 N.3    66  LEU66      -0.1245
      2  CA        34.5540    6.7270   13.1390 C.3    66  LEU66       0.1561
      3  C         34.7250    5.7260   11.9940 C.2    66  LEU66       0.2260
      4  O         33.8680    4.8480   11.7900 O.2    66  LEU66      -0.2867
      5  CB        33.8770    8.0370   12.5820 C.3    66  LEU66       0.0270
      6  CG        32.4260    7.9190   12.0820 C.3    66  LEU66       0.0019
      7  CD1       31.4370    7.6510   13.2420 C.3    66  LEU66       0.0001
      8  CD2       32.1210    9.2730   11.4180 C.3    66  LEU66       0.0001
      9  N         23.9780    4.1040   17.0110 N.3    82  TRP82      -0.1241
     10  CA        24.1300    5.5960   16.9270 C.3    82  TRP82       0.1605
     11  C         24.9240    6.1550   18.0990 C.2    82  TRP82       0.2264
     12  O         25.7430    7.0900   17.9150 O.2    82  TRP82      -0.2867
     13  CB        22.7430    6.2980   16.8080 C.3    82  TRP82       0.0550
     14  CG        22.1410    6.0480   15.4600 C.ar   82  TRP82       0.0003
     15  CD1       21.0850    5.2120   15.1390 C.ar   82  TRP82       0.0946
     16  CD2       22.5820    6.6370   14.1840 C.ar   82  TRP82       0.0152
     17  NE1       20.8190    5.2270   13.7790 N.ar   82  TRP82      -0.2442
     18  CE2       21.6980    6.0500   13.1390 C.ar   82  TRP82       0.0810
     19  CE3       23.6590    7.4710   13.8070 C.ar   82  TRP82       0.0012
     20  CZ2       21.8370    6.3600   11.7920 C.ar   82  TRP82       0.0191
     21  CZ3       23.8100    7.7530   12.4270 C.ar   82  TRP82       0.0001
     22  CH2       22.9260    7.2300   11.4620 C.ar   82  TRP82       0.0015
     23  N         28.6360    5.8950   17.6840 N.3    85  GLY85      -0.1210
     24  CA        29.1360    6.8410   16.6900 C.3    85  GLY85       0.1956
     25  C         29.2440    8.2430   17.2270 C.2    85  GLY85       0.2611
     26  O         30.2860    8.8870   17.0730 O.2    85  GLY85      -0.2717
     27  N         28.1770    8.7500   17.8340 N.am   86  ILE86      -0.1979
     28  CA        28.2350   10.0690   18.4910 C.3    86  ILE86       0.1595
     29  C         29.3220   10.0940   19.5470 C.2    86  ILE86       0.2287
     30  O         30.0010   11.1160   19.7660 O.2    86  ILE86      -0.2864
     31  CB        26.8370   10.4710   19.0920 C.3    86  ILE86       0.0276
     32  CG1       25.7720   10.5230   17.9440 C.3    86  ILE86       0.0022
     33  CG2       26.9470   11.7900   19.8800 C.3    86  ILE86       0.0022
     34  CD1       24.3640   10.7310   18.5220 C.3    86  ILE86       0.0001
     35  N         32.8180   11.3680   18.8600 N.3    89  PHE89      -0.1241
     36  CA        33.0310   12.8470   18.9360 C.3    89  PHE89       0.1605
     37  C         33.0310   13.3770   20.3470 C.2    89  PHE89       0.2264
     38  O         33.8720   14.2560   20.7100 O.2    89  PHE89      -0.2867
     39  CB        31.9800   13.5230   18.0340 C.3    89  PHE89       0.0534
     40  CG        32.1760   13.1750   16.6130 C.ar   89  PHE89      -0.0203
     41  CD1       33.0240   13.9370   15.8190 C.ar   89  PHE89      -0.0042
     42  CD2       31.6560   11.9640   16.0910 C.ar   89  PHE89      -0.0042
     43  CE1       33.2940   13.5550   14.4800 C.ar   89  PHE89      -0.0003
     44  CE2       31.9430   11.5600   14.7810 C.ar   89  PHE89      -0.0003
     45  CZ        32.7730   12.3690   13.9760 C.ar   89  PHE89      -0.0000
     46  N         36.7320   14.9110   21.1390 N.3    93  PHE93      -0.1241
     47  CA        36.8360   16.3940   21.3150 C.3    93  PHE93       0.1605
     48  C         36.8350   16.7190   22.7880 C.2    93  PHE93       0.2264
     49  O         37.4760   17.6660   23.2470 O.2    93  PHE93      -0.2867
     50  CB        35.7230   17.1540   20.4670 C.3    93  PHE93       0.0534
     51  CG        36.0410   17.1350   18.9860 C.ar   93  PHE93      -0.0203
     52  CD1       36.9330   18.0860   18.4370 C.ar   93  PHE93      -0.0042
     53  CD2       35.5060   16.1830   18.1640 C.ar   93  PHE93      -0.0042
     54  CE1       37.2390   18.0590   17.0600 C.ar   93  PHE93      -0.0003
     55  CE2       35.8470   16.1060   16.7650 C.ar   93  PHE93      -0.0003
     56  CZ        36.7130   17.0590   16.2320 C.ar   93  PHE93      -0.0000
     57  N         37.5460   22.4890    9.0230 N.3   117  TRP117     -0.1241
     58  CA        36.3300   22.1250    9.7630 C.3   117  TRP117      0.1605
     59  C         35.2010   21.8110    8.7600 C.2   117  TRP117      0.2264
     60  O         34.5130   20.7640    8.8090 O.2   117  TRP117     -0.2867
     61  CB        35.9280   23.2260   10.7430 C.3   117  TRP117      0.0550
     62  CG        34.8150   22.7050   11.6160 C.ar  117  TRP117      0.0003
     63  CD1       33.4640   23.1420   11.6550 C.ar  117  TRP117      0.0946
     64  CD2       34.8800   21.5670   12.5840 C.ar  117  TRP117      0.0152
     65  NE1       32.7360   22.4120   12.6080 N.ar  117  TRP117     -0.2442
     66  CE2       33.5120   21.4330   13.1720 C.ar  117  TRP117      0.0810
     67  CE3       35.8970   20.7030   13.0280 C.ar  117  TRP117      0.0012
     68  CZ2       33.2020   20.4310   14.1420 C.ar  117  TRP117      0.0191
     69  CZ3       35.5850   19.7070   13.9870 C.ar  117  TRP117      0.0001
     70  CH2       34.2550   19.5860   14.5570 C.ar  117  TRP117      0.0015
     71  N         33.2290   18.3080    8.3970 N.3   121  MET121     -0.1245
     72  CA        31.7240   18.3410    8.6010 C.3   121  MET121      0.1570
     73  C         30.9770   17.7770    7.3710 C.2   121  MET121      0.2261
     74  O         29.9860   17.0230    7.4850 O.2   121  MET121     -0.2867
     75  CB        31.2500   19.7670    8.8780 C.3   121  MET121      0.0387
     76  CG        31.6230   20.2940   10.2930 C.3   121  MET121      0.0595
     77  SD        30.7610   19.3380   11.5760 S.3   121  MET121     -0.1393
     78  CE        29.0440   19.9890   11.4530 C.3   121  MET121      0.0692
     79  N         31.3290   13.9260    7.4450 N.3   124  TRP124     -0.1241
     80  CA        30.5020   13.2710    8.5070 C.3   124  TRP124      0.1605
     81  C         29.0220   13.3350    8.2220 C.2   124  TRP124      0.2264
     82  O         28.2680   12.4000    8.4680 O.2   124  TRP124     -0.2867
     83  CB        30.8240   13.9120    9.8400 C.3   124  TRP124      0.0550
     84  CG        32.2970   13.7540   10.1870 C.ar  124  TRP124      0.0003
     85  CD1       33.1380   12.6940    9.8410 C.ar  124  TRP124      0.0946
     86  CD2       33.1160   14.6510   10.9560 C.ar  124  TRP124      0.0152
     87  NE1       34.3890   12.8690   10.3800 N.ar  124  TRP124     -0.2442
     88  CE2       34.4520   14.0190   11.0460 C.ar  124  TRP124      0.0810
     89  CE3       32.9150   15.8560   11.5570 C.ar  124  TRP124      0.0012
     90  CZ2       35.5080   14.6260   11.7060 C.ar  124  TRP124      0.0191
     91  CZ3       33.9780   16.4560   12.2010 C.ar  124  TRP124      0.0001
     92  CH2       35.2460   15.8340   12.3040 C.ar  124  TRP124      0.0015
     93  N         28.3680   10.7970    5.5160 N.3   127  TYR127     -0.1227
     94  CA        28.3880    9.4370    6.1070 C.3   127  TYR127      0.1736
     95  C         27.0810    9.2140    6.8540 C.2   127  TYR127      0.2596
     96  O         26.3850    8.2170    6.7010 O.2   127  TYR127     -0.2718
     97  CB        29.6420    9.2710    6.9940 C.3   127  TYR127      0.0548
     98  CG        29.5960    7.9690    7.7290 C.ar  127  TYR127     -0.0200
     99  CD1       29.7640    6.7880    7.0480 C.ar  127  TYR127     -0.0009
    100  CD2       29.2470    7.9390    9.0690 C.ar  127  TYR127     -0.0009
    101  CE1       29.6590    5.5440    7.6970 C.ar  127  TYR127      0.0417
    102  CE2       29.1290    6.7270    9.7550 C.ar  127  TYR127      0.0417
    103  CZ        29.3360    5.5440    9.0490 C.ar  127  TYR127      0.1957
    104  OH        29.2290    4.3420    9.7200 O.3   127  TYR127     -0.2866
    105  N         26.6880   10.1900    7.6510 N.am  128  THR128     -0.1953
    106  CA        25.4220   10.1020    8.3220 C.3   128  THR128      0.1897
    107  C         24.2450    9.8990    7.3510 C.2   128  THR128      0.2313
    108  O         23.3690    9.0860    7.5970 O.2   128  THR128     -0.2863
    109  CB        25.1390   11.4420    9.1190 C.3   128  THR128      0.1794
    110  OG1       26.1870   11.6180   10.0960 O.3   128  THR128     -0.2208
    111  CG2       23.8150   11.3180    9.9630 C.3   128  THR128      0.0378
    112  N         24.0090   16.8950   12.6170 N.3   155  ASN155     -0.1240
    113  CA        25.4780   17.1340   12.8220 C.3   155  ASN155      0.1653
    114  C         25.7380   18.5330   13.2860 C.2   155  ASN155      0.2266
    115  O         26.5900   18.7620   14.1140 O.2   155  ASN155     -0.2867
    116  CB        26.2030   16.8840   11.4810 C.3   155  ASN155      0.1155
    117  CG        26.5510   15.4120   11.2720 C.2   155  ASN155      0.2627
    118  OD1       27.7400   15.0340   11.5040 O.2   155  ASN155     -0.2716
    119  ND2       25.6110   14.5780   10.8080 N.am  155  ASN155     -0.0877
    120  N         24.8860   18.5570   16.9460 N.3   158  ASN158     -0.1225
    121  CA        25.9340   17.9780   17.7780 C.3   158  ASN158      0.1785
    122  C         27.1030   18.9140   17.9450 C.2   158  ASN158      0.2597
    123  O         27.6170   19.0780   19.0680 O.2   158  ASN158     -0.2718
    124  CB        26.4770   16.6330   17.2700 C.3   158  ASN158      0.1169
    125  CG        25.4830   15.5200   17.4590 C.2   158  ASN158      0.2627
    126  OD1       24.3030   15.7690   17.8080 O.2   158  ASN158     -0.2716
    127  ND2       25.9300   14.2730   17.2770 N.am  158  ASN158     -0.0877
    128  N         27.5330   19.5260   16.8490 N.am  159  GLU159     -0.1979
    129  CA        28.7040   20.4990   16.9130 C.3   159  GLU159      0.1602
    130  C         28.3930   21.5320   17.9930 C.2   159  GLU159      0.2287
    131  O         29.2280   21.8160   18.9030 O.2   159  GLU159     -0.2864
    132  CB        28.8380   21.2330   15.5680 C.3   159  GLU159      0.0415
    133  CG        29.9610   22.2820   15.5420 C.3   159  GLU159      0.1163
    134  CD        29.9010   23.1740   14.3130 C.2   159  GLU159      0.3649
    135  OE1       29.9890   22.7080   13.1750 O.co2 159  GLU159     -0.2457
    136  OE2       29.7990   24.3960   14.4550 O.co2 159  GLU159     -0.2457
    137  N         27.5920   19.8490   21.7600 N.3   162  LEU162     -0.1245
    138  CA        28.7770   19.3170   22.4530 C.3   162  LEU162      0.1561
    139  C         29.7040   20.4640   22.8900 C.2   162  LEU162      0.2260
    140  O         30.2600   20.4680   24.0280 O.2   162  LEU162     -0.2867
    141  CB        29.5820   18.3780   21.5490 C.3   162  LEU162      0.0270
    142  CG        28.8670   16.9950   21.3590 C.3   162  LEU162      0.0019
    143  CD1       29.6640   16.2350   20.2270 C.3   162  LEU162      0.0001
    144  CD2       28.8320   16.1970   22.6840 C.3   162  LEU162      0.0001
    145  N         18.5990   12.0290   17.7780 N.3   186  TRP186     -0.1241
    146  CA        18.9410   11.3760   16.5380 C.3   186  TRP186      0.1605
    147  C         18.0430   10.2240   16.2920 C.2   186  TRP186      0.2264
    148  O         17.5260   10.0820   15.1730 O.2   186  TRP186     -0.2867
    149  CB        20.4060   10.8840   16.5360 C.3   186  TRP186      0.0550
    150  CG        21.4730   11.9370   16.2500 C.ar  186  TRP186      0.0003
    151  CD1       21.6890   13.1500   16.9310 C.ar  186  TRP186      0.0946
    152  CD2       22.5360   11.8730   15.2510 C.ar  186  TRP186      0.0152
    153  NE1       22.7240   13.8290   16.3750 N.ar  186  TRP186     -0.2442
    154  CE2       23.2800   13.1110   15.3630 C.ar  186  TRP186      0.0810
    155  CE3       22.9060   10.9490   14.2320 C.ar  186  TRP186      0.0012
    156  CZ2       24.3980   13.3970   14.5340 C.ar  186  TRP186      0.0191
    157  CZ3       24.0080   11.2350   13.4270 C.ar  186  TRP186      0.0001
    158  CH2       24.7260   12.4530   13.5210 C.ar  186  TRP186      0.0015
@<TRIPOS>BOND
     1    93    94    1
     2    94    95    1
     3    94    97    1
     4    96    95    2
     5    95   105   am
     6    97    98    1
     7    99   101   ar
     8    99    98   ar
     9   107   108    2
    10   107   106    1
    11    73    74    2
    12    73    72    1
    13    79    80    1
    14   105   106    1
    15   101   103   ar
    16    98   100   ar
    17    81    82    2
    18    81    80    1
    19   106   109    1
    20    71    72    1
    21    80    83    1
    22    72    75    1
    23    59    60    2
    24    59    58    1
    25    75    76    1
    26    57    58    1
    27   103   104    1
    28   103   102   ar
    29   100   102   ar
    30   109   111    1
    31   109   110    1
    32    58    61    1
    33    83    84    1
    34    85    84   ar
    35    85    87   ar
    36    84    86   ar
    37    76    77    1
    38    87    88   ar
    39    61    62    1
    40   119   117   am
    41    86    88   ar
    42    86    89   ar
    43    88    90   ar
    44   117   116    1
    45   117   118    2
    46     8     6    1
    47    78    77    1
    48    22    20   ar
    49    22    21   ar
    50   116   113    1
    51    89    91   ar
    52    62    63   ar
    53    62    64   ar
    54    63    65   ar
    55    90    92   ar
    56     4     3    2
    57    20    18   ar
    58     3     2    1
    59     6     5    1
    60     6     7    1
    61    91    92   ar
    62    21    19   ar
    63     5     2    1
    64    64    67   ar
    65    64    66   ar
    66    65    66   ar
    67   112   113    1
    68   113   114    1
    69    67    69   ar
    70     2     1    1
    71    18    17   ar
    72    18    16   ar
    73    66    68   ar
    74   135   134   ar
    75   114   115    2
    76   157   158   ar
    77   157   155   ar
    78   158   156   ar
    79    17    15   ar
    80    19    16   ar
    81    45    43   ar
    82    45    44   ar
    83    69    70   ar
    84    68    70   ar
    85    16    14   ar
    86   155   152   ar
    87   134   136   ar
    88   134   133    1
    89    43    41   ar
    90   156   154   ar
    91    44    42   ar
    92    15    14   ar
    93   148   147    2
    94   152   154   ar
    95   152   150   ar
    96   154   153   ar
    97    14    13    1
    98   133   132    1
    99   132   129    1
   100    41    40   ar
   101    42    40   ar
   102    56    55   ar
   103    56    54   ar
   104   150   149    1
   105   150   151   ar
   106   147   146    1
   107   153   151   ar
   108   149   146    1
   109   146   145    1
   110    40    39    1
   111    24    25    1
   112    24    23    1
   113    55    53   ar
   114    13    10    1
   115   128   129    1
   116   128   122   am
   117   129   130    1
   118    10     9    1
   119    10    11    1
   120   120   121    1
   121    54    52   ar
   122    26    25    2
   123    25    27   am
   124   124   125    1
   125   124   121    1
   126   127   125   am
   127   125   126    2
   128   121   122    1
   129    27    28    1
   130    12    11    2
   131    32    34    1
   132    32    31    1
   133   122   123    2
   134   130   131    2
   135    39    36    1
   136    53    51   ar
   137    52    51   ar
   138    28    31    1
   139    28    29    1
   140    35    36    1
   141    36    37    1
   142    51    50    1
   143    31    33    1
   144    29    30    2
   145   143   142    1
   146    37    38    2
   147    50    47    1
   148    46    47    1
   149    47    48    1
   150   142   141    1
   151   142   144    1
   152   141   138    1
   153   137   138    1
   154   138   139    1
   155    48    49    2
   156   139   140    2
