@<TRIPOS>MOLECULE
tmp/5j1sA00.pdb
 160 153 0 0 0
SMALL
GASTEIGER

@<TRIPOS>ATOM
      1  N        -32.2320   -3.6510  -15.7770 N.3    14  ASN14      -0.1225
      2  CA       -31.0540   -2.9700  -15.2590 C.3    14  ASN14       0.1785
      3  C        -30.2850   -3.7020  -14.1710 C.2    14  ASN14       0.2597
      4  O        -29.0810   -3.4130  -14.0020 O.2    14  ASN14      -0.2718
      5  CB       -31.4350   -1.5600  -14.7690 C.3    14  ASN14       0.1169
      6  CG       -32.0300   -0.7030  -15.8990 C.2    14  ASN14       0.2627
      7  OD1      -31.4260   -0.6150  -17.0160 O.2    14  ASN14      -0.2716
      8  ND2      -33.2430   -0.1680  -15.6830 N.am   14  ASN14      -0.0877
      9  N        -30.9140   -4.6080  -13.4040 N.am   15  LEU15      -0.1966
     10  CA       -30.2320   -5.2760  -12.2840 C.3    15  LEU15       0.1728
     11  C        -29.7870   -6.6790  -12.7340 C.2    15  LEU15       0.2616
     12  O        -30.6360   -7.5420  -13.0000 O.2    15  LEU15      -0.2715
     13  CB       -31.1490   -5.3470  -11.0490 C.3    15  LEU15       0.0311
     14  CG       -30.4820   -5.9540   -9.7820 C.3    15  LEU15       0.0022
     15  CD1      -29.3900   -4.9850   -9.1990 C.3    15  LEU15       0.0001
     16  CD2      -31.5390   -6.3520   -8.7440 C.3    15  LEU15       0.0001
     17  N        -28.4600   -6.9210  -12.8020 N.am   16  PHE16      -0.1974
     18  CA       -27.9600   -8.1870  -13.3230 C.3    16  PHE16       0.1639
     19  C        -27.5800   -9.1630  -12.2090 C.2    16  PHE16       0.2290
     20  O        -27.1120   -8.7670  -11.1340 O.2    16  PHE16      -0.2864
     21  CB       -26.7290   -7.9680  -14.2050 C.3    16  PHE16       0.0560
     22  CG       -26.9040   -6.8850  -15.2240 C.ar   16  PHE16      -0.0200
     23  CD1      -28.0810   -6.8180  -15.9790 C.ar   16  PHE16      -0.0042
     24  CD2      -25.9210   -5.9160  -15.4160 C.ar   16  PHE16      -0.0042
     25  CE1      -28.2530   -5.8010  -16.9560 C.ar   16  PHE16      -0.0003
     26  CE2      -26.0550   -4.9170  -16.3810 C.ar   16  PHE16      -0.0003
     27  CZ       -27.2440   -4.8380  -17.1470 C.ar   16  PHE16      -0.0000
     28  N        -29.0690  -11.0330  -10.0160 N.3    18  GLN18      -0.1245
     29  CA       -29.6740  -11.0080   -8.6680 C.3    18  GLN18       0.1566
     30  C        -31.1020  -11.5450   -8.7250 C.2    18  GLN18       0.2260
     31  O        -32.0590  -10.8570   -8.3410 O.2    18  GLN18      -0.2867
     32  CB       -29.6390   -9.6110   -8.0620 C.3    18  GLN18       0.0367
     33  CG       -28.2140   -9.0210   -7.8800 C.3    18  GLN18       0.0905
     34  CD       -27.3310   -9.8130   -6.8770 C.2    18  GLN18       0.2608
     35  OE1      -27.7770  -10.7760   -6.2470 O.2    18  GLN18      -0.2717
     36  NE2      -26.0450   -9.4450   -6.8010 N.am   18  GLN18      -0.0878
     37  N        -19.9150   -6.7120   -1.6940 N.3    50  THR50      -0.1203
     38  CA       -19.6530   -5.3620   -2.1610 C.3    50  THR50       0.1994
     39  C        -19.7760   -5.2550   -3.6900 C.2    50  THR50       0.2618
     40  O        -19.3550   -6.1490   -4.4400 O.2    50  THR50      -0.2717
     41  CB       -18.2580   -4.9320   -1.6990 C.3    50  THR50       0.1784
     42  OG1      -17.9950   -3.5980   -2.1390 O.3    50  THR50      -0.2211
     43  CG2      -17.1510   -5.8500   -2.2140 C.3    50  THR50       0.0376
     44  N        -20.3550   -4.1430   -4.1530 N.am   51  GLY51      -0.1942
     45  CA       -20.4180   -3.8300   -5.5800 C.3    51  GLY51       0.2014
     46  C        -21.3620   -4.7220   -6.3540 C.2    51  GLY51       0.2640
     47  O        -21.1830   -4.8930   -7.5820 O.2    51  GLY51      -0.2714
     48  N        -22.4180   -5.2510   -5.7040 N.am   52  THR52      -0.1936
     49  CA       -23.3280   -6.1280   -6.4080 C.3    52  THR52       0.2028
     50  C        -24.7600   -5.6100   -6.5170 C.2    52  THR52       0.2643
     51  O        -25.6110   -6.3250   -7.0880 O.2    52  THR52      -0.2714
     52  CB       -23.3140   -7.5580   -5.8670 C.3    52  THR52       0.1808
     53  OG1      -23.8460   -7.5800   -4.5320 O.3    52  THR52      -0.2208
     54  CG2      -21.8840   -8.1140   -5.8790 C.3    52  THR52       0.0379
     55  N        -25.0460   -4.4080   -6.0140 N.am   53  GLY53      -0.1939
     56  CA       -26.2610   -3.7030   -6.4110 C.3    53  GLY53       0.2014
     57  C        -27.1810   -3.2320   -5.3010 C.2    53  GLY53       0.2639
     58  O        -28.3560   -2.9640   -5.5900 O.2    53  GLY53      -0.2714
     59  N        -26.6950   -3.0960   -4.0460 N.am   54  LYS54      -0.1963
     60  CA       -27.5750   -2.7300   -2.9390 C.3    54  LYS54       0.1728
     61  C        -28.0240   -1.2600   -3.0190 C.2    54  LYS54       0.2616
     62  O        -29.2420   -0.9750   -2.9970 O.2    54  LYS54      -0.2715
     63  CB       -26.8890   -3.0930   -1.6190 C.3    54  LYS54       0.0311
     64  CG       -26.6610   -4.6080   -1.5190 C.3    54  LYS54       0.0038
     65  CD       -25.9980   -5.0580   -0.2210 C.3    54  LYS54       0.0206
     66  CE       -24.6490   -4.3530    0.0220 C.3    54  LYS54       0.1093
     67  NZ       -23.5630   -4.7720   -0.9360 N.3    54  LYS54      -0.1314
     68  N        -27.0880   -0.2990   -3.1360 N.am   55  ASN55      -0.1958
     69  CA       -27.5150    1.0930   -3.3590 C.3    55  ASN55       0.1819
     70  C        -28.2210    1.2300   -4.7070 C.2    55  ASN55       0.2621
     71  O        -29.2190    1.9450   -4.8260 O.2    55  ASN55      -0.2715
     72  CB       -26.3700    2.1060   -3.3120 C.3    55  ASN55       0.1195
     73  CG       -25.8670    2.3200   -1.8940 C.2    55  ASN55       0.2630
     74  OD1      -25.2700    1.4200   -1.3220 O.2    55  ASN55      -0.2716
     75  ND2      -26.1640    3.4800   -1.2980 N.am   55  ASN55      -0.0877
     76  N        -27.7740    0.4820   -5.7140 N.am   56  PHE56      -0.1974
     77  CA       -28.3820    0.5380   -7.0350 C.3    56  PHE56       0.1639
     78  C        -29.8750    0.1720   -6.9710 C.2    56  PHE56       0.2290
     79  O        -30.7170    0.8670   -7.5730 O.2    56  PHE56      -0.2864
     80  CB       -27.5910   -0.4100   -7.9460 C.3    56  PHE56       0.0560
     81  CG       -27.9340   -0.3130   -9.4250 C.ar   56  PHE56      -0.0200
     82  CD1      -27.7050    0.8420  -10.1780 C.ar   56  PHE56      -0.0042
     83  CD2      -28.4600   -1.4150  -10.0720 C.ar   56  PHE56      -0.0042
     84  CE1      -28.0210    0.8890  -11.5470 C.ar   56  PHE56      -0.0003
     85  CE2      -28.7780   -1.3630  -11.4400 C.ar   56  PHE56      -0.0003
     86  CZ       -28.5500   -0.2050  -12.1390 C.ar   56  PHE56      -0.0000
     87  N        -32.0390    2.8820   -5.3850 N.3    59  LYS59      -0.1245
     88  CA       -32.3920    3.9410   -6.3160 C.3    59  LYS59       0.1561
     89  C        -33.5750    3.4980   -7.1730 C.2    59  LYS59       0.2260
     90  O        -34.4840    4.2950   -7.4360 O.2    59  LYS59      -0.2867
     91  CB       -31.1760    4.2790   -7.2190 C.3    59  LYS59       0.0271
     92  CG       -30.0680    4.9910   -6.4730 C.3    59  LYS59       0.0035
     93  CD       -28.8080    5.1260   -7.3030 C.3    59  LYS59       0.0206
     94  CE       -27.6230    5.6850   -6.4530 C.3    59  LYS59       0.1093
     95  NZ       -26.3490    5.5870   -7.2390 N.3    59  LYS59      -0.1314
     96  N        -27.6410    3.1480    5.0910 N.3   116  ASP116     -0.1225
     97  CA       -26.5330    2.5290    4.3540 C.3   116  ASP116      0.1805
     98  C        -25.3830    2.2180    5.3240 C.2   116  ASP116      0.2597
     99  O        -25.2040    2.9090    6.3410 O.2   116  ASP116     -0.2718
    100  CB       -26.0820    3.5150    3.3090 C.3   116  ASP116      0.1424
    101  CG       -25.2420    2.8760    2.2320 C.2   116  ASP116      0.3668
    102  OD1      -25.0990    1.6180    2.2350 O.co2 116  ASP116     -0.2456
    103  OD2      -24.7890    3.6260    1.3360 O.co2 116  ASP116     -0.2456
    104  N        -24.6320    1.1510    5.0280 N.am  117  GLN117     -0.1979
    105  CA       -23.5420    0.6950    5.9110 C.3   117  GLN117      0.1601
    106  C        -24.0310    0.3670    7.3290 C.2   117  GLN117      0.2287
    107  O        -23.3840    0.6980    8.3380 O.2   117  GLN117     -0.2864
    108  CB       -22.3670    1.7030    5.9440 C.3   117  GLN117      0.0394
    109  CG       -21.9150    2.1610    4.5160 C.3   117  GLN117      0.0908
    110  CD       -21.5070    0.9710    3.6920 C.2   117  GLN117      0.2608
    111  OE1      -21.2000   -0.0770    4.2510 O.2   117  GLN117     -0.2717
    112  NE2      -21.5030    1.1090    2.3700 N.am  117  GLN117     -0.0878
    113  N        -23.0160   -5.3710    4.2810 N.3   154  ASN154     -0.1240
    114  CA       -22.2220   -6.5080    3.8020 C.3   154  ASN154      0.1653
    115  C        -22.2960   -7.7290    4.6870 C.2   154  ASN154      0.2266
    116  O        -21.6980   -8.7610    4.3450 O.2   154  ASN154     -0.2867
    117  CB       -20.7320   -6.1500    3.5830 C.3   154  ASN154      0.1155
    118  CG       -20.5590   -5.0190    2.6160 C.2   154  ASN154      0.2627
    119  OD1      -20.1500   -3.9010    2.9990 O.2   154  ASN154     -0.2716
    120  ND2      -20.9450   -5.2610    1.3520 N.am  154  ASN154     -0.0877
    121  N        -20.9290  -11.4900   -8.0280 N.3   218  LEU218     -0.1245
    122  CA       -21.1230  -11.4240   -9.4770 C.3   218  LEU218      0.1561
    123  C        -20.0850  -12.2650  -10.2040 C.2   218  LEU218      0.2260
    124  O        -18.9040  -12.2780   -9.8150 O.2   218  LEU218     -0.2867
    125  CB       -21.0550   -9.9860   -9.9550 C.3   218  LEU218      0.0270
    126  CG       -22.2230   -9.0810   -9.5080 C.3   218  LEU218      0.0019
    127  CD1      -22.0000   -7.6320   -9.9350 C.3   218  LEU218      0.0001
    128  CD2      -23.6350   -9.5580   -9.8950 C.3   218  LEU218      0.0001
    129  N        -22.1450   -5.0960  -17.1340 N.3   226  CYS226     -0.1235
    130  CA       -22.0140   -3.7530  -16.5740 C.3   226  CYS226      0.1677
    131  C        -21.0100   -2.8920  -17.3500 C.2   226  CYS226      0.2270
    132  O        -21.1850   -1.6710  -17.4650 O.2   226  CYS226     -0.2867
    133  CB       -21.5570   -3.8570  -15.1210 C.3   226  CYS226      0.0956
    134  SG       -22.6160   -4.7880  -13.9220 S.3   226  CYS226     -0.0801
    135  N        -18.7870   -4.9820   -9.2750 N.3   265  CYS265     -0.1221
    136  CA       -18.5320   -4.0310  -10.3430 C.3   265  CYS265      0.1808
    137  C        -17.6860   -2.8270   -9.9080 C.2   265  CYS265      0.2601
    138  O        -17.3310   -1.9930  -10.7410 O.2   265  CYS265     -0.2717
    139  CB       -19.8850   -3.5580  -10.8580 C.3   265  CYS265      0.0970
    140  SG       -19.8340   -2.7760  -12.4320 S.3   265  CYS265     -0.0800
    141  N        -17.3970   -2.6700   -8.6210 N.am  266  LYS266     -0.1979
    142  CA       -16.6900   -1.4550   -8.2210 C.3   266  LYS266      0.1596
    143  C        -15.2270   -1.4090   -8.6830 C.2   266  LYS266      0.2287
    144  O        -14.5240   -2.4290   -8.7290 O.2   266  LYS266     -0.2864
    145  CB       -16.7690   -1.2840   -6.6910 C.3   266  LYS266      0.0298
    146  CG       -18.2000   -0.7590   -6.3650 C.3   266  LYS266      0.0038
    147  CD       -18.3530   -0.5340   -4.8820 C.3   266  LYS266      0.0206
    148  CE       -19.7100    0.1100   -4.5950 C.3   266  LYS266      0.1093
    149  NZ       -19.8100    0.6180   -3.2100 N.3   266  LYS266     -0.1314
    150  N        -14.8570    0.8740  -13.6830 N.3   269  PHE269     -0.1241
    151  CA       -15.0920    1.8980  -14.6850 C.3   269  PHE269      0.1605
    152  C        -13.8730    2.7780  -14.8840 C.2   269  PHE269      0.2264
    153  O        -13.6520    3.2790  -15.9960 O.2   269  PHE269     -0.2867
    154  CB       -16.3240    2.7430  -14.3470 C.3   269  PHE269      0.0534
    155  CG       -17.6390    1.9770  -14.3900 C.ar  269  PHE269     -0.0203
    156  CD1      -17.7390    0.7580  -15.0260 C.ar  269  PHE269     -0.0042
    157  CD2      -18.7330    2.4580  -13.7100 C.ar  269  PHE269     -0.0042
    158  CE1      -18.9680    0.0500  -15.0380 C.ar  269  PHE269     -0.0003
    159  CE2      -19.9430    1.7650  -13.7130 C.ar  269  PHE269     -0.0003
    160  CZ       -20.0490    0.5650  -14.3650 C.ar  269  PHE269     -0.0000
@<TRIPOS>BOND
     1   132   131    2
     2   131   130    1
     3    27    25   ar
     4    27    26   ar
     5   129   130    1
     6     7     6    2
     7    25    23   ar
     8   130   133    1
     9    26    24   ar
    10   153   152    2
    11    23    22   ar
    12     6     8   am
    13     6     5    1
    14     1     2    1
    15    24    22   ar
    16     2     5    1
    17     2     3    1
    18    22    21    1
    19   133   134    1
    20   158   156   ar
    21   158   160   ar
    22   156   155   ar
    23   152   151    1
    24   151   154    1
    25   151   150    1
    26   155   154    1
    27   155   157   ar
    28   160   159   ar
    29    21    18    1
    30     3     4    2
    31     3     9   am
    32   159   157   ar
    33     9    10    1
    34    18    17    1
    35    18    19    1
    36    12    11    2
    37    17    11   am
    38    11    10    1
    39   140   139    1
    40    10    13    1
    41    19    20    2
    42    86    84   ar
    43    86    85   ar
    44    84    82   ar
    45    85    83   ar
    46    13    14    1
    47   139   136    1
    48   138   137    2
    49   136   137    1
    50   136   135    1
    51   123   124    2
    52   123   122    1
    53    82    81   ar
    54    83    81   ar
    55    28    29    1
    56   125   126    1
    57   125   122    1
    58   127   126    1
    59   137   141   am
    60   128   126    1
    61    14    15    1
    62    14    16    1
    63   122   121    1
    64    81    80    1
    65   144   143    2
    66    30    29    1
    67    30    31    2
    68   143   142    1
    69    29    32    1
    70   141   142    1
    71   142   145    1
    72    32    33    1
    73    80    77    1
    74    33    34    1
    75    47    46    2
    76    79    78    2
    77    90    89    2
    78    93    92    1
    79    93    94    1
    80    95    94    1
    81    91    92    1
    82    91    88    1
    83    89    88    1
    84    51    50    2
    85    77    78    1
    86    77    76    1
    87    34    36   am
    88    34    35    2
    89   145   146    1
    90    50    49    1
    91    50    55   am
    92    56    55    1
    93    56    57    1
    94    49    52    1
    95    49    48    1
    96   146   147    1
    97    46    48   am
    98    46    45    1
    99    88    87    1
   100    54    52    1
   101    52    53    1
   102    76    70   am
   103    58    57    2
   104    45    44    1
   105    57    59   am
   106   147   148    1
   107    71    70    2
   108    70    69    1
   109   148   149    1
   110    40    39    2
   111    44    39   am
   112    59    60    1
   113    39    38    1
   114    69    72    1
   115    69    68    1
   116    72    73    1
   117    68    61   am
   118    61    62    2
   119    61    60    1
   120    60    63    1
   121    43    41    1
   122    38    41    1
   123    38    37    1
   124    42    41    1
   125    73    74    2
   126    73    75   am
   127    63    64    1
   128    64    65    1
   129    67    66    1
   130    65    66    1
   131   103   101   ar
   132   120   118   am
   133   101   102   ar
   134   101   100    1
   135   112   110   am
   136   118   119    2
   137   118   117    1
   138   100    97    1
   139   117   114    1
   140   110   111    2
   141   110   109    1
   142   114   113    1
   143   114   115    1
   144   116   115    2
   145    97    96    1
   146    97    98    1
   147   109   108    1
   148   104    98   am
   149   104   105    1
   150    98    99    2
   151   105   108    1
   152   105   106    1
   153   106   107    2
