@<TRIPOS>MOLECULE
tmp/5j1vA00.pdb
 140 131 0 0 0
SMALL
GASTEIGER

@<TRIPOS>ATOM
      1  N        -11.3110   33.8160  -11.2500 N.3    22  LEU22      -0.1231
      2  CA        -9.8700   33.8650  -11.1570 C.3    22  LEU22       0.1693
      3  C         -9.2730   33.5950  -12.5130 C.2    22  LEU22       0.2592
      4  O         -8.3530   34.2620  -12.8990 O.2    22  LEU22      -0.2718
      5  CB        -9.3420   32.8260  -10.1600 C.3    22  LEU22       0.0284
      6  CG        -9.6880   33.1260   -8.6980 C.3    22  LEU22       0.0019
      7  CD1       -9.3610   31.9290   -7.8270 C.3    22  LEU22       0.0001
      8  CD2       -8.9680   34.3500   -8.1900 C.3    22  LEU22       0.0001
      9  N         -9.7890   32.5900  -13.2180 N.am   23  GLY23      -0.1957
     10  CA        -9.4030   32.3370  -14.5690 C.3    23  GLY23       0.1869
     11  C        -10.3820   31.5060  -15.3340 C.2    23  GLY23       0.2309
     12  O        -11.2220   30.8270  -14.7600 O.2    23  GLY23      -0.2863
     13  N        -11.4590   24.2850  -20.4150 N.3    27  PHE27      -0.1241
     14  CA       -11.8270   23.3090  -19.4120 C.3    27  PHE27       0.1605
     15  C        -13.0040   23.7490  -18.5690 C.2    27  PHE27       0.2264
     16  O        -13.7230   22.9200  -18.0460 O.2    27  PHE27      -0.2867
     17  CB       -10.6380   23.0050  -18.4940 C.3    27  PHE27       0.0534
     18  CG       -10.2970   24.1160  -17.5390 C.ar   27  PHE27      -0.0203
     19  CD1      -11.0420   24.3140  -16.3810 C.ar   27  PHE27      -0.0042
     20  CD2       -9.2140   24.9470  -17.7890 C.ar   27  PHE27      -0.0042
     21  CE1      -10.7220   25.3340  -15.5120 C.ar   27  PHE27      -0.0003
     22  CE2       -8.8800   25.9570  -16.9070 C.ar   27  PHE27      -0.0003
     23  CZ        -9.6360   26.1510  -15.7660 C.ar   27  PHE27      -0.0000
     24  N        -12.1310   28.9060  -12.9040 N.3    30  VAL30      -0.1245
     25  CA       -11.7820   28.8320  -11.5260 C.3    30  VAL30       0.1561
     26  C        -12.3020   30.0960  -10.9070 C.2    30  VAL30       0.2260
     27  O        -12.0410   31.1920  -11.4120 O.2    30  VAL30      -0.2867
     28  CB       -10.2670   28.7320  -11.3500 C.3    30  VAL30       0.0252
     29  CG1       -9.8920   28.6340   -9.8840 C.3    30  VAL30       0.0019
     30  CG2       -9.7380   27.5330  -12.1050 C.3    30  VAL30       0.0019
     31  N        -10.3540   28.3990   -3.7700 N.3    44  ALA44      -0.1245
     32  CA       -10.4880   28.4500   -5.2100 C.3    44  ALA44       0.1562
     33  C        -11.2280   27.2100   -5.6250 C.2    44  ALA44       0.2260
     34  O        -10.8870   26.0880   -5.2030 O.2    44  ALA44      -0.2867
     35  CB        -9.1140   28.4680   -5.8600 C.3    44  ALA44       0.0290
     36  N        -12.5380   25.0440   -8.9220 N.3    46  LYS46      -0.1245
     37  CA       -12.4910   24.7770  -10.3380 C.3    46  LYS46       0.1561
     38  C        -13.7810   24.1080  -10.7470 C.2    46  LYS46       0.2260
     39  O        -14.0460   23.0100  -10.3460 O.2    46  LYS46      -0.2867
     40  CB       -11.3020   23.8720  -10.6670 C.3    46  LYS46       0.0271
     41  CG       -11.2310   23.4420  -12.1250 C.3    46  LYS46       0.0035
     42  CD        -9.8030   23.3660  -12.6420 C.3    46  LYS46       0.0206
     43  CE        -9.0890   22.1190  -12.1910 C.3    46  LYS46       0.1093
     44  NZ        -7.6560   22.1190  -12.6060 N.3    46  LYS46      -0.1314
     45  N         -7.2180   14.2570  -12.4720 N.3    61  GLU61      -0.1245
     46  CA        -6.5430   15.1980  -11.6050 C.3    61  GLU61       0.1567
     47  C         -6.8260   14.8820  -10.1380 C.2    61  GLU61       0.2260
     48  O         -5.9340   14.9800   -9.2990 O.2    61  GLU61      -0.2867
     49  CB        -6.9710   16.6360  -11.9260 C.3    61  GLU61       0.0388
     50  CG        -6.4180   17.6740  -10.9610 C.3    61  GLU61       0.1160
     51  CD        -6.5420   19.1080  -11.4700 C.2    61  GLU61       0.3649
     52  OE1       -7.6100   19.4420  -12.0430 O.co2  61  GLU61      -0.2457
     53  OE2       -5.5650   19.8980  -11.2960 O.co2  61  GLU61      -0.2457
     54  N         -0.0840   22.4020   -5.4350 N.3    80  VAL80      -0.1245
     55  CA        -1.3090   22.9610   -4.8260 C.3    80  VAL80       0.1561
     56  C         -2.1020   21.8800   -4.0830 C.2    80  VAL80       0.2260
     57  O         -2.1620   20.7360   -4.5290 O.2    80  VAL80      -0.2867
     58  CB        -2.1860   23.6320   -5.9050 C.3    80  VAL80       0.0252
     59  CG1       -2.7640   22.6000   -6.8680 C.3    80  VAL80       0.0019
     60  CG2       -3.2700   24.4560   -5.2660 C.3    80  VAL80       0.0019
     61  N         -9.6070   24.0140   -4.0760 N.3    96  PHE96      -0.1227
     62  CA        -8.1930   24.1640   -3.7910 C.3    96  PHE96       0.1736
     63  C         -7.9540   25.2820   -2.8130 C.2    96  PHE96       0.2595
     64  O         -8.7660   26.2100   -2.6970 O.2    96  PHE96      -0.2718
     65  CB        -7.4510   24.5350   -5.0750 C.3    96  PHE96       0.0547
     66  CG        -7.5470   23.5020   -6.1350 C.ar   96  PHE96      -0.0202
     67  CD1       -6.6740   22.4310   -6.1540 C.ar   96  PHE96      -0.0042
     68  CD2       -8.5230   23.5900   -7.1230 C.ar   96  PHE96      -0.0042
     69  CE1       -6.7560   21.4750   -7.1470 C.ar   96  PHE96      -0.0003
     70  CE2       -8.6060   22.6340   -8.1170 C.ar   96  PHE96      -0.0003
     71  CZ        -7.7130   21.5760   -8.1310 C.ar   96  PHE96      -0.0000
     72  N         -6.8060   25.2150   -2.1450 N.am   97  GLU97      -0.1965
     73  CA        -6.2990   26.3390   -1.3880 C.3    97  GLU97       0.1733
     74  C         -6.2540   27.5220   -2.3460 C.2    97  GLU97       0.2616
     75  O         -5.9700   27.3660   -3.5080 O.2    97  GLU97      -0.2715
     76  CB        -4.9120   26.0260   -0.8090 C.3    97  GLU97       0.0429
     77  CG        -3.8380   25.7240   -1.8770 C.3    97  GLU97       0.1163
     78  CD        -2.4450   25.3580   -1.3180 C.2    97  GLU97       0.3649
     79  OE1       -2.0590   25.8180   -0.2280 O.co2  97  GLU97      -0.2457
     80  OE2       -1.7280   24.6020   -1.9900 O.co2  97  GLU97      -0.2457
     81  N         -6.5300   28.7060   -1.8530 N.am   98  LEU98      -0.1963
     82  CA        -6.4900   29.8940   -2.6700 C.3    98  LEU98       0.1728
     83  C         -5.0720   30.4150   -2.7670 C.2    98  LEU98       0.2616
     84  O         -4.4510   30.6850   -1.7420 O.2    98  LEU98      -0.2715
     85  CB        -7.3500   30.9960   -2.0760 C.3    98  LEU98       0.0311
     86  CG        -7.3350   32.2910   -2.8660 C.3    98  LEU98       0.0022
     87  CD1       -8.0220   32.0400   -4.2100 C.3    98  LEU98       0.0001
     88  CD2       -8.0040   33.4380   -2.1270 C.3    98  LEU98       0.0001
     89  N         -4.6040   30.6640   -3.9980 N.am   99  LEU99      -0.1963
     90  CA        -3.2730   31.2200   -4.2010 C.3    99  LEU99       0.1728
     91  C         -3.3700   32.5990   -4.8210 C.2    99  LEU99       0.2616
     92  O         -4.4290   33.0960   -4.9810 O.2    99  LEU99      -0.2715
     93  CB        -2.4740   30.2920   -5.1030 C.3    99  LEU99       0.0311
     94  CG        -2.3200   28.8400   -4.6640 C.3    99  LEU99       0.0022
     95  CD1       -1.8860   27.9840   -5.8370 C.3    99  LEU99       0.0001
     96  CD2       -1.3230   28.7070   -3.5590 C.3    99  LEU99       0.0001
     97  N         -2.2210   33.2030   -5.1550 N.am  100  GLY100     -0.1955
     98  CA        -2.1510   34.5140   -5.8060 C.3   100  GLY100      0.1869
     99  C         -2.2470   34.3940   -7.3120 C.2   100  GLY100      0.2309
    100  O         -2.7050   33.3820   -7.8440 O.2   100  GLY100     -0.2863
    101  N          1.0120   30.1550  -16.8850 N.3   147  GLU147     -0.1231
    102  CA        -0.3610   30.1510  -16.2970 C.3   147  GLU147      0.1699
    103  C         -0.5160   29.1170  -15.1870 C.2   147  GLU147      0.2592
    104  O         -1.3030   29.3140  -14.2960 O.2   147  GLU147     -0.2718
    105  CB        -1.4670   29.8880  -17.3320 C.3   147  GLU147      0.0402
    106  CG        -1.6260   30.9330  -18.4200 C.3   147  GLU147      0.1161
    107  CD        -0.9520   30.5070  -19.7460 C.2   147  GLU147      0.3649
    108  OE1        0.3510   30.2880  -19.7870 O.co2 147  GLU147     -0.2457
    109  OE2       -1.7380   30.4080  -20.7440 O.co2 147  GLU147     -0.2457
    110  N          0.2490   28.0330  -15.2320 N.am  148  ASN148     -0.1974
    111  CA         0.1380   26.9540  -14.2570 C.3   148  ASN148      0.1688
    112  C          1.1690   26.9950  -13.1540 C.2   148  ASN148      0.2292
    113  O          1.2730   26.0550  -12.3680 O.2   148  ASN148     -0.2864
    114  CB         0.1920   25.6240  -14.9540 C.3   148  ASN148      0.1181
    115  CG        -1.0680   25.3220  -15.6740 C.2   148  ASN148      0.2629
    116  OD1       -2.1020   25.9190  -15.3840 O.2   148  ASN148     -0.2716
    117  ND2       -1.0180   24.4010  -16.6070 N.am  148  ASN148     -0.0877
    118  N          1.8800   29.5480   -9.9380 N.3   150  LEU150     -0.1245
    119  CA         1.1880   30.5850   -9.2360 C.3   150  LEU150      0.1561
    120  C          1.9850   31.0480   -8.0240 C.2   150  LEU150      0.2260
    121  O          2.5330   30.2450   -7.2890 O.2   150  LEU150     -0.2867
    122  CB        -0.1900   30.0830   -8.7990 C.3   150  LEU150      0.0270
    123  CG        -1.3520   30.3120   -9.7970 C.3   150  LEU150      0.0019
    124  CD1       -1.1340   29.5340  -11.0840 C.3   150  LEU150      0.0001
    125  CD2       -2.7050   29.9470   -9.1960 C.3   150  LEU150      0.0001
    126  N          0.2010   24.1780  -10.4070 N.3   179  VAL179     -0.1231
    127  CA        -1.1980   23.7370  -10.4750 C.3   179  VAL179      0.1692
    128  C         -1.4720   23.0020  -11.7550 C.2   179  VAL179      0.2592
    129  O         -0.6280   22.9400  -12.6480 O.2   179  VAL179     -0.2718
    130  CB        -2.2260   24.9110  -10.3850 C.3   179  VAL179      0.0266
    131  CG1       -2.0180   25.7020   -9.1120 C.3   179  VAL179      0.0020
    132  CG2       -2.1400   25.8110  -11.6080 C.3   179  VAL179      0.0020
    133  N         -2.6830   22.4490  -11.8080 N.am  180  ASP180     -0.1974
    134  CA        -3.2730   21.8210  -12.9780 C.3   180  ASP180      0.1709
    135  C         -2.6740   20.4900  -13.3200 C.2   180  ASP180      0.2293
    136  O         -1.8230   20.4080  -14.1820 O.2   180  ASP180     -0.2864
    137  CB        -3.2840   22.7290  -14.2090 C.3   180  ASP180      0.1436
    138  CG        -4.2640   22.2310  -15.2930 C.2   180  ASP180      0.3671
    139  OD1       -4.8380   21.1230  -15.1580 O.co2 180  ASP180     -0.2456
    140  OD2       -4.4510   22.9510  -16.2930 O.co2 180  ASP180     -0.2456
@<TRIPOS>BOND
     1   109   107   ar
     2    13    14    1
     3   108   107   ar
     4   107   106    1
     5    14    15    1
     6    14    17    1
     7    15    16    2
     8    17    18    1
     9   106   105    1
    10    20    18   ar
    11    20    22   ar
    12    18    19   ar
    13   105   102    1
    14    22    23   ar
    15   101   102    1
    16   117   115   am
    17    19    21   ar
    18   102   103    1
    19   140   138   ar
    20    23    21   ar
    21   115   116    2
    22   115   114    1
    23    11    12    2
    24    11    10    1
    25   138   139   ar
    26   138   137    1
    27   110   103   am
    28   110   111    1
    29   103   104    2
    30   114   111    1
    31    10     9    1
    32   111   112    1
    33   137   134    1
    34   136   135    2
    35   135   134    1
    36     9     3   am
    37   112   113    2
    38   134   133    1
    39    24    25    1
    40     4     3    2
    41   129   128    2
    42    42    43    1
    43    42    41    1
    44    44    43    1
    45     3     2    1
    46    45    46    1
    47    41    40    1
    48    30    28    1
    49    52    51   ar
    50    49    46    1
    51    49    50    1
    52   133   128   am
    53   128   127    1
    54   132   130    1
    55    46    47    1
    56    25    28    1
    57    25    26    1
    58    51    53   ar
    59    51    50    1
    60    27    26    2
    61    28    29    1
    62     1     2    1
    63     2     5    1
    64   124   123    1
    65    38    39    2
    66    38    37    1
    67    40    37    1
    68   127   126    1
    69   127   130    1
    70   130   131    1
    71    37    36    1
    72     5     6    1
    73    47    48    2
    74   118   119    1
    75   123   125    1
    76   123   122    1
    77   119   122    1
    78   119   120    1
    79     6     8    1
    80     6     7    1
    81    71    70   ar
    82    71    69   ar
    83    70    68   ar
    84   120   121    2
    85   100    99    2
    86    99    98    1
    87    69    67   ar
    88    68    66   ar
    89    59    58    1
    90    67    66   ar
    91    66    65    1
    92    58    60    1
    93    58    55    1
    94    35    32    1
    95    95    94    1
    96    98    97    1
    97    33    32    1
    98    33    34    2
    99    54    55    1
   100    32    31    1
   101    97    91   am
   102    93    94    1
   103    93    90    1
   104    65    62    1
   105    92    91    2
   106    55    56    1
   107    91    90    1
   108    94    96    1
   109    57    56    2
   110    87    86    1
   111    90    89    1
   112    61    62    1
   113    89    83   am
   114    62    63    1
   115    75    74    2
   116    86    88    1
   117    86    85    1
   118    63    64    2
   119    63    72   am
   120    83    82    1
   121    83    84    2
   122    82    85    1
   123    82    81    1
   124    74    81   am
   125    74    73    1
   126    72    73    1
   127    80    78   ar
   128    77    78    1
   129    77    76    1
   130    73    76    1
   131    78    79   ar
