@<TRIPOS>MOLECULE
tmp/5j20A00.pdb
 166 155 0 0 0
SMALL
GASTEIGER

@<TRIPOS>ATOM
      1  N         -0.8480   32.5620   32.6200 N.3    33  LEU33      -0.1245
      2  CA        -1.3720   31.9790   31.3730 C.3    33  LEU33       0.1561
      3  C         -2.6960   32.6460   30.9850 C.2    33  LEU33       0.2260
      4  O         -2.8720   33.0380   29.8270 O.2    33  LEU33      -0.2867
      5  CB        -1.5460   30.4580   31.5520 C.3    33  LEU33       0.0270
      6  CG        -0.2410   29.6830   31.7780 C.3    33  LEU33       0.0019
      7  CD1       -0.5200   28.2560   31.9950 C.3    33  LEU33       0.0001
      8  CD2        0.7350   29.9040   30.6370 C.3    33  LEU33       0.0001
      9  N         -1.8630   36.0810   29.5600 N.3    36  ASN36      -0.1225
     10  CA        -1.3370   36.0230   28.1890 C.3    36  ASN36       0.1785
     11  C         -2.4510   35.7630   27.2250 C.2    36  ASN36       0.2597
     12  O         -2.5170   36.3950   26.1810 O.2    36  ASN36      -0.2718
     13  CB        -0.2200   35.0000   28.0640 C.3    36  ASN36       0.1169
     14  CG         1.0890   35.4830   28.6700 C.2    36  ASN36       0.2627
     15  OD1        1.1520   36.4950   29.3650 O.2    36  ASN36      -0.2716
     16  ND2        2.1330   34.7290   28.4820 N.am   36  ASN36      -0.0877
     17  N         -3.3640   34.8900   27.6000 N.am   37  SER37      -0.1952
     18  CA        -4.5280   34.5890   26.7530 C.3    37  SER37       0.1924
     19  C         -5.3790   35.8710   26.5520 C.2    37  SER37       0.2314
     20  O         -5.7380   36.2070   25.4230 O.2    37  SER37      -0.2863
     21  CB        -5.3930   33.5020   27.3800 C.3    37  SER37       0.2116
     22  OG        -4.8020   32.2150   27.3520 O.3    37  SER37      -0.2180
     23  N         -4.3910   39.0120   26.7170 N.3    39  ASP39      -0.1225
     24  CA        -3.6260   39.8820   25.8060 C.3    39  ASP39       0.1805
     25  C         -3.7760   39.4200   24.3320 C.2    39  ASP39       0.2597
     26  O         -3.9850   40.2440   23.4440 O.2    39  ASP39      -0.2718
     27  CB        -2.1580   39.9090   26.1970 C.3    39  ASP39       0.1424
     28  CG        -1.8660   40.5890   27.5410 C.2    39  ASP39       0.3668
     29  OD1       -2.7840   41.2320   28.0970 O.co2  39  ASP39      -0.2456
     30  OD2       -0.7270   40.4660   28.0290 O.co2  39  ASP39      -0.2456
     31  N         -3.7030   38.1000   24.0670 N.am   40  ALA40      -0.1979
     32  CA        -3.8720   37.5790   22.7090 C.3    40  ALA40       0.1597
     33  C         -5.2930   37.8690   22.1550 C.2    40  ALA40       0.2287
     34  O         -5.4630   38.1180   20.9360 O.2    40  ALA40      -0.2864
     35  CB        -3.5660   36.0920   22.6570 C.3    40  ALA40       0.0319
     36  N         -5.5030   41.5970   21.2250 N.3    43  LYS43      -0.1245
     37  CA        -4.7950   41.8030   19.9520 C.3    43  LYS43       0.1561
     38  C         -5.6780   41.4550   18.7320 C.2    43  LYS43       0.2260
     39  O         -5.8310   42.3060   17.8580 O.2    43  LYS43      -0.2867
     40  CB        -3.4740   41.0230   19.9170 C.3    43  LYS43       0.0271
     41  CG        -2.3790   41.5600   20.8610 C.3    43  LYS43       0.0035
     42  CD        -1.2310   40.5350   20.8760 C.3    43  LYS43       0.0206
     43  CE        -0.1480   40.8100   21.8650 C.3    43  LYS43       0.1093
     44  NZ         0.9200   39.7940   21.7600 N.3    43  LYS43      -0.1314
     45  N         -7.4300   29.4300   24.2660 N.3    78  ASP78      -0.1239
     46  CA        -7.9650   30.7370   23.9330 C.3    78  ASP78       0.1674
     47  C         -8.1400   30.8350   22.4050 C.2    78  ASP78       0.2266
     48  O         -7.4320   30.1570   21.6420 O.2    78  ASP78      -0.2867
     49  CB        -7.1020   31.8840   24.5340 C.3    78  ASP78       0.1410
     50  CG        -5.7450   32.0620   23.8760 C.2    78  ASP78       0.3668
     51  OD1       -5.7050   32.4030   22.6590 O.co2  78  ASP78      -0.2456
     52  OD2       -4.7340   31.9220   24.5760 O.co2  78  ASP78      -0.2456
     53  N         -5.1750   35.8500   18.9510 N.3    81  ILE81      -0.1231
     54  CA        -4.4940   36.0600   17.6910 C.3    81  ILE81       0.1692
     55  C         -3.5870   34.8750   17.2840 C.2    81  ILE81       0.2593
     56  O         -3.2960   34.7560   16.1030 O.2    81  ILE81      -0.2718
     57  CB        -3.7400   37.4140   17.7290 C.3    81  ILE81       0.0266
     58  CG1       -3.3850   37.9140   16.3120 C.3    81  ILE81       0.0019
     59  CG2       -2.5010   37.3490   18.6260 C.3    81  ILE81       0.0020
     60  CD1       -3.0940   39.3340   16.2310 C.3    81  ILE81       0.0001
     61  N         -3.1470   34.0410   18.2410 N.am   82  GLY82      -0.1942
     62  CA        -2.2470   32.9170   17.9560 C.3    82  GLY82       0.2014
     63  C         -0.8280   33.3800   17.6830 C.2    82  GLY82       0.2638
     64  O         -0.5110   34.5570   17.8240 O.2    82  GLY82      -0.2714
     65  N          0.0510   32.4560   17.3240 N.am   83  MET83      -0.1976
     66  CA         1.4430   32.7680   17.0800 C.3    83  MET83       0.1605
     67  C          1.9160   32.1160   15.7900 C.2    83  MET83       0.2287
     68  O          1.5240   30.9900   15.4550 O.2    83  MET83      -0.2864
     69  CB         2.3060   32.2910   18.2580 C.3    83  MET83       0.0413
     70  CG         2.0460   33.0740   19.5520 C.3    83  MET83       0.0598
     71  SD         2.8510   32.3520   21.0080 S.3    83  MET83      -0.1393
     72  CE         1.7670   30.9770   21.3110 C.3    83  MET83       0.0692
     73  N          7.3200   33.6070   15.7490 N.3    87  ASP87      -0.1225
     74  CA         7.0080   33.9310   17.1550 C.3    87  ASP87       0.1805
     75  C          7.5290   32.8300   18.0750 C.2    87  ASP87       0.2597
     76  O          8.2430   33.1130   19.0430 O.2    87  ASP87      -0.2718
     77  CB         5.4980   34.0630   17.3890 C.3    87  ASP87       0.1424
     78  CG         4.8650   35.3300   16.8680 C.2    87  ASP87       0.3668
     79  OD1        5.5780   36.3310   16.7480 O.co2  87  ASP87      -0.2456
     80  OD2        3.6560   35.2870   16.5100 O.co2  87  ASP87      -0.2456
     81  N          7.1790   31.5890   17.7570 N.am   88  LEU88      -0.1979
     82  CA         7.5650   30.4110   18.5160 C.3    88  LEU88       0.1596
     83  C          9.0570   30.1850   18.6050 C.2    88  LEU88       0.2287
     84  O          9.5450   29.8220   19.6840 O.2    88  LEU88      -0.2864
     85  CB         6.9050   29.1480   17.9440 C.3    88  LEU88       0.0297
     86  CG         5.3890   29.0280   18.0570 C.3    88  LEU88       0.0022
     87  CD1        4.9370   27.7850   17.2750 C.3    88  LEU88       0.0001
     88  CD2        4.9300   28.9260   19.5390 C.3    88  LEU88       0.0001
     89  N          9.4010   35.9590   20.2010 N.3    92  LEU92      -0.1245
     90  CA         8.9570   36.1610   21.5880 C.3    92  LEU92       0.1561
     91  C         10.1390   36.0510   22.5710 C.2    92  LEU92       0.2260
     92  O         10.2580   36.8890   23.4590 O.2    92  LEU92      -0.2867
     93  CB         7.8090   35.2150   21.9640 C.3    92  LEU92       0.0270
     94  CG         6.5360   35.4150   21.1280 C.3    92  LEU92       0.0019
     95  CD1        5.5140   34.4010   21.4830 C.3    92  LEU92       0.0001
     96  CD2        5.9690   36.8210   21.2890 C.3    92  LEU92       0.0001
     97  N         12.2070   39.4260   22.4080 N.3    95  ILE95      -0.1245
     98  CA        11.6520   40.5290   23.1960 C.3    95  ILE95       0.1561
     99  C         11.7190   40.2680   24.7090 C.2    95  ILE95       0.2260
    100  O         11.7610   41.2320   25.4660 O.2    95  ILE95      -0.2867
    101  CB        10.2280   40.9680   22.7640 C.3    95  ILE95       0.0252
    102  CG1        9.1970   39.8680   22.9750 C.3    95  ILE95       0.0019
    103  CG2       10.2230   41.4680   21.3050 C.3    95  ILE95       0.0019
    104  CD1        7.7160   40.3890   22.9900 C.3    95  ILE95       0.0001
    105  N          7.2830   40.4630   32.3510 N.3   120  GLY120     -0.1225
    106  CA         6.8330   39.9670   31.0500 C.3   120  GLY120      0.1811
    107  C          7.1920   38.5300   30.6940 C.2   120  GLY120      0.2280
    108  O          6.9360   38.1060   29.5700 O.2   120  GLY120     -0.2866
    109  N          4.8990   33.3530   31.5770 N.3   123  PHE123     -0.1227
    110  CA         4.6570   32.0120   31.0130 C.3   123  PHE123      0.1736
    111  C          5.5290   30.9130   31.6590 C.2   123  PHE123      0.2595
    112  O          5.0300   29.8200   31.9250 O.2   123  PHE123     -0.2718
    113  CB         4.9240   32.0050   29.5040 C.3   123  PHE123      0.0547
    114  CG         5.0000   30.5900   28.9950 C.ar  123  PHE123     -0.0202
    115  CD1        3.8640   29.8010   28.9260 C.ar  123  PHE123     -0.0042
    116  CD2        6.2270   29.9980   28.7170 C.ar  123  PHE123     -0.0042
    117  CE1        3.9440   28.4570   28.5350 C.ar  123  PHE123     -0.0003
    118  CE2        6.2940   28.6910   28.2340 C.ar  123  PHE123     -0.0003
    119  CZ         5.1520   27.9270   28.1460 C.ar  123  PHE123     -0.0000
    120  N          6.8190   31.2140   31.9050 N.am  124  TYR124     -0.1976
    121  CA         7.7730   30.2300   32.4290 C.3   124  TYR124      0.1639
    122  C          7.4520   29.7280   33.8520 C.2   124  TYR124      0.2290
    123  O          7.9470   28.6660   34.2260 O.2   124  TYR124     -0.2864
    124  CB         9.2110   30.7430   32.3080 C.3   124  TYR124      0.0560
    125  CG         9.5630   30.9700   30.8550 C.ar  124  TYR124     -0.0198
    126  CD1        9.7920   29.9010   29.9990 C.ar  124  TYR124     -0.0009
    127  CD2        9.5320   32.2440   30.3050 C.ar  124  TYR124     -0.0009
    128  CE1       10.0430   30.1000   28.6390 C.ar  124  TYR124      0.0417
    129  CE2        9.7150   32.4500   28.9390 C.ar  124  TYR124      0.0417
    130  CZ        10.0140   31.3780   28.1150 C.ar  124  TYR124      0.1957
    131  OH        10.2090   31.5660   26.7630 O.3   124  TYR124     -0.2866
    132  N          2.2960   23.4130   23.3550 N.3   135  VAL135     -0.1245
    133  CA         1.5430   24.5920   22.9350 C.3   135  VAL135      0.1561
    134  C          1.1330   24.3370   21.4820 C.2   135  VAL135      0.2260
    135  O          2.0060   24.1680   20.6230 O.2   135  VAL135     -0.2867
    136  CB         2.3930   25.8880   23.0330 C.3   135  VAL135      0.0252
    137  CG1        1.6900   27.0800   22.4070 C.3   135  VAL135      0.0019
    138  CG2        2.8100   26.1800   24.4690 C.3   135  VAL135      0.0019
    139  N          4.4700   23.4490   19.5600 N.3   147  TRP147     -0.1241
    140  CA         5.7240   23.7620   20.2790 C.3   147  TRP147      0.1605
    141  C          5.6890   22.9030   21.5350 C.2   147  TRP147      0.2264
    142  O          4.6100   22.6870   22.0950 O.2   147  TRP147     -0.2867
    143  CB         5.7780   25.2400   20.6250 C.3   147  TRP147      0.0550
    144  CG         6.9190   25.6980   21.4860 C.ar  147  TRP147      0.0003
    145  CD1        7.9770   26.4540   21.0820 C.ar  147  TRP147      0.0946
    146  CD2        6.9630   25.6880   22.9220 C.ar  147  TRP147      0.0152
    147  NE1        8.7340   26.8250   22.1660 N.ar  147  TRP147     -0.2442
    148  CE2        8.1480   26.3480   23.3060 C.ar  147  TRP147      0.0810
    149  CE3        6.1660   25.0960   23.9220 C.ar  147  TRP147      0.0012
    150  CZ2        8.5200   26.4940   24.6410 C.ar  147  TRP147      0.0191
    151  CZ3        6.5660   25.2020   25.2510 C.ar  147  TRP147      0.0001
    152  CH2        7.7380   25.8780   25.5940 C.ar  147  TRP147      0.0015
    153  N         -4.6260   29.7000   20.6580 N.3   169  THR169     -0.1218
    154  CA        -3.5480   28.9450   21.3170 C.3   169  THR169      0.1862
    155  C         -4.1130   28.0470   22.3860 C.2   169  THR169      0.2287
    156  O         -4.9700   28.4700   23.1770 O.2   169  THR169     -0.2866
    157  CB        -2.5110   29.9260   21.9350 C.3   169  THR169      0.1770
    158  OG1       -1.9410   30.7230   20.9030 O.3   169  THR169     -0.2211
    159  CG2       -1.3560   29.2060   22.6930 C.3   169  THR169      0.0375
    160  N         -2.5680   25.6530   25.5010 N.3   171  VAL171     -0.1245
    161  CA        -1.4020   25.3490   26.3280 C.3   171  VAL171      0.1561
    162  C         -1.7840   24.1250   27.1330 C.2   171  VAL171      0.2260
    163  O         -2.6960   24.2160   27.9570 O.2   171  VAL171     -0.2867
    164  CB        -1.0100   26.5270   27.2550 C.3   171  VAL171      0.0252
    165  CG1        0.1710   26.1600   28.1420 C.3   171  VAL171      0.0019
    166  CG2       -0.7030   27.7770   26.4420 C.3   171  VAL171      0.0019
@<TRIPOS>BOND
     1    68    67    2
     2    73    74    1
     3    67    66    1
     4    56    55    2
     5    60    58    1
     6    58    57    1
     7    80    78   ar
     8    79    78   ar
     9    78    77    1
    10    66    65    1
    11    66    69    1
    12    74    77    1
    13    74    75    1
    14    87    86    1
    15    55    54    1
    16    55    61   am
    17    65    63   am
    18    63    64    2
    19    63    62    1
    20    54    57    1
    21    54    53    1
    22    57    59    1
    23    81    75   am
    24    81    82    1
    25    39    38    2
    26    85    86    1
    27    85    82    1
    28    62    61    1
    29    86    88    1
    30    75    76    2
    31    69    70    1
    32    82    83    1
    33    83    84    2
    34    38    37    1
    35    70    71    1
    36   139   140    1
    37    40    37    1
    38    40    41    1
    39    37    36    1
    40    89    90    1
    41   140   143    1
    42   140   141    1
    43   135   134    2
    44   143   144    1
    45   153   154    1
    46    41    42    1
    47    42    43    1
    48   158   157    1
    49    34    33    2
    50    71    72    1
    51   145   144   ar
    52   145   147   ar
    53    94    96    1
    54    94    95    1
    55    94    93    1
    56   103   101    1
    57   154   157    1
    58   154   155    1
    59   134   133    1
    60   144   146   ar
    61   141   142    2
    62    90    93    1
    63    90    91    1
    64    48    47    2
    65    44    43    1
    66   157   159    1
    67    33    32    1
    68   147   148   ar
    69   155   156    2
    70    47    46    1
    71   137   136    1
    72    97    98    1
    73    91    92    2
    74    35    32    1
    75    51    50   ar
    76    32    31    1
    77   101   102    1
    78   101    98    1
    79   146   148   ar
    80   146   149   ar
    81   133   136    1
    82   133   132    1
    83   102   104    1
    84   136   138    1
    85    98    99    1
    86   148   150   ar
    87    26    25    2
    88    50    49    1
    89    50    52   ar
    90   149   151   ar
    91    46    45    1
    92    46    49    1
    93    31    25   am
    94    25    24    1
    95   150   152   ar
    96    99   100    2
    97   151   152   ar
    98    20    19    2
    99   160   161    1
   100    24    27    1
   101    24    23    1
   102    12    11    2
   103    27    28    1
   104   161   162    1
   105   161   164    1
   106   166   164    1
   107    19    18    1
   108    18    21    1
   109    18    17    1
   110   131   130    1
   111   162   163    2
   112    11    17   am
   113    11    10    1
   114   164   165    1
   115    22    21    1
   116    28    30   ar
   117    28    29   ar
   118    13    10    1
   119    13    14    1
   120   130   128   ar
   121   130   129   ar
   122   119   118   ar
   123   119   117   ar
   124    10     9    1
   125   118   116   ar
   126    16    14   am
   127   117   115   ar
   128   128   126   ar
   129    14    15    2
   130   116   114   ar
   131   115   114   ar
   132   129   127   ar
   133   114   113    1
   134   113   110    1
   135   108   107    2
   136     4     3    2
   137   126   125   ar
   138   127   125   ar
   139     8     6    1
   140   107   106    1
   141   125   124    1
   142     3     2    1
   143   110   109    1
   144   110   111    1
   145   106   105    1
   146     2     5    1
   147     2     1    1
   148     5     6    1
   149   111   120   am
   150   111   112    2
   151     6     7    1
   152   120   121    1
   153   124   121    1
   154   121   122    1
   155   122   123    2
