@<TRIPOS>MOLECULE
tmp/5j23B00.pdb
 204 198 0 0 0
SMALL
GASTEIGER

@<TRIPOS>ATOM
      1  N         60.0550   67.3000  108.7270 N.3    70  VAL70      -0.1231
      2  CA        58.8620   67.0600  109.5250 C.3    70  VAL70       0.1692
      3  C         59.2310   66.9430  110.9950 C.2    70  VAL70       0.2592
      4  O         58.4820   67.3880  111.8620 O.2    70  VAL70      -0.2718
      5  CB        57.9910   65.8900  109.0090 C.3    70  VAL70       0.0266
      6  CG1       58.6600   64.5350  109.1780 C.3    70  VAL70       0.0020
      7  CG2       56.6220   65.9250  109.7230 C.3    70  VAL70       0.0020
      8  N         60.3870   66.3470  111.2500 N.am   71  GLY71      -0.1957
      9  CA        60.9630   66.2600  112.5830 C.3    71  GLY71       0.1869
     10  C         61.6440   67.5560  112.9580 C.2    71  GLY71       0.2309
     11  O         62.3890   68.1100  112.1620 O.2    71  GLY71      -0.2863
     12  N         63.0460   67.9280  116.2630 N.3    73  ASP73      -0.1239
     13  CA        63.7090   67.6250  117.5390 C.3    73  ASP73       0.1674
     14  C         65.0650   68.3460  117.7470 C.2    73  ASP73       0.2266
     15  O         65.5260   68.4570  118.8630 O.2    73  ASP73      -0.2867
     16  CB        63.7740   66.0900  117.7870 C.3    73  ASP73       0.1410
     17  CG        64.3020   65.2660  116.5810 C.2    73  ASP73       0.3668
     18  OD1       63.6730   65.2450  115.4980 O.co2  73  ASP73      -0.2456
     19  OD2       65.3080   64.5420  116.7410 O.co2  73  ASP73      -0.2456
     20  N         56.1710   65.4730  102.2690 N.3    94  LEU94      -0.1231
     21  CA        57.0910   64.3650  102.2200 C.3    94  LEU94       0.1693
     22  C         56.4820   63.0210  102.6230 C.2    94  LEU94       0.2592
     23  O         57.1570   62.0200  102.6470 O.2    94  LEU94      -0.2718
     24  CB        58.3090   64.6570  103.1140 C.3    94  LEU94       0.0284
     25  CG        58.0670   65.1500  104.5470 C.3    94  LEU94       0.0019
     26  CD1       57.1340   64.2490  105.3550 C.3    94  LEU94       0.0001
     27  CD2       59.3850   65.2860  105.2780 C.3    94  LEU94       0.0001
     28  N         55.2120   62.9940  102.9740 N.am   95  THR95      -0.1953
     29  CA        54.6010   61.7920  103.5310 C.3    95  THR95       0.1897
     30  C         54.7110   60.5780  102.5970 C.2    95  THR95       0.2313
     31  O         55.0690   59.4970  103.0380 O.2    95  THR95      -0.2863
     32  CB        53.1180   62.0970  103.8550 C.3    95  THR95       0.1794
     33  OG1       53.0740   63.1490  104.8360 O.3    95  THR95      -0.2208
     34  CG2       52.3650   60.8740  104.3910 C.3    95  THR95       0.0378
     35  N         58.4760   59.3970  102.0470 N.3    98  VAL98      -0.1245
     36  CA        58.9850   58.6520  103.2080 C.3    98  VAL98       0.1561
     37  C         58.3620   57.2220  103.2440 C.2    98  VAL98       0.2260
     38  O         59.0250   56.2490  103.6010 O.2    98  VAL98      -0.2867
     39  CB        58.7240   59.4350  104.5130 C.3    98  VAL98       0.0252
     40  CG1       59.0520   58.5960  105.7430 C.3    98  VAL98       0.0019
     41  CG2       59.5510   60.7230  104.5690 C.3    98  VAL98       0.0019
     42  N         54.6170   50.7640  114.5840 N.3   146  PHE146     -0.1227
     43  CA        54.7990   51.4410  115.8420 C.3   146  PHE146      0.1736
     44  C         54.7160   52.9060  115.4870 C.2   146  PHE146      0.2596
     45  O         55.6340   53.4620  114.8750 O.2   146  PHE146     -0.2718
     46  CB        56.1390   51.0830  116.4780 C.3   146  PHE146      0.0547
     47  CG        56.4370   51.8090  117.7570 C.ar  146  PHE146     -0.0202
     48  CD1       55.4060   52.2740  118.6040 C.ar  146  PHE146     -0.0042
     49  CD2       57.7410   52.0020  118.1530 C.ar  146  PHE146     -0.0042
     50  CE1       55.7030   52.9200  119.7830 C.ar  146  PHE146     -0.0003
     51  CE2       58.0380   52.6730  119.3370 C.ar  146  PHE146     -0.0003
     52  CZ        57.0150   53.1180  120.1600 C.ar  146  PHE146     -0.0000
     53  N         53.5690   53.4970  115.8110 N.am  147  GLY147     -0.1942
     54  CA        53.2040   54.8170  115.3100 C.3   147  GLY147      0.2014
     55  C         52.3190   54.6560  114.0710 C.2   147  GLY147      0.2639
     56  O         52.5500   53.7510  113.2380 O.2   147  GLY147     -0.2714
     57  N         51.3480   55.5650  113.9070 N.am  148  LEU148     -0.1963
     58  CA        50.3890   55.4680  112.7900 C.3   148  LEU148      0.1728
     59  C         49.7890   56.8100  112.3900 C.2   148  LEU148      0.2617
     60  O         48.5870   56.9170  112.2230 O.2   148  LEU148     -0.2715
     61  CB        49.2740   54.4600  113.1170 C.3   148  LEU148      0.0311
     62  CG        48.4760   53.9980  111.8830 C.3   148  LEU148      0.0022
     63  CD1       49.2240   52.9010  111.1560 C.3   148  LEU148      0.0001
     64  CD2       47.0710   53.5270  112.2230 C.3   148  LEU148      0.0001
     65  N         50.6370   57.8110  112.1930 N.am  149  GLY149     -0.1940
     66  CA        50.1640   59.1510  111.8580 C.3   149  GLY149      0.2014
     67  C         50.0040   59.2360  110.3560 C.2   149  GLY149      0.2639
     68  O         49.5620   58.2980  109.7290 O.2   149  GLY149     -0.2714
     69  N         50.3840   60.3700  109.7880 N.am  150  ARG150     -0.1963
     70  CA        50.2550   60.5690  108.3430 C.3   150  ARG150      0.1729
     71  C         51.1190   59.5330  107.5880 C.2   150  ARG150      0.2616
     72  O         50.6800   58.9330  106.6380 O.2   150  ARG150     -0.2715
     73  CB        50.6830   61.9850  107.9100 C.3   150  ARG150      0.0348
     74  CG        50.2590   63.1840  108.7670 C.3   150  ARG150      0.0492
     75  CD        51.2980   64.3160  108.6100 C.3   150  ARG150      0.2205
     76  NE        51.0580   65.4760  109.4530 N.pl3 150  ARG150     -0.0865
     77  CZ        51.8540   65.9330  110.4400 C.cat 150  ARG150      0.5346
     78  NH1       53.0040   65.3240  110.7880 N.pl3 150  ARG150      0.1354
     79  NH2       51.4880   67.0450  111.1080 N.pl3 150  ARG150      0.1354
     80  N         52.3510   59.3460  108.0500 N.am  151  ILE151     -0.1963
     81  CA        53.3230   58.4860  107.3940 C.3   151  ILE151      0.1727
     82  C         52.9890   57.0100  107.6630 C.2   151  ILE151      0.2616
     83  O         52.9230   56.2050  106.7390 O.2   151  ILE151     -0.2715
     84  CB        54.7770   58.8590  107.7780 C.3   151  ILE151      0.0290
     85  CG1       55.1010   60.3190  107.3560 C.3   151  ILE151      0.0022
     86  CG2       55.7480   57.8940  107.1120 C.3   151  ILE151      0.0023
     87  CD1       56.4190   60.9440  107.8910 C.3   151  ILE151      0.0001
     88  N         52.7760   56.6700  108.9280 N.am  152  GLY152     -0.1955
     89  CA        52.3620   55.3300  109.3230 C.3   152  GLY152      0.1869
     90  C         51.1760   54.8640  108.5240 C.2   152  GLY152      0.2309
     91  O         51.1440   53.7460  107.9880 O.2   152  GLY152     -0.2863
     92  N         50.4430   49.9970  116.9180 N.3   169  HIS169     -0.1226
     93  CA        50.4980   50.4780  118.2970 C.3   169  HIS169      0.1752
     94  C         50.7080   51.9880  118.3660 C.2   169  HIS169      0.2597
     95  O         51.6830   52.5230  117.8220 O.2   169  HIS169     -0.2718
     96  CB        51.6020   49.8000  119.1110 C.3   169  HIS169      0.0759
     97  CG        51.7970   50.4230  120.4610 C.ar  169  HIS169      0.0818
     98  ND1       50.8090   50.4420  121.4250 N.ar  169  HIS169     -0.2268
     99  CD2       52.8400   51.1080  120.9820 C.ar  169  HIS169      0.1154
    100  CE1       51.2530   51.0820  122.4960 C.ar  169  HIS169      0.1986
    101  NE2       52.4840   51.4960  122.2530 N.ar  169  HIS169     -0.2212
    102  N         49.7900   52.6320  119.0980 N.am  170  THR170     -0.1939
    103  CA        49.7940   54.0740  119.4200 C.3   170  THR170      0.2028
    104  C         49.2920   54.2190  120.8540 C.2   170  THR170      0.2642
    105  O         48.7280   53.2670  121.3950 O.2   170  THR170     -0.2714
    106  CB        48.8730   54.8990  118.4960 C.3   170  THR170      0.1808
    107  OG1       47.6300   54.2260  118.3500 O.3   170  THR170     -0.2208
    108  CG2       49.4870   55.0970  117.1420 C.3   170  THR170      0.0379
    109  N         49.4900   55.3960  121.4640 N.am  171  ARG171     -0.1963
    110  CA        49.0730   55.6160  122.8650 C.3   171  ARG171      0.1729
    111  C         47.5700   55.5140  122.9920 C.2   171  ARG171      0.2616
    112  O         47.0670   54.8450  123.8930 O.2   171  ARG171     -0.2715
    113  CB        49.5260   56.9700  123.4190 C.3   171  ARG171      0.0348
    114  CG        50.9850   57.0130  123.8420 C.3   171  ARG171      0.0492
    115  CD        51.4940   58.4400  124.0140 C.3   171  ARG171      0.2205
    116  NE        51.4800   59.2030  122.7570 N.pl3 171  ARG171     -0.0865
    117  CZ        51.9960   60.4210  122.5870 C.cat 171  ARG171      0.5346
    118  NH1       52.5970   61.0550  123.5930 N.pl3 171  ARG171      0.1354
    119  NH2       51.9240   61.0060  121.3880 N.pl3 171  ARG171      0.1354
    120  N         46.8740   56.1800  122.0800 N.am  172  THR172     -0.1951
    121  CA        45.4390   56.0320  121.9710 C.3   172  THR172      0.1897
    122  C         45.0890   55.5100  120.5740 C.2   172  THR172      0.2313
    123  O         45.7200   55.9000  119.5720 O.2   172  THR172     -0.2863
    124  CB        44.6660   57.3360  122.2870 C.3   172  THR172      0.1794
    125  OG1       45.0360   58.3600  121.3540 O.3   172  THR172     -0.2208
    126  CG2       44.9580   57.8000  123.7180 C.3   172  THR172      0.0378
    127  N         57.9120   54.1440  113.2390 N.3   198  ILE198     -0.1231
    128  CA        57.6030   55.4120  112.5500 C.3   198  ILE198      0.1692
    129  C         56.9480   56.3870  113.5400 C.2   198  ILE198      0.2592
    130  O         55.8320   56.8780  113.3400 O.2   198  ILE198     -0.2718
    131  CB        56.7640   55.1610  111.2660 C.3   198  ILE198      0.0266
    132  CG1       56.5280   56.4410  110.4320 C.3   198  ILE198      0.0019
    133  CG2       55.4400   54.4920  111.5930 C.3   198  ILE198      0.0020
    134  CD1       57.7670   57.2300  110.0130 C.3   198  ILE198      0.0001
    135  N         57.6680   56.6680  114.6110 N.am  199  VAL199     -0.1966
    136  CA        57.1970   57.5830  115.6520 C.3   199  VAL199      0.1712
    137  C         58.1370   58.7630  115.7460 C.2   199  VAL199      0.2458
    138  O         59.2870   58.6520  115.3090 O.2   199  VAL199     -0.2730
    139  CB        57.0990   56.9240  117.0520 C.3   199  VAL199      0.0289
    140  CG1       56.0110   55.8820  117.0730 C.3   199  VAL199      0.0023
    141  CG2       58.4230   56.3320  117.5130 C.3   199  VAL199      0.0023
    142  N         57.6660   59.8950  116.3180 N.am  200  PRO200     -0.2716
    143  CA        58.5920   61.0020  116.6230 C.3   200  PRO200      0.1536
    144  C         59.6770   60.6640  117.6740 C.2   200  PRO200      0.2599
    145  O         59.4830   59.7640  118.5210 O.2   200  PRO200     -0.2715
    146  CB        57.6700   62.1200  117.1500 C.3   200  PRO200      0.0310
    147  CG        56.2870   61.7200  116.7570 C.3   200  PRO200      0.0237
    148  CD        56.2830   60.2240  116.6840 C.3   200  PRO200      0.0939
    149  N         60.8120   61.3700  117.5770 N.am  201  GLY201     -0.1941
    150  CA        61.9090   61.2790  118.5450 C.3   201  GLY201      0.2014
    151  C         61.6210   62.1020  119.7910 C.2   201  GLY201      0.2639
    152  O         62.1720   63.1940  119.9650 O.2   201  GLY201     -0.2714
    153  N         60.7370   61.5770  120.6410 N.am  202  THR202     -0.1950
    154  CA        60.3840   62.1970  121.9250 C.3   202  THR202      0.1897
    155  C         60.9520   61.3970  123.1040 C.2   202  THR202      0.2313
    156  O         61.4900   60.2810  122.9390 O.2   202  THR202     -0.2863
    157  CB        58.8520   62.3650  122.1000 C.3   202  THR202      0.1794
    158  OG1       58.1880   61.0950  121.9910 O.3   202  THR202     -0.2208
    159  CG2       58.2860   63.3540  121.0600 C.3   202  THR202      0.0378
    160  N         59.0960   60.1110  125.3850 N.3   204  SER204     -0.1202
    161  CA        58.1690   58.9900  125.5590 C.3   204  SER204      0.2020
    162  C         58.5850   57.7380  124.7900 C.2   204  SER204      0.2619
    163  O         58.3680   56.6190  125.2680 O.2   204  SER204     -0.2717
    164  CB        56.7610   59.4030  125.1350 C.3   204  SER204      0.2103
    165  OG        56.7490   59.8300  123.7800 O.3   204  SER204     -0.2182
    166  N         59.1900   57.9240  123.6120 N.am  205  THR205     -0.1952
    167  CA        59.6120   56.8010  122.7480 C.3   205  THR205      0.1897
    168  C         61.0970   56.4230  122.8940 C.2   205  THR205      0.2313
    169  O         61.5540   55.4940  122.2320 O.2   205  THR205     -0.2863
    170  CB        59.2880   57.0770  121.2560 C.3   205  THR205      0.1794
    171  OG1       60.1950   58.0450  120.7090 O.3   205  THR205     -0.2208
    172  CG2       57.8580   57.5910  121.1030 C.3   205  THR205      0.0378
    173  N         62.4020   53.8290  110.4040 N.3   226  VAL226     -0.1231
    174  CA        62.3840   55.0100  109.5640 C.3   226  VAL226      0.1692
    175  C         61.8940   56.2210  110.3840 C.2   226  VAL226      0.2593
    176  O         61.4410   57.2120  109.8270 O.2   226  VAL226     -0.2718
    177  CB        61.4960   54.8480  108.2870 C.3   226  VAL226      0.0266
    178  CG1       62.1960   54.0190  107.2420 C.3   226  VAL226      0.0020
    179  CG2       60.1220   54.2570  108.6330 C.3   226  VAL226      0.0020
    180  N         61.9990   56.1310  111.7060 N.am  227  GLY227     -0.1942
    181  CA        61.4840   57.1580  112.6030 C.3   227  GLY227      0.2014
    182  C         62.6360   57.9920  113.0760 C.2   227  GLY227      0.2638
    183  O         63.1330   58.8550  112.3400 O.2   227  GLY227     -0.2714
    184  N         63.0890   57.7070  114.2890 N.am  228  ARG228     -0.1977
    185  CA        64.2870   58.3350  114.8360 C.3   228  ARG228      0.1597
    186  C         65.1370   57.2660  115.5030 C.2   228  ARG228      0.2287
    187  O         64.6290   56.3030  116.0880 O.2   228  ARG228     -0.2864
    188  CB        63.9370   59.4430  115.8390 C.3   228  ARG228      0.0334
    189  CG        63.5070   60.7630  115.2070 C.3   228  ARG228      0.0492
    190  CD        64.6850   61.6030  114.6940 C.3   228  ARG228      0.2205
    191  NE        64.2840   62.7650  113.8710 N.pl3 228  ARG228     -0.0865
    192  CZ        63.9100   62.7240  112.5830 C.cat 228  ARG228      0.5346
    193  NH1       63.8530   61.5820  111.9030 N.pl3 228  ARG228      0.1354
    194  NH2       63.5690   63.8570  111.9700 N.pl3 228  ARG228      0.1354
    195  N         69.8680   57.9750  106.2140 N.3   275  HIS275     -0.1241
    196  CA        68.7380   58.8820  106.4000 C.3   275  HIS275      0.1621
    197  C         68.2530   59.4850  105.0800 C.2   275  HIS275      0.2264
    198  O         68.1530   60.7120  104.9490 O.2   275  HIS275     -0.2867
    199  CB        69.0860   59.9730  107.4240 C.3   275  HIS275      0.0745
    200  CG        67.9010   60.5190  108.1590 C.ar  275  HIS275      0.0817
    201  ND1       68.0020   61.0790  109.4160 N.ar  275  HIS275     -0.2268
    202  CD2       66.6090   60.6710  107.7920 C.ar  275  HIS275      0.1154
    203  CE1       66.8080   61.4890  109.8120 C.ar  275  HIS275      0.1986
    204  NE2       65.9450   61.2380  108.8470 N.ar  275  HIS275     -0.2212
@<TRIPOS>BOND
     1    35    36    1
     2    21    20    1
     3    21    22    1
     4    21    24    1
     5    30    31    2
     6    30    29    1
     7    22    23    2
     8    22    28   am
     9    28    29    1
    10    24    25    1
    11    36    37    1
    12    36    39    1
    13    37    38    2
    14    29    32    1
    15    32    34    1
    16    32    33    1
    17    39    41    1
    18    39    40    1
    19    25    27    1
    20    25    26    1
    21   198   197    2
    22   197   196    1
    23   195   196    1
    24   196   199    1
    25    72    71    2
    26    83    82    2
    27    86    84    1
    28   178   177    1
    29    85    84    1
    30    85    87    1
    31    81    82    1
    32    81    84    1
    33    81    80    1
    34   199   200    1
    35    71    80   am
    36    71    70    1
    37    82    88   am
    38   202   200   ar
    39   202   204   ar
    40    73    70    1
    41    73    74    1
    42    91    90    2
    43   200   201   ar
    44   177   179    1
    45   177   174    1
    46    70    69    1
    47    90    89    1
    48    75    74    1
    49    75    76    1
    50     1     2    1
    51   204   203   ar
    52    88    89    1
    53     5     6    1
    54     5     2    1
    55     5     7    1
    56   201   203   ar
    57    76    77    2
    58     2     3    1
    59   174   175    1
    60   174   173    1
    61    68    67    2
    62    69    67   am
    63   176   175    2
    64   134   132    1
    65    67    66    1
    66   175   180   am
    67   132   131    1
    68    77    78    1
    69    77    79    1
    70     3     8   am
    71     3     4    2
    72    63    62    1
    73     8     9    1
    74   131   133    1
    75   131   128    1
    76   180   181    1
    77    66    65    1
    78    62    64    1
    79    62    61    1
    80   193   192    1
    81   194   192    1
    82    11    10    2
    83    65    59   am
    84    60    59    2
    85   183   182    2
    86    59    58    1
    87   128   127    1
    88   128   129    1
    89     9    10    1
    90   192   191    2
    91   181   182    1
    92    58    61    1
    93    58    57    1
    94   182   184   am
    95    56    55    2
    96   130   129    2
    97   129   135   am
    98   191   190    1
    99    57    55   am
   100    55    54    1
   101   184   185    1
   102    42    43    1
   103   135   136    1
   104   190   189    1
   105   185   186    1
   106   185   188    1
   107    45    44    2
   108   189   188    1
   109   138   137    2
   110    54    53    1
   111    44    53   am
   112    44    43    1
   113    18    17   ar
   114   186   187    2
   115   136   137    1
   116   136   139    1
   117   137   142   am
   118    43    46    1
   119    12    13    1
   120   142   143    1
   121   142   148    1
   122    46    47    1
   123    17    19   ar
   124    17    16    1
   125   143   146    1
   126   143   144    1
   127   148   147    1
   128   147   146    1
   129    92    93    1
   130   139   140    1
   131   139   141    1
   132   108   106    1
   133    13    14    1
   134    13    16    1
   135   149   144   am
   136   149   150    1
   137   144   145    2
   138    14    15    2
   139    47    49   ar
   140    47    48   ar
   141    95    94    2
   142    49    51   ar
   143    93    94    1
   144    93    96    1
   145   107   106    1
   146    94   102   am
   147   106   103    1
   148   150   151    1
   149    48    50   ar
   150   102   103    1
   151    96    97    1
   152    51    52   ar
   153   103   104    1
   154   123   122    2
   155    50    52   ar
   156   151   152    2
   157   151   153   am
   158    97    99   ar
   159    97    98   ar
   160   122   121    1
   161   153   154    1
   162   171   170    1
   163   104   105    2
   164   104   109   am
   165    99   101   ar
   166   159   157    1
   167   172   170    1
   168   170   167    1
   169   125   124    1
   170   119   117    1
   171    98   100   ar
   172   109   110    1
   173   154   157    1
   174   154   155    1
   175   121   120    1
   176   121   124    1
   177   158   157    1
   178   120   111   am
   179   169   168    2
   180   101   100   ar
   181   124   126    1
   182   117   116    2
   183   117   118    1
   184   167   168    1
   185   167   166    1
   186   116   115    1
   187   110   111    1
   188   110   113    1
   189   156   155    2
   190   111   112    2
   191   113   114    1
   192   166   162   am
   193   165   164    1
   194   114   115    1
   195   162   163    2
   196   162   161    1
   197   164   161    1
   198   160   161    1
