@<TRIPOS>MOLECULE
tmp/5j25A00.pdb
 146 134 0 0 0
SMALL
GASTEIGER

@<TRIPOS>ATOM
      1  N         40.3690   -3.6620   63.1280 N.3    33  ASP33      -0.1239
      2  CA        40.2590   -2.7210   64.2380 C.3    33  ASP33       0.1674
      3  C         38.9320   -1.9800   64.0830 C.2    33  ASP33       0.2266
      4  O         38.7760   -1.1470   63.1820 O.2    33  ASP33      -0.2867
      5  CB        41.4540   -1.7720   64.1660 C.3    33  ASP33       0.1410
      6  CG        41.5470   -0.8050   65.3120 C.2    33  ASP33       0.3668
      7  OD1       40.6120   -0.7010   66.1330 O.co2  33  ASP33      -0.2456
      8  OD2       42.6160   -0.1360   65.3610 O.co2  33  ASP33      -0.2456
      9  N         36.4150    0.7270   64.6500 N.3    35  ASP35      -0.1239
     10  CA        36.7680    2.1230   64.9150 C.3    35  ASP35       0.1674
     11  C         35.5140    2.9900   64.8720 C.2    35  ASP35       0.2266
     12  O         35.0700    3.3720   63.7870 O.2    35  ASP35      -0.2867
     13  CB        37.7930    2.5970   63.8900 C.3    35  ASP35       0.1410
     14  CG        38.2140    4.0290   64.0990 C.2    35  ASP35       0.3668
     15  OD1       37.9140    4.5720   65.1820 O.co2  35  ASP35      -0.2456
     16  OD2       38.8640    4.5880   63.1780 O.co2  35  ASP35      -0.2456
     17  N         35.4120    5.9660   65.5130 N.3    37  GLY37      -0.1225
     18  CA        35.8380    7.2770   65.0730 C.3    37  GLY37       0.1811
     19  C         36.0590    7.4440   63.5810 C.2    37  GLY37       0.2280
     20  O         36.4850    8.5210   63.1590 O.2    37  GLY37      -0.2866
     21  N         44.1800    9.6250   59.2530 N.3    79  TYR79      -0.1227
     22  CA        43.7080    9.6230   60.6240 C.3    79  TYR79       0.1736
     23  C         44.4190   10.7180   61.4100 C.2    79  TYR79       0.2596
     24  O         45.4650   11.2300   61.0050 O.2    79  TYR79      -0.2718
     25  CB        43.9280    8.2420   61.2500 C.3    79  TYR79       0.0548
     26  CG        43.1650    7.1570   60.5120 C.ar   79  TYR79      -0.0200
     27  CD1       41.8160    6.9420   60.7570 C.ar   79  TYR79      -0.0009
     28  CD2       43.7890    6.3650   59.5660 C.ar   79  TYR79      -0.0009
     29  CE1       41.0990    5.9590   60.0770 C.ar   79  TYR79       0.0417
     30  CE2       43.0940    5.3820   58.8850 C.ar   79  TYR79       0.0417
     31  CZ        41.7470    5.1860   59.1320 C.ar   79  TYR79       0.1957
     32  OH        41.0770    4.2040   58.4340 O.3    79  TYR79      -0.2866
     33  N         43.8280   11.0940   62.5410 N.am   80  GLY80      -0.1942
     34  CA        44.3780   12.1990   63.3050 C.3    80  GLY80       0.2014
     35  C         45.8150   11.9840   63.7300 C.2    80  GLY80       0.2638
     36  O         46.5760   12.9490   63.8660 O.2    80  GLY80      -0.2714
     37  N         46.2090   10.7270   63.9440 N.am   81  ASP81      -0.1971
     38  CA        47.5750   10.4160   64.3440 C.3    81  ASP81       0.1709
     39  C         48.5700   10.4990   63.1970 C.2    81  ASP81       0.2293
     40  O         49.7550   10.2230   63.4080 O.2    81  ASP81      -0.2864
     41  CB        47.6530    9.0450   65.0350 C.3    81  ASP81       0.1436
     42  CG        47.2180    7.8900   64.1500 C.2    81  ASP81       0.3671
     43  OD1       47.1130    8.0510   62.9190 O.co2  81  ASP81      -0.2456
     44  OD2       46.9970    6.7950   64.7070 O.co2  81  ASP81      -0.2456
     45  N         48.5690    8.7090   60.3780 N.3    83  SER83      -0.1217
     46  CA        48.6010    7.5260   59.5320 C.3    83  SER83       0.1889
     47  C         47.5850    7.6620   58.3970 C.2    83  SER83       0.2288
     48  O         46.6700    8.4900   58.4490 O.2    83  SER83      -0.2866
     49  CB        48.3450    6.2570   60.3510 C.3    83  SER83       0.2089
     50  OG        47.0320    6.2140   60.8780 O.3    83  SER83      -0.2183
     51  N         50.9380    1.4110   59.7170 N.3   116  PHE116     -0.1241
     52  CA        50.1220    0.2450   59.4060 C.3   116  PHE116      0.1605
     53  C         51.0040   -0.9430   59.0330 C.2   116  PHE116      0.2264
     54  O         50.8200   -2.0540   59.5500 O.2   116  PHE116     -0.2867
     55  CB        49.0970    0.5790   58.3170 C.3   116  PHE116      0.0534
     56  CG        47.9630    1.4370   58.8070 C.ar  116  PHE116     -0.0203
     57  CD1       47.0790    0.9690   59.7570 C.ar  116  PHE116     -0.0042
     58  CD2       47.7760    2.7170   58.3160 C.ar  116  PHE116     -0.0042
     59  CE1       46.0490    1.7560   60.2110 C.ar  116  PHE116     -0.0003
     60  CE2       46.7410    3.5010   58.7650 C.ar  116  PHE116     -0.0003
     61  CZ        45.8840    3.0270   59.7180 C.ar  116  PHE116     -0.0000
     62  N         47.1150   -5.9590   62.7780 N.3   122  ILE122     -0.1245
     63  CA        45.9100   -5.2790   62.3110 C.3   122  ILE122      0.1561
     64  C         45.8420   -5.4030   60.7930 C.2   122  ILE122      0.2260
     65  O         46.7020   -4.8760   60.0760 O.2   122  ILE122     -0.2867
     66  CB        45.8690   -3.8220   62.7930 C.3   122  ILE122      0.0252
     67  CG1       45.6450   -3.7900   64.3110 C.3   122  ILE122      0.0019
     68  CG2       44.7760   -3.0450   62.0890 C.3   122  ILE122      0.0019
     69  CD1       45.6690   -2.4030   64.9280 C.3   122  ILE122      0.0001
     70  N         40.7170   -1.8080   59.0430 N.3   125  LEU125     -0.1245
     71  CA        39.8060   -1.1170   59.9440 C.3   125  LEU125      0.1561
     72  C         38.3740   -1.3830   59.5100 C.2   125  LEU125      0.2260
     73  O         38.0880   -1.5370   58.3160 O.2   125  LEU125     -0.2867
     74  CB        40.0590    0.4040   59.9640 C.3   125  LEU125      0.0270
     75  CG        41.0220    0.8600   61.0660 C.3   125  LEU125      0.0019
     76  CD1       42.4260    0.2970   60.8330 C.3   125  LEU125      0.0001
     77  CD2       41.0410    2.3610   61.2350 C.3   125  LEU125      0.0001
     78  N         30.7270   12.0210   64.0650 N.3   194  PHE194     -0.1241
     79  CA        31.2010   11.1980   65.1700 C.3   194  PHE194      0.1605
     80  C         30.0630   10.9100   66.1490 C.2   194  PHE194      0.2264
     81  O         29.0180   11.5660   66.1440 O.2   194  PHE194     -0.2867
     82  CB        32.3090   11.9190   65.9460 C.3   194  PHE194      0.0534
     83  CG        33.5230   12.2660   65.1350 C.ar  194  PHE194     -0.0203
     84  CD1       34.3000   11.2800   64.5540 C.ar  194  PHE194     -0.0042
     85  CD2       33.9200   13.5820   64.9990 C.ar  194  PHE194     -0.0042
     86  CE1       35.4310   11.6060   63.8180 C.ar  194  PHE194     -0.0003
     87  CE2       35.0540   13.9070   64.2750 C.ar  194  PHE194     -0.0003
     88  CZ        35.8070   12.9170   63.6830 C.ar  194  PHE194     -0.0000
     89  N         34.2220   12.7230   71.7500 N.3   217  ILE217     -0.1245
     90  CA        33.7450   11.6250   70.9190 C.3   217  ILE217      0.1561
     91  C         34.0330   10.2880   71.5850 C.2   217  ILE217      0.2260
     92  O         35.0710   10.1050   72.2270 O.2   217  ILE217     -0.2867
     93  CB        34.2930   11.6850   69.4800 C.3   217  ILE217      0.0252
     94  CG1       35.8120   11.4720   69.4080 C.3   217  ILE217      0.0019
     95  CG2       33.8800   13.0080   68.8370 C.3   217  ILE217      0.0019
     96  CD1       36.3280   11.2760   67.9910 C.3   217  ILE217      0.0001
     97  N         35.3190    6.9190   70.8730 N.3   219  ASP219     -0.1239
     98  CA        36.1830    6.4930   69.7690 C.3   219  ASP219      0.1674
     99  C         36.9500    5.2270   70.1470 C.2   219  ASP219      0.2266
    100  O         38.0220    5.2920   70.7720 O.2   219  ASP219     -0.2867
    101  CB        37.1370    7.6140   69.3840 C.3   219  ASP219      0.1410
    102  CG        37.9870    7.2610   68.1920 C.2   219  ASP219      0.3668
    103  OD1       37.7920    6.1640   67.6190 O.co2 219  ASP219     -0.2456
    104  OD2       38.8360    8.0880   67.8100 O.co2 219  ASP219     -0.2456
    105  N         38.6530    3.4560   68.2400 N.3   221  GLY221     -0.1210
    106  CA        39.8820    3.3930   67.4830 C.3   221  GLY221      0.1956
    107  C         41.0100    4.2560   68.0020 C.2   221  GLY221      0.2613
    108  O         42.0930    4.2680   67.4050 O.2   221  GLY221     -0.2717
    109  N         40.8070    4.9620   69.1100 N.am  222  THR222     -0.1938
    110  CA        41.8540    5.7340   69.7670 C.3   222  THR222      0.2028
    111  C         42.1760    5.0560   71.0910 C.2   222  THR222      0.2642
    112  O         41.2630    4.6950   71.8390 O.2   222  THR222     -0.2714
    113  CB        41.3970    7.1800   69.9880 C.3   222  THR222      0.1808
    114  OG1       41.3080    7.8350   68.7210 O.3   222  THR222     -0.2208
    115  CG2       42.3840    7.9620   70.8690 C.3   222  THR222      0.0379
    116  N         43.4700    4.8950   71.3770 N.am  223  THR223     -0.1950
    117  CA        43.9020    4.1400   72.5510 C.3   223  THR223      0.1897
    118  C         43.5830    4.8710   73.8480 C.2   223  THR223      0.2313
    119  O         43.1160    4.2590   74.8210 O.2   223  THR223     -0.2863
    120  CB        45.4140    3.8900   72.4770 C.3   223  THR223      0.1794
    121  OG1       45.7790    3.3920   71.1850 O.3   223  THR223     -0.2208
    122  CG2       45.8520    2.9070   73.5620 C.3   223  THR223      0.0378
    123  N         44.4630   18.8710   69.3060 N.3   300  ILE300     -0.1245
    124  CA        43.6530   17.9280   68.5330 C.3   300  ILE300      0.1561
    125  C         42.4180   18.6030   67.9600 C.2   300  ILE300      0.2260
    126  O         41.9820   18.2710   66.8530 O.2   300  ILE300     -0.2867
    127  CB        43.2310   16.6940   69.3630 C.3   300  ILE300      0.0252
    128  CG1       44.4420   15.9140   69.8710 C.3   300  ILE300      0.0019
    129  CG2       42.3170   15.7740   68.5230 C.3   300  ILE300      0.0019
    130  CD1       44.0740   14.7240   70.7590 C.3   300  ILE300      0.0001
    131  N         39.4030   18.3710   69.4690 N.3   302  ILE302     -0.1245
    132  CA        38.2400   17.7020   70.0300 C.3   302  ILE302      0.1561
    133  C         38.7370   16.8190   71.1620 C.2   302  ILE302      0.2260
    134  O         39.8670   16.3270   71.1340 O.2   302  ILE302     -0.2867
    135  CB        37.5060   16.9000   68.9230 C.3   302  ILE302      0.0252
    136  CG1       36.0730   16.5210   69.3360 C.3   302  ILE302      0.0019
    137  CG2       38.3240   15.6820   68.5010 C.3   302  ILE302      0.0019
    138  CD1       35.1570   16.1950   68.1500 C.3   302  ILE302      0.0001
    139  N         38.5890   13.2710   73.1910 N.3   304  ILE304     -0.1245
    140  CA        38.4290   11.8980   72.7020 C.3   304  ILE304      0.1561
    141  C         38.3170   10.9410   73.8770 C.2   304  ILE304      0.2260
    142  O         39.2920   10.7230   74.6050 O.2   304  ILE304     -0.2867
    143  CB        39.5590   11.4530   71.7690 C.3   304  ILE304      0.0252
    144  CG1       39.7740   12.4390   70.6220 C.3   304  ILE304      0.0019
    145  CG2       39.2220   10.0770   71.2200 C.3   304  ILE304      0.0019
    146  CD1       41.0060   12.1310   69.8020 C.3   304  ILE304      0.0001
@<TRIPOS>BOND
     1    58    60   ar
     2    58    56   ar
     3    73    72    2
     4    55    56    1
     5    55    52    1
     6    47    48    2
     7    47    46    1
     8    32    31    1
     9    60    61   ar
    10    56    57   ar
    11    30    31   ar
    12    30    28   ar
    13    53    52    1
    14    53    54    2
    15    70    71    1
    16    31    29   ar
    17    21    22    1
    18    52    51    1
    19    72    71    1
    20    46    49    1
    21    46    45    1
    22    28    26   ar
    23    61    59   ar
    24    57    59   ar
    25    71    74    1
    26    74    75    1
    27    65    64    2
    28    29    27   ar
    29    49    50    1
    30    26    27   ar
    31    26    25    1
    32    22    25    1
    33    22    23    1
    34    64    63    1
    35    76    75    1
    36    24    23    2
    37    75    77    1
    38    23    33   am
    39    68    66    1
    40    63    62    1
    41    63    66    1
    42    33    34    1
    43    66    67    1
    44    43    42   ar
    45     1     2    1
    46    20    19    2
    47    16    14   ar
    48     4     3    2
    49    39    40    2
    50    39    38    1
    51    34    35    1
    52    19    18    1
    53    88    86   ar
    54    88    87   ar
    55    35    36    2
    56    35    37   am
    57    12    11    2
    58    86    84   ar
    59    13    14    1
    60    13    10    1
    61    37    38    1
    62    78    79    1
    63     3     2    1
    64    14    15   ar
    65    42    44   ar
    66    42    41    1
    67     5     2    1
    68     5     6    1
    69    87    85   ar
    70    67    69    1
    71    38    41    1
    72    84    83   ar
    73     9    10    1
    74    11    10    1
    75    85    83   ar
    76    18    17    1
    77    83    82    1
    78    79    82    1
    79    79    80    1
    80     6     8   ar
    81     6     7   ar
    82    81    80    2
    83   126   125    2
    84   108   107    2
    85   106   107    1
    86   106   105    1
    87   103   102   ar
    88   104   102   ar
    89   125   124    1
    90    96    94    1
    91   107   109   am
    92   138   136    1
    93   102   101    1
    94   137   135    1
    95   129   127    1
    96   124   123    1
    97   124   127    1
    98   114   113    1
    99    95    93    1
   100   135   136    1
   101   135   132    1
   102   109   110    1
   103   127   128    1
   104   101    98    1
   105    94    93    1
   106   131   132    1
   107    93    90    1
   108   110   113    1
   109   110   111    1
   110    98    99    1
   111    98    97    1
   112   146   144    1
   113   128   130    1
   114   113   115    1
   115   132   133    1
   116    99   100    2
   117   144   143    1
   118    90    91    1
   119    90    89    1
   120   111   116   am
   121   111   112    2
   122   134   133    2
   123   121   120    1
   124   145   143    1
   125   116   117    1
   126    91    92    2
   127   143   140    1
   128   120   117    1
   129   120   122    1
   130   117   118    1
   131   140   139    1
   132   140   141    1
   133   118   119    2
   134   141   142    2
