@<TRIPOS>MOLECULE
tmp/5j2qA00.pdb
 126 123 0 0 0
SMALL
GASTEIGER

@<TRIPOS>ATOM
      1  N         49.2480    1.1010  -32.3010 N.3    66  LYS66      -0.1245
      2  CA        50.3400    2.0620  -32.4240 C.3    66  LYS66       0.1561
      3  C         51.6910    1.3630  -32.4950 C.2    66  LYS66       0.2260
      4  O         52.6430    1.9080  -33.0660 O.2    66  LYS66      -0.2867
      5  CB        50.3000    3.0460  -31.2530 C.3    66  LYS66       0.0271
      6  CG        51.0510    4.3520  -31.4810 C.3    66  LYS66       0.0035
      7  CD        50.8460    5.3080  -30.3110 C.3    66  LYS66       0.0206
      8  CE        51.4740    6.6700  -30.5720 C.3    66  LYS66       0.1093
      9  NZ        50.8530    7.3600  -31.7370 N.3    66  LYS66      -0.1314
     10  N         44.1650   -4.6840  -32.8860 N.3    72  ARG72      -0.1245
     11  CA        43.1130   -4.1540  -32.0280 C.3    72  ARG72       0.1563
     12  C         41.7620   -4.5650  -32.5990 C.2    72  ARG72       0.2260
     13  O         41.4580   -4.2700  -33.7600 O.2    72  ARG72      -0.2867
     14  CB        43.2110   -2.6320  -31.9130 C.3    72  ARG72       0.0307
     15  CG        41.8950   -1.9490  -31.5630 C.3    72  ARG72       0.0489
     16  CD        42.0870   -0.4770  -31.2230 C.3    72  ARG72       0.2205
     17  NE        42.6510   -0.2940  -29.8880 N.pl3  72  ARG72      -0.0865
     18  CZ        43.9360   -0.0620  -29.6410 C.cat  72  ARG72       0.5346
     19  NH1       44.8010    0.0240  -30.6420 N.pl3  72  ARG72       0.1354
     20  NH2       44.3550    0.0880  -28.3920 N.pl3  72  ARG72       0.1354
     21  N         51.4680    2.2990  -18.1350 N.3   110  ASP110     -0.1239
     22  CA        50.1610    2.0550  -18.7240 C.3   110  ASP110      0.1674
     23  C         49.5720    0.7550  -18.1900 C.2   110  ASP110      0.2266
     24  O         50.2870   -0.1340  -17.7180 O.2   110  ASP110     -0.2867
     25  CB        50.2490    2.0000  -20.2530 C.3   110  ASP110      0.1410
     26  CG        50.5480    3.3510  -20.8700 C.2   110  ASP110      0.3668
     27  OD1       51.7400    3.6970  -21.0020 O.co2 110  ASP110     -0.2456
     28  OD2       49.5900    4.0650  -21.2300 O.co2 110  ASP110     -0.2456
     29  N         40.0550   -1.9580  -21.4140 N.3   115  TYR115     -0.1241
     30  CA        38.6360   -2.2880  -21.5250 C.3   115  TYR115      0.1605
     31  C         38.3650   -3.7390  -21.1480 C.2   115  TYR115      0.2264
     32  O         37.4050   -4.0320  -20.4250 O.2   115  TYR115     -0.2867
     33  CB        38.1370   -2.0260  -22.9460 C.3   115  TYR115      0.0534
     34  CG        37.9120   -0.5720  -23.2980 C.ar  115  TYR115     -0.0201
     35  CD1       38.0020    0.4260  -22.3370 C.ar  115  TYR115     -0.0009
     36  CD2       37.5940   -0.2030  -24.5970 C.ar  115  TYR115     -0.0009
     37  CE1       37.7880    1.7520  -22.6670 C.ar  115  TYR115      0.0417
     38  CE2       37.3810    1.1160  -24.9360 C.ar  115  TYR115      0.0417
     39  CZ        37.4800    2.0900  -23.9690 C.ar  115  TYR115      0.1957
     40  OH        37.2660    3.4060  -24.3090 O.3   115  TYR115     -0.2866
     41  N         34.3050    4.1720  -22.9220 N.3   146  PRO146     -0.2116
     42  CA        35.2380    5.1700  -22.3630 C.3   146  PRO146      0.1372
     43  C         34.8070    5.7130  -21.0100 C.2   146  PRO146      0.2244
     44  O         35.6220    5.7680  -20.0810 O.2   146  PRO146     -0.2868
     45  CB        35.2650    6.2620  -23.4420 C.3   146  PRO146      0.0268
     46  CG        34.9120    5.5530  -24.6960 C.3   146  PRO146      0.0207
     47  CD        33.8890    4.5370  -24.2900 C.3   146  PRO146      0.0892
     48  N         44.7800    9.4000  -17.2750 N.3   172  TYR172     -0.1227
     49  CA        44.1360    9.6280  -18.5670 C.3   172  TYR172      0.1736
     50  C         43.9850    8.2830  -19.2620 C.2   172  TYR172      0.2595
     51  O         44.9840    7.6780  -19.6650 O.2   172  TYR172     -0.2718
     52  CB        44.9350   10.6000  -19.4340 C.3   172  TYR172      0.0548
     53  CG        44.2390   10.9440  -20.7330 C.ar  172  TYR172     -0.0200
     54  CD1       43.2560   11.9250  -20.7740 C.ar  172  TYR172     -0.0009
     55  CD2       44.5540   10.2830  -21.9120 C.ar  172  TYR172     -0.0009
     56  CE1       42.6120   12.2400  -21.9530 C.ar  172  TYR172      0.0417
     57  CE2       43.9160   10.5940  -23.0970 C.ar  172  TYR172      0.0417
     58  CZ        42.9460   11.5720  -23.1120 C.ar  172  TYR172      0.1957
     59  OH        42.3040   11.8870  -24.2880 O.3   172  TYR172     -0.2866
     60  N         42.7380    7.8320  -19.4150 N.am  173  MET173     -0.1965
     61  CA        42.4430    6.4950  -19.9180 C.3   173  MET173      0.1736
     62  C         43.1750    5.4550  -19.0810 C.2   173  MET173      0.2616
     63  O         42.9630    5.3670  -17.8670 O.2   173  MET173     -0.2715
     64  CB        42.8210    6.3660  -21.3950 C.3   173  MET173      0.0427
     65  CG        41.9580    7.1870  -22.3410 C.3   173  MET173      0.0599
     66  SD        40.2720    6.5590  -22.4640 S.3   173  MET173     -0.1393
     67  CE        39.6110    7.6130  -23.7500 C.3   173  MET173      0.0692
     68  N         44.0460    4.6740  -19.7140 N.am  174  ASP174     -0.1957
     69  CA        44.8180    3.6520  -19.0240 C.3   174  ASP174      0.1840
     70  C         46.2330    4.1030  -18.6880 C.2   174  ASP174      0.2622
     71  O         46.9630    3.3600  -18.0240 O.2   174  ASP174     -0.2715
     72  CB        44.8680    2.3720  -19.8660 C.3   174  ASP174      0.1450
     73  CG        45.5410    2.5820  -21.2080 C.2   174  ASP174      0.3671
     74  OD1       45.6240    3.7440  -21.6610 O.co2 174  ASP174     -0.2456
     75  OD2       45.9830    1.5820  -21.8120 O.co2 174  ASP174     -0.2456
     76  N         46.6350    5.2940  -19.1230 N.am  175  ASP175     -0.1971
     77  CA        47.9750    5.7900  -18.8460 C.3   175  ASP175      0.1709
     78  C         48.0230    6.4530  -17.4760 C.2   175  ASP175      0.2293
     79  O         47.0840    7.1450  -17.0700 O.2   175  ASP175     -0.2864
     80  CB        48.4100    6.7830  -19.9240 C.3   175  ASP175      0.1436
     81  CG        49.8480    7.2320  -19.7570 C.2   175  ASP175      0.3671
     82  OD1       50.7490    6.5550  -20.2950 O.co2 175  ASP175     -0.2456
     83  OD2       50.0780    8.2590  -19.0880 O.co2 175  ASP175     -0.2456
     84  N         57.4450    9.4190  -22.4480 N.3   217  LEU217     -0.1231
     85  CA        56.4720    9.6340  -23.5130 C.3   217  LEU217      0.1693
     86  C         55.0830    9.6870  -22.8880 C.2   217  LEU217      0.2592
     87  O         54.5900    8.6830  -22.3640 O.2   217  LEU217     -0.2718
     88  CB        56.5750    8.5350  -24.5670 C.3   217  LEU217      0.0284
     89  CG        57.9280    8.4870  -25.2780 C.3   217  LEU217      0.0019
     90  CD1       57.9220    7.4570  -26.3940 C.3   217  LEU217      0.0001
     91  CD2       58.2960    9.8640  -25.8100 C.3   217  LEU217      0.0001
     92  N         54.4550   10.8590  -22.9420 N.am  218  TRP218     -0.1962
     93  CA        53.2100   11.0940  -22.2180 C.3   218  TRP218      0.1771
     94  C         52.3610   12.0910  -22.9890 C.2   218  TRP218      0.2620
     95  O         52.7880   13.2290  -23.2080 O.2   218  TRP218     -0.2715
     96  CB        53.5050   11.6060  -20.8050 C.3   218  TRP218      0.0590
     97  CG        52.2920   11.9450  -19.9980 C.ar  218  TRP218      0.0006
     98  CD1       51.4420   11.0710  -19.3870 C.ar  218  TRP218      0.0946
     99  CD2       51.8040   13.2580  -19.6930 C.ar  218  TRP218      0.0152
    100  NE1       50.4490   11.7560  -18.7300 N.ar  218  TRP218     -0.2442
    101  CE2       50.6510   13.1000  -18.8990 C.ar  218  TRP218      0.0810
    102  CE3       52.2290   14.5500  -20.0160 C.ar  218  TRP218      0.0012
    103  CZ2       49.9140   14.1850  -18.4290 C.ar  218  TRP218      0.0191
    104  CZ3       51.4980   15.6260  -19.5470 C.ar  218  TRP218      0.0001
    105  CH2       50.3540   15.4370  -18.7620 C.ar  218  TRP218      0.0015
    106  N         51.1730   11.6530  -23.4120 N.am  219  MET219     -0.1963
    107  CA        50.1530   12.5260  -23.9980 C.3   219  MET219      0.1736
    108  C         50.6400   13.2300  -25.2620 C.2   219  MET219      0.2617
    109  O         50.1430   14.3020  -25.6160 O.2   219  MET219     -0.2715
    110  CB        49.6580   13.5550  -22.9780 C.3   219  MET219      0.0427
    111  CG        48.9890   12.9400  -21.7670 C.3   219  MET219      0.0599
    112  SD        47.5050   12.0220  -22.2040 S.3   219  MET219     -0.1393
    113  CE        46.4540   13.3550  -22.7700 C.3   219  MET219      0.0692
    114  N         51.6020   12.6360  -25.9610 N.am  220  GLY220     -0.1955
    115  CA        52.1560   13.2450  -27.1510 C.3   220  GLY220      0.1869
    116  C         53.2960   14.2060  -26.9090 C.2   220  GLY220      0.2309
    117  O         53.6510   14.9620  -27.8220 O.2   220  GLY220     -0.2863
    118  N         56.2020   16.1060  -29.5180 N.3   231  GLN231     -0.1245
    119  CA        56.7410   15.2100  -30.5260 C.3   231  GLN231      0.1566
    120  C         56.7260   15.9000  -31.8920 C.2   231  GLN231      0.2260
    121  O         55.9000   16.7860  -32.1360 O.2   231  GLN231     -0.2867
    122  CB        55.9380   13.9100  -30.5580 C.3   231  GLN231      0.0367
    123  CG        56.0250   13.1210  -29.2560 C.3   231  GLN231      0.0905
    124  CD        55.2290   11.8310  -29.2890 C.2   231  GLN231      0.2608
    125  OE1       54.6250   11.4850  -30.3040 O.2   231  GLN231     -0.2717
    126  NE2       55.2240   11.1100  -28.1720 N.am  231  GLN231     -0.0878
@<TRIPOS>BOND
     1    13    12    2
     2     4     3    2
     3    10    11    1
     4    12    11    1
     5     3     2    1
     6     2     1    1
     7     2     5    1
     8   121   120    2
     9    11    14    1
    10    14    15    1
    11   120   119    1
    12     9     8    1
    13    15    16    1
    14     6     5    1
    15     6     7    1
    16    16    17    1
    17    19    18    1
    18     8     7    1
    19   122   119    1
    20   122   123    1
    21   119   118    1
    22   125   124    2
    23    17    18    2
    24    18    20    1
    25   124   123    1
    26   124   126   am
    27   117   116    2
    28   115   116    1
    29   115   114    1
    30    90    89    1
    31   114   108   am
    32    91    89    1
    33   109   108    2
    34    89    88    1
    35   108   107    1
    36    38    36   ar
    37    38    39   ar
    38    46    47    1
    39    46    45    1
    40    36    34   ar
    41    88    85    1
    42    40    39    1
    43    47    41    1
    44    59    58    1
    45   107   106    1
    46   107   110    1
    47    39    37   ar
    48    67    66    1
    49    85    86    1
    50    85    84    1
    51    45    42    1
    52   106    94   am
    53    34    33    1
    54    34    35   ar
    55    95    94    2
    56    58    57   ar
    57    58    56   ar
    58    57    55   ar
    59    94    93    1
    60   110   111    1
    61    33    30    1
    62    92    86   am
    63    92    93    1
    64    41    42    1
    65    86    87    2
    66   113   112    1
    67    37    35   ar
    68    66    65    1
    69    42    43    1
    70    65    64    1
    71    93    96    1
    72   112   111    1
    73    56    54   ar
    74    55    53   ar
    75    75    73   ar
    76    74    73   ar
    77    30    29    1
    78    30    31    1
    79    64    61    1
    80    28    26   ar
    81    73    72    1
    82    31    32    2
    83    43    44    2
    84    27    26   ar
    85    26    25    1
    86    96    97    1
    87    54    53   ar
    88    53    52    1
    89    82    81   ar
    90    25    22    1
    91   102    99   ar
    92   102   104   ar
    93    97    99   ar
    94    97    98   ar
    95    80    81    1
    96    80    77    1
    97    61    60    1
    98    61    62    1
    99    72    69    1
   100    81    83   ar
   101    68    62   am
   102    68    69    1
   103    99   101   ar
   104    51    50    2
   105   104   105   ar
   106    52    49    1
   107    60    50   am
   108    98   100   ar
   109    50    49    1
   110    76    77    1
   111    76    70   am
   112    62    63    2
   113    69    70    1
   114   101   100   ar
   115   101   103   ar
   116    77    78    1
   117   105   103   ar
   118    22    23    1
   119    22    21    1
   120    70    71    2
   121    49    48    1
   122    23    24    2
   123    78    79    2
