@<TRIPOS>MOLECULE
tmp/5j2qA01.pdb
 131 125 0 0 0
SMALL
GASTEIGER

@<TRIPOS>ATOM
      1  N         42.2000   -3.5980  -36.7660 N.3    63  ILE63      -0.1245
      2  CA        43.1990   -2.6960  -37.3200 C.3    63  ILE63       0.1561
      3  C         44.5110   -2.8930  -36.5650 C.2    63  ILE63       0.2260
      4  O         44.5990   -3.6860  -35.6280 O.2    63  ILE63      -0.2867
      5  CB        42.7550   -1.2190  -37.2620 C.3    63  ILE63       0.0252
      6  CG1       42.5820   -0.7730  -35.8080 C.3    63  ILE63       0.0019
      7  CG2       41.4700   -1.0080  -38.0510 C.3    63  ILE63       0.0019
      8  CD1       42.3690    0.7150  -35.6490 C.3    63  ILE63       0.0001
      9  N         49.2480    1.1010  -32.3010 N.3    66  LYS66      -0.1245
     10  CA        50.3400    2.0620  -32.4240 C.3    66  LYS66       0.1561
     11  C         51.6910    1.3630  -32.4950 C.2    66  LYS66       0.2260
     12  O         52.6430    1.9080  -33.0660 O.2    66  LYS66      -0.2867
     13  CB        50.3000    3.0460  -31.2530 C.3    66  LYS66       0.0271
     14  CG        51.0510    4.3520  -31.4810 C.3    66  LYS66       0.0035
     15  CD        50.8460    5.3080  -30.3110 C.3    66  LYS66       0.0206
     16  CE        51.4740    6.6700  -30.5720 C.3    66  LYS66       0.1093
     17  NZ        50.8530    7.3600  -31.7370 N.3    66  LYS66      -0.1314
     18  N         44.1650   -4.6840  -32.8860 N.3    72  ARG72      -0.1245
     19  CA        43.1130   -4.1540  -32.0280 C.3    72  ARG72       0.1563
     20  C         41.7620   -4.5650  -32.5990 C.2    72  ARG72       0.2260
     21  O         41.4580   -4.2700  -33.7600 O.2    72  ARG72      -0.2867
     22  CB        43.2110   -2.6320  -31.9130 C.3    72  ARG72       0.0307
     23  CG        41.8950   -1.9490  -31.5630 C.3    72  ARG72       0.0489
     24  CD        42.0870   -0.4770  -31.2230 C.3    72  ARG72       0.2205
     25  NE        42.6510   -0.2940  -29.8880 N.pl3  72  ARG72      -0.0865
     26  CZ        43.9360   -0.0620  -29.6410 C.cat  72  ARG72       0.5346
     27  NH1       44.8010    0.0240  -30.6420 N.pl3  72  ARG72       0.1354
     28  NH2       44.3550    0.0880  -28.3920 N.pl3  72  ARG72       0.1354
     29  N         38.0050   -4.1360  -33.0220 N.3    74  LEU74      -0.1245
     30  CA        36.9760   -3.1110  -32.9410 C.3    74  LEU74       0.1561
     31  C         35.6520   -3.6640  -33.4480 C.2    74  LEU74       0.2260
     32  O         35.6140   -4.4060  -34.4350 O.2    74  LEU74      -0.2867
     33  CB        37.3700   -1.8750  -33.7520 C.3    74  LEU74       0.0270
     34  CG        38.6350   -1.1420  -33.3040 C.3    74  LEU74       0.0019
     35  CD1       39.0530   -0.1220  -34.3470 C.3    74  LEU74       0.0001
     36  CD2       38.4150   -0.4750  -31.9550 C.3    74  LEU74       0.0001
     37  N         51.4680    2.2990  -18.1350 N.3   110  ASP110     -0.1239
     38  CA        50.1610    2.0550  -18.7240 C.3   110  ASP110      0.1674
     39  C         49.5720    0.7550  -18.1900 C.2   110  ASP110      0.2266
     40  O         50.2870   -0.1340  -17.7180 O.2   110  ASP110     -0.2867
     41  CB        50.2490    2.0000  -20.2530 C.3   110  ASP110      0.1410
     42  CG        50.5480    3.3510  -20.8700 C.2   110  ASP110      0.3668
     43  OD1       51.7400    3.6970  -21.0020 O.co2 110  ASP110     -0.2456
     44  OD2       49.5900    4.0650  -21.2300 O.co2 110  ASP110     -0.2456
     45  N         43.0320   -2.5950  -21.0110 N.3   114  ALA114     -0.1231
     46  CA        42.1760   -1.7070  -20.2340 C.3   114  ALA114      0.1694
     47  C         40.7180   -2.1500  -20.2680 C.2   114  ALA114      0.2592
     48  O         40.1980   -2.6600  -19.2700 O.2   114  ALA114     -0.2718
     49  CB        42.3030   -0.2710  -20.7440 C.3   114  ALA114      0.0304
     50  N         40.0550   -1.9580  -21.4140 N.am  115  TYR115     -0.1976
     51  CA        38.6360   -2.2880  -21.5250 C.3   115  TYR115      0.1639
     52  C         38.3650   -3.7390  -21.1480 C.2   115  TYR115      0.2290
     53  O         37.4050   -4.0320  -20.4250 O.2   115  TYR115     -0.2864
     54  CB        38.1370   -2.0260  -22.9460 C.3   115  TYR115      0.0560
     55  CG        37.9120   -0.5720  -23.2980 C.ar  115  TYR115     -0.0198
     56  CD1       38.0020    0.4260  -22.3370 C.ar  115  TYR115     -0.0009
     57  CD2       37.5940   -0.2030  -24.5970 C.ar  115  TYR115     -0.0009
     58  CE1       37.7880    1.7520  -22.6670 C.ar  115  TYR115      0.0417
     59  CE2       37.3810    1.1160  -24.9360 C.ar  115  TYR115      0.0417
     60  CZ        37.4800    2.0900  -23.9690 C.ar  115  TYR115      0.1957
     61  OH        37.2660    3.4060  -24.3090 O.3   115  TYR115     -0.2866
     62  N         35.1000   -2.6000  -27.2840 N.3   140  GLN140     -0.1231
     63  CA        35.5470   -1.4050  -27.9850 C.3   140  GLN140      0.1698
     64  C         34.5650   -1.0610  -29.0960 C.2   140  GLN140      0.2593
     65  O         34.0040   -1.9490  -29.7450 O.2   140  GLN140     -0.2718
     66  CB        36.9510   -1.6010  -28.5590 C.3   140  GLN140      0.0381
     67  CG        37.9750   -2.0570  -27.5310 C.3   140  GLN140      0.0905
     68  CD        39.4030   -1.8060  -27.9710 C.2   140  GLN140      0.2608
     69  OE1       39.6530   -1.0320  -28.8960 O.2   140  GLN140     -0.2717
     70  NE2       40.3500   -2.4580  -27.3070 N.am  140  GLN140     -0.0878
     71  N         34.3600    0.2360  -29.3090 N.am  141  GLY141     -0.1942
     72  CA        33.3480    0.7080  -30.2290 C.3   141  GLY141      0.2014
     73  C         31.9940    0.9570  -29.6040 C.2   141  GLY141      0.2638
     74  O         31.0670    1.3680  -30.3160 O.2   141  GLY141     -0.2714
     75  N         31.8470    0.7160  -28.3040 N.am  142  TRP142     -0.1973
     76  CA        30.6040    0.9820  -27.5960 C.3   142  TRP142      0.1640
     77  C         30.6330    2.3870  -27.0090 C.2   142  TRP142      0.2290
     78  O         31.6850    2.8750  -26.5840 O.2   142  TRP142     -0.2864
     79  CB        30.3840   -0.0480  -26.4870 C.3   142  TRP142      0.0576
     80  CG        29.1060    0.1460  -25.7240 C.ar  142  TRP142      0.0006
     81  CD1       27.8900    0.4960  -26.2340 C.ar  142  TRP142      0.0946
     82  CD2       28.9240    0.0150  -24.3080 C.ar  142  TRP142      0.0152
     83  NE1       26.9610    0.5840  -25.2270 N.ar  142  TRP142     -0.2442
     84  CE2       27.5700    0.2940  -24.0340 C.ar  142  TRP142      0.0810
     85  CE3       29.7730   -0.3130  -23.2470 C.ar  142  TRP142      0.0012
     86  CZ2       27.0460    0.2550  -22.7440 C.ar  142  TRP142      0.0191
     87  CZ3       29.2510   -0.3520  -21.9670 C.ar  142  TRP142      0.0001
     88  CH2       27.9000   -0.0700  -21.7270 C.ar  142  TRP142      0.0015
     89  N         34.3050    4.1720  -22.9220 N.3   146  PRO146     -0.2116
     90  CA        35.2380    5.1700  -22.3630 C.3   146  PRO146      0.1372
     91  C         34.8070    5.7130  -21.0100 C.2   146  PRO146      0.2244
     92  O         35.6220    5.7680  -20.0810 O.2   146  PRO146     -0.2868
     93  CB        35.2650    6.2620  -23.4420 C.3   146  PRO146      0.0268
     94  CG        34.9120    5.5530  -24.6960 C.3   146  PRO146      0.0207
     95  CD        33.8890    4.5370  -24.2900 C.3   146  PRO146      0.0892
     96  N         35.0490    2.9920  -18.1860 N.3   149  PHE149     -0.1241
     97  CA        36.4200    2.7040  -17.7800 C.3   149  PHE149      0.1605
     98  C         37.0170    3.8600  -16.9870 C.2   149  PHE149      0.2264
     99  O         37.6830    3.6410  -15.9680 O.2   149  PHE149     -0.2867
    100  CB        37.2980    2.3940  -18.9900 C.3   149  PHE149      0.0534
    101  CG        38.7370    2.1480  -18.6300 C.ar  149  PHE149     -0.0203
    102  CD1       39.1500    0.9000  -18.1940 C.ar  149  PHE149     -0.0042
    103  CD2       39.6720    3.1710  -18.7010 C.ar  149  PHE149     -0.0042
    104  CE1       40.4700    0.6710  -17.8470 C.ar  149  PHE149     -0.0003
    105  CE2       40.9920    2.9480  -18.3540 C.ar  149  PHE149     -0.0003
    106  CZ        41.3910    1.6960  -17.9280 C.ar  149  PHE149     -0.0000
    107  N         42.7380    7.8320  -19.4150 N.3   173  MET173     -0.1230
    108  CA        42.4430    6.4950  -19.9180 C.3   173  MET173      0.1702
    109  C         43.1750    5.4550  -19.0810 C.2   173  MET173      0.2592
    110  O         42.9630    5.3670  -17.8670 O.2   173  MET173     -0.2718
    111  CB        42.8210    6.3660  -21.3950 C.3   173  MET173      0.0401
    112  CG        41.9580    7.1870  -22.3410 C.3   173  MET173      0.0596
    113  SD        40.2720    6.5590  -22.4640 S.3   173  MET173     -0.1393
    114  CE        39.6110    7.6130  -23.7500 C.3   173  MET173      0.0692
    115  N         44.0460    4.6740  -19.7140 N.am  174  ASP174     -0.1974
    116  CA        44.8180    3.6520  -19.0240 C.3   174  ASP174      0.1709
    117  C         46.2330    4.1030  -18.6880 C.2   174  ASP174      0.2293
    118  O         46.9630    3.3600  -18.0240 O.2   174  ASP174     -0.2864
    119  CB        44.8680    2.3720  -19.8660 C.3   174  ASP174      0.1436
    120  CG        45.5410    2.5820  -21.2080 C.2   174  ASP174      0.3671
    121  OD1       45.6240    3.7440  -21.6610 O.co2 174  ASP174     -0.2456
    122  OD2       45.9830    1.5820  -21.8120 O.co2 174  ASP174     -0.2456
    123  N         55.4840   -1.2290  -21.0310 N.3   209  LYS209     -0.1245
    124  CA        54.9480    0.1250  -20.9890 C.3   209  LYS209      0.1561
    125  C         55.2310    0.8080  -19.6530 C.2   209  LYS209      0.2260
    126  O         54.4630    1.6660  -19.2120 O.2   209  LYS209     -0.2867
    127  CB        53.4480    0.1120  -21.2750 C.3   209  LYS209      0.0271
    128  CG        53.0950   -0.2280  -22.7140 C.3   209  LYS209      0.0035
    129  CD        51.6840   -0.7850  -22.8200 C.3   209  LYS209      0.0206
    130  CE        51.1950   -0.7780  -24.2580 C.3   209  LYS209      0.1093
    131  NZ        51.0180    0.6130  -24.7610 N.3   209  LYS209     -0.1314
@<TRIPOS>BOND
     1     7     5    1
     2     2     5    1
     3     2     1    1
     4     2     3    1
     5     5     6    1
     6     3     4    2
     7     6     8    1
     8    32    31    2
     9    35    34    1
    10    21    20    2
    11    33    34    1
    12    33    30    1
    13    31    30    1
    14    34    36    1
    15    12    11    2
    16    29    30    1
    17    18    19    1
    18    20    19    1
    19    11    10    1
    20    10     9    1
    21    10    13    1
    22    19    22    1
    23    22    23    1
    24    17    16    1
    25    23    24    1
    26    14    13    1
    27    14    15    1
    28    24    25    1
    29    27    26    1
    30    16    15    1
    31    74    73    2
    32    72    73    1
    33    72    71    1
    34    25    26    2
    35    65    64    2
    36    26    28    1
    37    73    75   am
    38    71    64   am
    39    64    63    1
    40    69    68    2
    41    66    63    1
    42    66    67    1
    43    75    76    1
    44    63    62    1
    45    68    67    1
    46    68    70   am
    47    76    77    1
    48    76    79    1
    49    77    78    2
    50    79    80    1
    51    81    80   ar
    52    81    83   ar
    53    80    82   ar
    54    83    84   ar
    55    59    57   ar
    56    59    60   ar
    57   131   130    1
    58    94    95    1
    59    94    93    1
    60    57    55   ar
    61    61    60    1
    62    82    84   ar
    63    82    85   ar
    64    95    89    1
    65   130   129    1
    66    84    86   ar
    67    60    58   ar
    68   114   113    1
    69    93    90    1
    70    55    54    1
    71    55    56   ar
    72    85    87   ar
    73    54    51    1
    74    89    90    1
    75   129   128    1
    76    86    88   ar
    77   128   127    1
    78    58    56   ar
    79   113   112    1
    80    90    91    1
    81   112   111    1
    82    87    88   ar
    83   122   120   ar
    84   121   120   ar
    85    51    50    1
    86    51    52    1
    87    50    47   am
    88   111   108    1
    89   127   124    1
    90    44    42   ar
    91   120   119    1
    92    52    53    2
    93   123   124    1
    94    45    46    1
    95    91    92    2
    96    43    42   ar
    97   124   125    1
    98    42    41    1
    99    49    46    1
   100    47    46    1
   101    47    48    2
   102    41    38    1
   103   108   107    1
   104   108   109    1
   105   119   116    1
   106   115   109   am
   107   115   116    1
   108   125   126    2
   109   109   110    2
   110   116   117    1
   111   100   101    1
   112   100    97    1
   113    38    39    1
   114    38    37    1
   115   103   101   ar
   116   103   105   ar
   117   117   118    2
   118   101   102   ar
   119   105   106   ar
   120   102   104   ar
   121    39    40    2
   122    96    97    1
   123   106   104   ar
   124    97    98    1
   125    98    99    2
