@<TRIPOS>MOLECULE
tmp/5j2rA00.pdb
 86 81 0 0 0
SMALL
GASTEIGER

@<TRIPOS>ATOM
      1  N        -17.8320   -2.8950   -1.6900 N.3     4  LYS4       -0.1245
      2  CA       -16.4790   -3.4070   -1.5820 C.3     4  LYS4        0.1561
      3  C        -15.4720   -2.2710   -1.7560 C.2     4  LYS4        0.2260
      4  O        -15.2870   -1.7470   -2.8560 O.2     4  LYS4       -0.2867
      5  CB       -16.2550   -4.5260   -2.6130 C.3     4  LYS4        0.0271
      6  CG       -14.8350   -5.0900   -2.6410 C.3     4  LYS4        0.0035
      7  CD       -13.9170   -4.2910   -3.5430 C.3     4  LYS4        0.0206
      8  CE       -14.4000   -4.2910   -4.9890 C.3     4  LYS4        0.1093
      9  NZ       -13.5060   -3.5130   -5.8870 N.3     4  LYS4       -0.1314
     10  N        -11.5860   -0.9350   -1.7000 N.3     6  ILE6       -0.1245
     11  CA       -10.2280   -1.4330   -1.9080 C.3     6  ILE6        0.1561
     12  C         -9.2470   -0.2840   -2.0710 C.2     6  ILE6        0.2260
     13  O         -9.6410    0.8500   -2.3420 O.2     6  ILE6       -0.2867
     14  CB       -10.1190   -2.3710   -3.1380 C.3     6  ILE6        0.0252
     15  CG1      -10.8250   -1.7970   -4.3710 C.3     6  ILE6        0.0019
     16  CG2      -10.6640   -3.7480   -2.8050 C.3     6  ILE6        0.0019
     17  CD1      -10.0500   -0.7180   -5.0850 C.3     6  ILE6        0.0001
     18  N          4.5620   -2.5350  -10.3760 N.3    15  GLN15      -0.1231
     19  CA         3.4460   -3.4420  -10.3850 C.3    15  GLN15       0.1698
     20  C          2.3560   -2.8680   -9.5020 C.2    15  GLN15       0.2592
     21  O          2.5240   -1.7830   -8.9620 O.2    15  GLN15      -0.2718
     22  CB         3.9030   -4.8030   -9.8830 C.3    15  GLN15       0.0381
     23  CG         4.2960   -5.7530  -11.0010 C.3    15  GLN15       0.0905
     24  CD         4.8770   -7.0570  -10.4950 C.2    15  GLN15       0.2608
     25  OE1        5.4950   -7.1070   -9.4310 O.2    15  GLN15      -0.2717
     26  NE2        4.6840   -8.1230  -11.2550 N.am   15  GLN15      -0.0878
     27  N          1.2260   -3.5410   -9.3910 N.am   16  ARG16      -0.1966
     28  CA         0.2050   -3.1100   -8.4700 C.3    16  ARG16       0.1729
     29  C         -0.5860   -4.2940   -7.9340 C.2    16  ARG16       0.2617
     30  O         -0.8560   -5.2560   -8.6500 O.2    16  ARG16      -0.2715
     31  CB        -0.7260   -2.0980   -9.1270 C.3    16  ARG16       0.0348
     32  CG        -1.6550   -2.6850  -10.1570 C.3    16  ARG16       0.0492
     33  CD        -2.5620   -1.6240  -10.7470 C.3    16  ARG16       0.2205
     34  NE        -3.5790   -2.1970  -11.6210 N.pl3  16  ARG16      -0.0865
     35  CZ        -4.4790   -1.4770  -12.2890 C.cat  16  ARG16       0.5346
     36  NH1       -4.4690   -0.1490  -12.2100 N.pl3  16  ARG16       0.1354
     37  NH2       -5.3820   -2.0890  -13.0430 N.pl3  16  ARG16       0.1354
     38  N         -0.8930   -4.2330   -6.6580 N.am   17  THR17      -0.1937
     39  CA        -1.8210   -5.1390   -6.0320 C.3    17  THR17       0.2028
     40  C         -2.8330   -4.3270   -5.2310 C.2    17  THR17       0.2642
     41  O         -2.4630   -3.3720   -4.5530 O.2    17  THR17      -0.2714
     42  CB        -1.0800   -6.1290   -5.1140 C.3    17  THR17       0.1808
     43  OG1       -1.2090   -7.4620   -5.6190 O.3    17  THR17      -0.2208
     44  CG2       -1.5850   -6.0540   -3.6880 C.3    17  THR17       0.0379
     45  N         -4.1010   -4.6710   -5.3160 N.am   18  VAL18      -0.1977
     46  CA        -5.1000   -3.9550   -4.5470 C.3    18  VAL18       0.1596
     47  C         -5.4510   -4.7370   -3.2890 C.2    18  VAL18       0.2287
     48  O         -5.4910   -5.9660   -3.2980 O.2    18  VAL18      -0.2864
     49  CB        -6.3670   -3.6100   -5.3850 C.3    18  VAL18       0.0276
     50  CG1       -6.2130   -4.0620   -6.8280 C.3    18  VAL18       0.0022
     51  CG2       -7.6420   -4.1780   -4.7940 C.3    18  VAL18       0.0022
     52  N         -8.3650   -4.8050   -0.2130 N.3    20  PRO20      -0.2116
     53  CA        -9.6260   -4.3220    0.3290 C.3    20  PRO20       0.1372
     54  C         -9.3980   -3.4950    1.5740 C.2    20  PRO20       0.2244
     55  O         -8.6890   -3.9180    2.4870 O.2    20  PRO20      -0.2868
     56  CB       -10.4160   -5.6020    0.6520 C.3    20  PRO20       0.0268
     57  CG        -9.4420   -6.7200    0.4930 C.3    20  PRO20       0.0207
     58  CD        -8.4260   -6.2370   -0.4970 C.3    20  PRO20       0.0892
     59  N          0.1010   -8.1100    3.1060 N.3    33  LYS33      -0.1245
     60  CA        -0.3010   -8.9990    2.0260 C.3    33  LYS33       0.1561
     61  C          0.2760   -8.5100    0.7090 C.2    33  LYS33       0.2260
     62  O          0.8470   -9.2850   -0.0590 O.2    33  LYS33      -0.2867
     63  CB        -1.8220   -9.0870    1.8750 C.3    33  LYS33       0.0271
     64  CG        -2.2150   -9.9360    0.6780 C.3    33  LYS33       0.0035
     65  CD        -3.6310   -9.6820    0.1880 C.3    33  LYS33       0.0206
     66  CE        -3.8490   -8.2400   -0.2330 C.3    33  LYS33       0.1093
     67  NZ        -5.1760   -8.0590   -0.8760 N.3    33  LYS33      -0.1314
     68  N          2.6860  -10.9640   -1.4430 N.3    37  MET37      -0.1230
     69  CA         2.1670  -11.6600   -2.6220 C.3    37  MET37       0.1702
     70  C          3.1760  -11.5970   -3.7570 C.2    37  MET37       0.2592
     71  O          3.2460  -12.4940   -4.5950 O.2    37  MET37      -0.2718
     72  CB         0.8250  -11.0870   -3.0920 C.3    37  MET37       0.0401
     73  CG        -0.3320  -11.3710   -2.1480 C.3    37  MET37       0.0596
     74  SD        -1.9270  -11.4210   -2.9930 S.3    37  MET37      -0.1393
     75  CE        -2.0450   -9.7360   -3.5750 C.3    37  MET37       0.0692
     76  N          3.9560  -10.5300   -3.7720 N.am   38  ARG38      -0.1980
     77  CA         5.0140  -10.3670   -4.7490 C.3    38  ARG38       0.1597
     78  C          6.2690  -11.0930   -4.2990 C.2    38  ARG38       0.2287
     79  O          7.1960  -11.3000   -5.0770 O.2    38  ARG38      -0.2864
     80  CB         5.3100   -8.8850   -4.9350 C.3    38  ARG38       0.0334
     81  CG         4.1450   -8.0960   -5.5110 C.3    38  ARG38       0.0492
     82  CD         3.9320   -8.3610   -7.0000 C.3    38  ARG38       0.2205
     83  NE         3.7260   -9.7770   -7.3070 N.pl3  38  ARG38      -0.0865
     84  CZ         4.6030  -10.5370   -7.9680 C.cat  38  ARG38       0.5346
     85  NH1        5.7480  -10.0200   -8.4070 N.pl3  38  ARG38       0.1354
     86  NH2        4.3310  -11.8200   -8.1830 N.pl3  38  ARG38       0.1354
@<TRIPOS>BOND
     1    37    35    1
     2    35    36    1
     3    35    34    2
     4    34    33    1
     5    26    24   am
     6    23    24    1
     7    23    22    1
     8    33    32    1
     9    24    25    2
    10    19    18    1
    11    19    22    1
    12    19    20    1
    13    32    31    1
    14    20    27   am
    15    20    21    2
    16    27    28    1
    17    31    28    1
    18    30    29    2
    19    28    29    1
    20    85    84    1
    21    86    84    1
    22    84    83    2
    23    29    38   am
    24    83    82    1
    25    82    81    1
    26    50    49    1
    27    38    39    1
    28    39    40    1
    29    39    42    1
    30     9     8    1
    31    43    42    1
    32    81    80    1
    33    49    51    1
    34    49    46    1
    35    45    40   am
    36    45    46    1
    37    40    41    2
    38    42    44    1
    39    17    15    1
    40    79    78    2
    41     8     7    1
    42    80    77    1
    43    77    78    1
    44    77    76    1
    45    71    70    2
    46    46    47    1
    47    15    14    1
    48    76    70   am
    49    70    69    1
    50    75    74    1
    51     7     6    1
    52    48    47    2
    53    14    16    1
    54    14    11    1
    55    72    69    1
    56    72    73    1
    57    74    73    1
    58     4     3    2
    59     6     5    1
    60    69    68    1
    61     5     2    1
    62    13    12    2
    63    12    11    1
    64    11    10    1
    65     3     2    1
    66     1     2    1
    67    67    66    1
    68    58    52    1
    69    58    57    1
    70    66    65    1
    71    52    53    1
    72    62    61    2
    73    65    64    1
    74    53    56    1
    75    53    54    1
    76    57    56    1
    77    64    63    1
    78    61    60    1
    79    54    55    2
    80    63    60    1
    81    60    59    1
