@<TRIPOS>MOLECULE
tmp/5j2zA00.pdb
 99 93 0 0 0
SMALL
GASTEIGER

@<TRIPOS>ATOM
      1  N         -1.0480   -5.1750  170.9440 N.3   319  THR319     -0.1218
      2  CA        -2.1780   -4.3460  171.3460 C.3   319  THR319      0.1862
      3  C         -2.5740   -4.6360  172.7870 C.2   319  THR319      0.2287
      4  O         -2.8770   -3.7150  173.5470 O.2   319  THR319     -0.2866
      5  CB        -3.3730   -4.5600  170.4090 C.3   319  THR319      0.1770
      6  OG1       -3.7960   -5.9220  170.4690 O.3   319  THR319     -0.2211
      7  CG2       -3.0360   -4.1900  168.9680 C.3   319  THR319      0.0375
      8  N          0.1480   -3.1930  175.1210 N.3   322  TRP322     -0.1227
      9  CA         0.0220   -1.7400  175.1450 C.3   322  TRP322      0.1737
     10  C         -1.2140   -1.3090  175.9320 C.2   322  TRP322      0.2595
     11  O         -1.1850   -0.2920  176.6370 O.2   322  TRP322     -0.2718
     12  CB        -0.0150   -1.1870  173.7090 C.3   322  TRP322      0.0564
     13  CG        -0.2570    0.2980  173.6510 C.ar  322  TRP322      0.0003
     14  CD1       -1.2480    0.9320  172.9790 C.ar  322  TRP322      0.0946
     15  CD2        0.4960    1.3230  174.3250 C.ar  322  TRP322      0.0152
     16  NE1       -1.1490    2.2930  173.1600 N.ar  322  TRP322     -0.2442
     17  CE2       -0.1000    2.5590  173.9980 C.ar  322  TRP322      0.0810
     18  CE3        1.6110    1.3120  175.1770 C.ar  322  TRP322      0.0012
     19  CZ2        0.3770    3.7830  174.4940 C.ar  322  TRP322      0.0191
     20  CZ3        2.0920    2.5290  175.6680 C.ar  322  TRP322      0.0001
     21  CH2        1.4700    3.7480  175.3230 C.ar  322  TRP322      0.0015
     22  N         -2.3060   -2.0780  175.8440 N.am  323  GLU323     -0.1979
     23  CA        -3.4700   -1.7830  176.6730 C.3   323  GLU323      0.1602
     24  C         -3.1080   -1.8110  178.1570 C.2   323  GLU323      0.2287
     25  O         -3.5660   -0.9640  178.9370 O.2   323  GLU323     -0.2864
     26  CB        -4.6060   -2.7630  176.3860 C.3   323  GLU323      0.0415
     27  CG        -5.8370   -2.4700  177.2580 C.3   323  GLU323      0.1163
     28  CD        -7.1210   -3.1660  176.8200 C.2   323  GLU323      0.3649
     29  OE1       -7.2010   -4.4070  176.9150 O.co2 323  GLU323     -0.2457
     30  OE2       -8.0640   -2.4600  176.4040 O.co2 323  GLU323     -0.2457
     31  N         -0.5740    1.0600  179.0880 N.3   326  ALA326     -0.1245
     32  CA        -1.2130    2.3720  179.0300 C.3   326  ALA326      0.1562
     33  C         -2.1960    2.5770  180.1740 C.2   326  ALA326      0.2260
     34  O         -2.4910    3.7190  180.5330 O.2   326  ALA326     -0.2867
     35  CB        -1.9320    2.5540  177.6860 C.3   326  ALA326      0.0290
     36  N         -1.0510    0.9660  162.6890 N.3   364  ALA364     -0.1245
     37  CA        -1.5410    0.9140  164.0630 C.3   364  ALA364      0.1562
     38  C         -0.8550   -0.1890  164.8600 C.2   364  ALA364      0.2260
     39  O         -0.5710   -0.0150  166.0510 O.2   364  ALA364     -0.2867
     40  CB        -3.0530    0.7190  164.0830 C.3   364  ALA364      0.0290
     41  N          2.6590    0.9930  165.7140 N.3   367  ALA367     -0.1231
     42  CA         2.5630    2.0120  166.7490 C.3   367  ALA367      0.1694
     43  C          2.3480    1.3870  168.1300 C.2   367  ALA367      0.2591
     44  O          2.8850    1.8910  169.1240 O.2   367  ALA367     -0.2718
     45  CB         1.4490    3.0020  166.4010 C.3   367  ALA367      0.0304
     46  N          1.5920    0.2870  168.2120 N.am  368  ALA368     -0.1980
     47  CA         1.4450   -0.4150  169.4880 C.3   368  ALA368      0.1597
     48  C          2.7850   -0.9360  169.9850 C.2   368  ALA368      0.2287
     49  O          3.1180   -0.7890  171.1660 O.2   368  ALA368     -0.2864
     50  CB         0.4550   -1.5700  169.3510 C.3   368  ALA368      0.0319
     51  N          4.8870    2.3210  170.9890 N.3   371  CYS371     -0.1235
     52  CA         4.4660    2.8950  172.2650 C.3   371  CYS371      0.1677
     53  C          4.9410    2.0320  173.4260 C.2   371  CYS371      0.2270
     54  O          5.5000    2.5420  174.4000 O.2   371  CYS371     -0.2867
     55  CB         2.9440    3.0430  172.3190 C.3   371  CYS371      0.0956
     56  SG         2.2230    4.3780  171.3520 S.3   371  CYS371     -0.0801
     57  N          3.1040    7.8930  166.4000 N.3   414  LEU414     -0.1231
     58  CA         2.7160    6.7660  167.2390 C.3   414  LEU414      0.1693
     59  C          1.2420    6.8070  167.6500 C.2   414  LEU414      0.2593
     60  O          0.7870    5.8840  168.3280 O.2   414  LEU414     -0.2718
     61  CB         3.6060    6.7030  168.4860 C.3   414  LEU414      0.0284
     62  CG         5.0920    6.3750  168.3610 C.3   414  LEU414      0.0019
     63  CD1        5.8830    6.9960  169.5200 C.3   414  LEU414      0.0001
     64  CD2        5.3620    4.8580  168.2930 C.3   414  LEU414      0.0001
     65  N          0.4810    7.8320  167.2470 N.am  415  GLY415     -0.1942
     66  CA        -0.9070    7.9670  167.6480 C.3   415  GLY415      0.2014
     67  C         -1.1380    8.6520  168.9850 C.2   415  GLY415      0.2639
     68  O         -2.2890    8.7520  169.4200 O.2   415  GLY415     -0.2714
     69  N         -0.1070    9.1090  169.6420 N.am  416  LEU416     -0.1963
     70  CA        -0.1900    9.8170  170.9010 C.3   416  LEU416      0.1713
     71  C         -0.3810   11.3140  170.6790 C.2   416  LEU416      0.2458
     72  O          0.0660   11.8710  169.6640 O.2   416  LEU416     -0.2730
     73  CB         1.0720    9.5750  171.7230 C.3   416  LEU416      0.0310
     74  CG         1.2730    8.1020  172.0950 C.3   416  LEU416      0.0022
     75  CD1        2.6730    7.8770  172.6610 C.3   416  LEU416      0.0001
     76  CD2        0.1910    7.6390  173.0830 C.3   416  LEU416      0.0001
     77  N         -1.0870   11.9580  171.6030 N.am  417  PRO417     -0.2727
     78  CA        -1.1540   13.4220  171.6050 C.3   417  PRO417      0.1402
     79  C          0.1960   13.9980  172.0130 C.2   417  PRO417      0.2269
     80  O          1.1040   13.2820  172.4340 O.2   417  PRO417     -0.2865
     81  CB        -2.2270   13.7180  172.6540 C.3   417  PRO417      0.0296
     82  CG        -2.0110   12.6230  173.6750 C.3   417  PRO417      0.0237
     83  CD        -1.6430   11.3770  172.8350 C.3   417  PRO417      0.0939
     84  N          2.1850   12.8250  174.9290 N.3   420  GLY420     -0.1225
     85  CA         1.5620   11.5430  175.2000 C.3   420  GLY420      0.1811
     86  C          2.4440   10.6320  176.0340 C.2   420  GLY420      0.2280
     87  O          1.9630    9.9570  176.9410 O.2   420  GLY420     -0.2866
     88  N          2.5500   11.5790  179.5800 N.3   423  ALA423     -0.1231
     89  CA         1.2650   11.3020  180.2140 C.3   423  ALA423      0.1694
     90  C          1.2200    9.8800  180.7580 C.2   423  ALA423      0.2591
     91  O          0.7040    9.6490  181.8590 O.2   423  ALA423     -0.2718
     92  CB         0.1170   11.5350  179.2230 C.3   423  ALA423      0.0304
     93  N          1.7630    8.9140  180.0020 N.am  424  VAL424     -0.1980
     94  CA         1.6900    7.5140  180.4220 C.3   424  VAL424      0.1595
     95  C          2.6970    7.2420  181.5340 C.2   424  VAL424      0.2287
     96  O          2.3800    6.5960  182.5410 O.2   424  VAL424     -0.2864
     97  CB         1.9030    6.5790  179.2140 C.3   424  VAL424      0.0276
     98  CG1        2.0930    5.1350  179.6730 C.3   424  VAL424      0.0022
     99  CG2        0.7190    6.6900  178.2270 C.3   424  VAL424      0.0022
@<TRIPOS>BOND
     1    36    37    1
     2    37    40    1
     3    37    38    1
     4    38    39    2
     5    41    42    1
     6    57    58    1
     7    45    42    1
     8    42    43    1
     9    58    59    1
    10    58    61    1
    11    65    66    1
    12    65    59   am
    13    66    67    1
    14    59    60    2
    15    43    46   am
    16    43    44    2
    17    46    47    1
    18    64    62    1
    19    62    61    1
    20    62    63    1
    21     7     5    1
    22    67    68    2
    23    67    69   am
    24    50    47    1
    25    47    48    1
    26    69    70    1
    27    72    71    2
    28    48    49    2
    29     5     6    1
    30     5     2    1
    31    71    70    1
    32    71    77   am
    33    70    73    1
    34     1     2    1
    35    51    52    1
    36     2     3    1
    37    56    55    1
    38    77    78    1
    39    77    83    1
    40    78    79    1
    41    78    81    1
    42    73    74    1
    43    79    80    2
    44    74    75    1
    45    74    76    1
    46    52    55    1
    47    52    53    1
    48    81    82    1
    49     3     4    2
    50    83    82    1
    51    14    16   ar
    52    14    13   ar
    53    16    17   ar
    54    53    54    2
    55    13    12    1
    56    13    15   ar
    57    12     9    1
    58    17    15   ar
    59    17    19   ar
    60    15    18   ar
    61    19    21   ar
    62    84    85    1
    63     8     9    1
    64     9    10    1
    65    18    20   ar
    66    85    86    1
    67    21    20   ar
    68    22    10   am
    69    22    23    1
    70    10    11    2
    71    86    87    2
    72    26    23    1
    73    26    27    1
    74    30    28   ar
    75    23    24    1
    76    28    29   ar
    77    28    27    1
    78    35    32    1
    79    24    25    2
    80    99    97    1
    81    32    31    1
    82    32    33    1
    83    97    98    1
    84    97    94    1
    85    92    89    1
    86    88    89    1
    87    93    94    1
    88    93    90   am
    89    33    34    2
    90    89    90    1
    91    94    95    1
    92    90    91    2
    93    95    96    2
