@<TRIPOS>MOLECULE
tmp/5j32A00.pdb
 111 101 0 0 0
SMALL
GASTEIGER

@<TRIPOS>ATOM
      1  N         15.5040   12.5190   25.5580 N.3    84  ILE84      -0.1245
      2  CA        16.2540   13.7420   25.2910 C.3    84  ILE84       0.1561
      3  C         15.8080   14.4160   23.9830 C.2    84  ILE84       0.2260
      4  O         15.6430   13.7370   22.9770 O.2    84  ILE84      -0.2867
      5  CB        17.7690   13.3920   25.1560 C.3    84  ILE84       0.0252
      6  CG1       18.3390   12.9100   26.4900 C.3    84  ILE84       0.0019
      7  CG2       18.5690   14.5550   24.6060 C.3    84  ILE84       0.0019
      8  CD1       17.9540   13.7720   27.6540 C.3    84  ILE84       0.0001
      9  N         21.1710   16.5390   22.7570 N.3    99  GLU99      -0.1245
     10  CA        21.8760   15.2890   22.4310 C.3    99  GLU99       0.1567
     11  C         23.2820   15.2820   23.0070 C.2    99  GLU99       0.2260
     12  O         23.8310   14.2230   23.3130 O.2    99  GLU99      -0.2867
     13  CB        22.0600   15.1090   20.9060 C.3    99  GLU99       0.0388
     14  CG        20.8740   15.3510   20.0230 C.3    99  GLU99       0.1160
     15  CD        20.6540   16.8170   19.7550 C.2    99  GLU99       0.3649
     16  OE1       19.8100   17.4020   20.4620 O.co2  99  GLU99      -0.2457
     17  OE2       21.3110   17.3830   18.8420 O.co2  99  GLU99      -0.2457
     18  N         23.4960   13.6790   26.3030 N.3   102  LEU102     -0.1231
     19  CA        23.4180   12.2170   26.2380 C.3   102  LEU102      0.1693
     20  C         24.7760   11.5820   25.9020 C.2   102  LEU102      0.2591
     21  O         25.1780   10.5890   26.5270 O.2   102  LEU102     -0.2718
     22  CB        22.3360   11.7770   25.2340 C.3   102  LEU102      0.0284
     23  CG        22.1490   10.2740   24.9670 C.3   102  LEU102      0.0019
     24  CD1       21.7520    9.4890   26.1990 C.3   102  LEU102      0.0001
     25  CD2       21.1250   10.0580   23.8720 C.3   102  LEU102      0.0001
     26  N         25.4860   12.1430   24.9230 N.am  103  LEU103     -0.1980
     27  CA        26.8150   11.6270   24.5900 C.3   103  LEU103      0.1596
     28  C         27.7690   11.8150   25.7640 C.2   103  LEU103      0.2287
     29  O         28.5670   10.9290   26.0880 O.2   103  LEU103     -0.2864
     30  CB        27.3720   12.3480   23.3600 C.3   103  LEU103      0.0297
     31  CG        26.4850   12.2440   22.1260 C.3   103  LEU103      0.0022
     32  CD1       26.9690   13.1590   21.0110 C.3   103  LEU103      0.0001
     33  CD2       26.4530   10.8040   21.6700 C.3   103  LEU103      0.0001
     34  N         27.2230    9.2420   28.6390 N.3   106  ARG106     -0.1245
     35  CA        27.7430    7.9290   28.2600 C.3   106  ARG106      0.1563
     36  C         29.2450    7.8960   28.5000 C.2   106  ARG106      0.2260
     37  O         29.7540    6.9970   29.1590 O.2   106  ARG106     -0.2867
     38  CB        27.4430    7.6440   26.8000 C.3   106  ARG106      0.0307
     39  CG        25.9590    7.4310   26.5190 C.3   106  ARG106      0.0489
     40  CD        25.7470    7.3270   25.0130 C.3   106  ARG106      0.2205
     41  NE        24.3590    7.0240   24.6760 N.pl3 106  ARG106     -0.0865
     42  CZ        23.8700    7.0220   23.4390 C.cat 106  ARG106      0.5346
     43  NH1       24.6530    7.2990   22.4040 N.pl3 106  ARG106      0.1354
     44  NH2       22.5900    6.7410   23.2390 N.pl3 106  ARG106      0.1354
     45  N         20.9230   -3.7880   23.3110 N.3   116  ARG116     -0.1245
     46  CA        19.5930   -3.4800   22.7910 C.3   116  ARG116      0.1563
     47  C         18.8900   -4.7190   22.2440 C.2   116  ARG116      0.2260
     48  O         19.1570   -5.1480   21.1160 O.2   116  ARG116     -0.2867
     49  CB        19.6830   -2.3970   21.7150 C.3   116  ARG116      0.0307
     50  CG        19.9940   -1.0210   22.2860 C.3   116  ARG116      0.0489
     51  CD        20.1550    0.0180   21.2000 C.3   116  ARG116      0.2205
     52  NE        18.9460    0.1470   20.3920 N.pl3 116  ARG116     -0.0865
     53  CZ        18.7480    1.1170   19.5060 C.cat 116  ARG116      0.5346
     54  NH1       19.6800    2.0430   19.3190 N.pl3 116  ARG116      0.1354
     55  NH2       17.6250    1.1590   18.8060 N.pl3 116  ARG116      0.1354
     56  N         26.3940   -2.9920   21.2430 N.3   144  ARG144     -0.1245
     57  CA        27.0080   -1.8770   20.5070 C.3   144  ARG144      0.1563
     58  C         28.0710   -1.1980   21.3580 C.2   144  ARG144      0.2260
     59  O         27.8360   -0.8880   22.5330 O.2   144  ARG144     -0.2867
     60  CB        25.9220   -0.8720   20.0770 C.3   144  ARG144      0.0307
     61  CG        26.4220    0.5390   19.7600 C.3   144  ARG144      0.0489
     62  CD        25.2600    1.5260   19.6570 C.3   144  ARG144      0.2205
     63  NE        25.7140    2.8760   19.2940 N.pl3 144  ARG144     -0.0865
     64  CZ        24.9440    3.9590   19.3660 C.cat 144  ARG144      0.5346
     65  NH1       23.6910    3.8510   19.7850 N.pl3 144  ARG144      0.1354
     66  NH2       25.4200    5.1510   19.0240 N.pl3 144  ARG144      0.1354
     67  N         32.2980    8.4780   17.1410 N.3   151  TYR151     -0.1241
     68  CA        31.5160    9.3520   18.0260 C.3   151  TYR151      0.1605
     69  C         32.3880   10.1940   18.9400 C.2   151  TYR151      0.2264
     70  O         32.0240   11.3340   19.2820 O.2   151  TYR151     -0.2867
     71  CB        30.5940    8.5110   18.9080 C.3   151  TYR151      0.0534
     72  CG        29.2500    8.1740   18.2880 C.ar  151  TYR151     -0.0201
     73  CD1       29.1610    7.5750   17.0320 C.ar  151  TYR151     -0.0009
     74  CD2       28.0740    8.4270   18.9820 C.ar  151  TYR151     -0.0009
     75  CE1       27.9190    7.2580   16.4760 C.ar  151  TYR151      0.0417
     76  CE2       26.8320    8.1250   18.4370 C.ar  151  TYR151      0.0417
     77  CZ        26.7670    7.5320   17.1910 C.ar  151  TYR151      0.1957
     78  OH        25.5280    7.2420   16.6640 O.3   151  TYR151     -0.2866
     79  N         24.5980    2.0360   16.0630 N.3   258  ASP258     -0.1239
     80  CA        23.4910    2.9810   16.0200 C.3   258  ASP258      0.1674
     81  C         22.5400    2.6460   14.8690 C.2   258  ASP258      0.2266
     82  O         21.3140    2.5380   15.0560 O.2   258  ASP258     -0.2867
     83  CB        24.0290    4.4070   15.8520 C.3   258  ASP258      0.1410
     84  CG        22.9330    5.4150   15.5360 C.2   258  ASP258      0.3668
     85  OD1       21.9110    5.4230   16.2570 O.co2 258  ASP258     -0.2456
     86  OD2       23.0990    6.2050   14.5700 O.co2 258  ASP258     -0.2456
     87  N         18.7940    0.3850   15.3190 N.3   262  ASP262     -0.1239
     88  CA        17.5950    1.1250   14.9560 C.3   262  ASP262      0.1674
     89  C         16.8590    0.4250   13.8190 C.2   262  ASP262      0.2266
     90  O         15.6250    0.3180   13.8440 O.2   262  ASP262     -0.2867
     91  CB        17.9330    2.5760   14.5750 C.3   262  ASP262      0.1410
     92  CG        17.8950    3.5260   15.7700 C.2   262  ASP262      0.3668
     93  OD1       17.4340    3.1160   16.8600 O.co2 262  ASP262     -0.2456
     94  OD2       18.3110    4.6960   15.6160 O.co2 262  ASP262     -0.2456
     95  N         17.6300    3.0740   29.6080 N.3   288  GLU288     -0.1245
     96  CA        16.7510    4.0460   28.9550 C.3   288  GLU288      0.1567
     97  C         16.0180    3.4360   27.7650 C.2   288  GLU288      0.2260
     98  O         16.5270    2.5110   27.1180 O.2   288  GLU288     -0.2867
     99  CB        17.5690    5.2530   28.4730 C.3   288  GLU288      0.0388
    100  CG        18.3500    4.9950   27.1920 C.3   288  GLU288      0.1160
    101  CD        19.2970    6.1230   26.8380 C.2   288  GLU288      0.3649
    102  OE1       18.8270    7.1600   26.3210 O.co2 288  GLU288     -0.2457
    103  OE2       20.5120    5.9680   27.0720 O.co2 288  GLU288     -0.2457
    104  N         14.5980    3.1620   23.9230 N.3   290  ILE290     -0.1245
    105  CA        15.2480    3.5620   22.6830 C.3   290  ILE290      0.1561
    106  C         14.4430    4.6290   21.9420 C.2   290  ILE290      0.2260
    107  O         14.9650    5.2940   21.0500 O.2   290  ILE290     -0.2867
    108  CB        15.5520    2.3500   21.7700 C.3   290  ILE290      0.0252
    109  CG1       14.2700    1.6340   21.3660 C.3   290  ILE290      0.0019
    110  CG2       16.5080    1.3810   22.4520 C.3   290  ILE290      0.0019
    111  CD1       13.8630    1.9150   19.9510 C.3   290  ILE290      0.0001
@<TRIPOS>BOND
     1    89    90    2
     2    89    88    1
     3    86    84   ar
     4    91    88    1
     5    91    92    1
     6    81    82    2
     7    81    80    1
     8    88    87    1
     9    84    83    1
    10    84    85   ar
    11    94    92   ar
    12    92    93   ar
    13    83    80    1
    14    80    79    1
    15    75    73   ar
    16    75    77   ar
    17    78    77    1
    18    73    72   ar
    19    67    68    1
    20    77    76   ar
    21    68    71    1
    22    68    69    1
    23    72    71    1
    24    72    74   ar
    25    76    74   ar
    26    55    53    1
    27    17    15   ar
    28    69    70    2
    29    66    64    1
    30    63    64    2
    31    63    62    1
    32    54    53    1
    33    64    65    1
    34    53    52    2
    35    62    61    1
    36    15    14    1
    37    15    16   ar
    38    61    60    1
    39   111   109    1
    40    14    13    1
    41    60    57    1
    42    52    51    1
    43    57    56    1
    44    57    58    1
    45    13    10    1
    46    32    31    1
    47   107   106    2
    48    48    47    2
    49    51    50    1
    50    58    59    2
    51   109   108    1
    52    33    31    1
    53    49    50    1
    54    49    46    1
    55   108   110    1
    56   108   105    1
    57   106   105    1
    58    31    30    1
    59    47    46    1
    60    43    42    1
    61    10     9    1
    62    10    11    1
    63   105   104    1
    64    46    45    1
    65     4     3    2
    66    11    12    2
    67    44    42    1
    68    30    27    1
    69    42    41    2
    70    25    23    1
    71     3     2    1
    72    27    26    1
    73    27    28    1
    74     7     5    1
    75    41    40    1
    76    26    20   am
    77    23    22    1
    78    23    24    1
    79    40    39    1
    80     5     2    1
    81     5     6    1
    82    22    19    1
    83     2     1    1
    84    28    29    2
    85    20    19    1
    86    20    21    2
    87    19    18    1
    88   102   101   ar
    89     6     8    1
    90    39    38    1
    91    38    35    1
    92   101   103   ar
    93   101   100    1
    94    98    97    2
    95   100    99    1
    96    97    96    1
    97    35    36    1
    98    35    34    1
    99    99    96    1
   100    36    37    2
   101    96    95    1
