@<TRIPOS>MOLECULE
tmp/5j33B01.pdb
 218 209 0 0 0
SMALL
GASTEIGER

@<TRIPOS>ATOM
      1  N         35.0560   -6.9800  -42.4750 N.3    13  ILE13      -0.1245
      2  CA        35.6930   -5.6830  -42.3980 C.3    13  ILE13       0.1561
      3  C         37.1380   -5.7810  -41.9650 C.2    13  ILE13       0.2260
      4  O         37.7880   -4.7470  -41.8050 O.2    13  ILE13      -0.2867
      5  CB        34.9240   -4.7330  -41.4770 C.3    13  ILE13       0.0252
      6  CG1       34.4680   -5.4440  -40.2330 C.3    13  ILE13       0.0019
      7  CG2       33.6860   -4.2810  -42.1730 C.3    13  ILE13       0.0019
      8  CD1       33.8880   -4.5050  -39.2150 C.3    13  ILE13       0.0001
      9  N         45.3820   -8.7950  -35.5020 N.3    71  LEU71      -0.1245
     10  CA        44.4140   -9.4970  -36.3230 C.3    71  LEU71       0.1561
     11  C         43.1970   -8.6170  -36.5250 C.2    71  LEU71       0.2260
     12  O         42.8200   -7.8400  -35.6540 O.2    71  LEU71      -0.2867
     13  CB        43.9960  -10.8240  -35.6830 C.3    71  LEU71       0.0270
     14  CG        43.0660  -11.7950  -36.4270 C.3    71  LEU71       0.0019
     15  CD1       43.3490  -13.2300  -36.0720 C.3    71  LEU71       0.0001
     16  CD2       41.6550  -11.5150  -36.0750 C.3    71  LEU71       0.0001
     17  N         39.5100   -9.5920  -38.3570 N.3    73  ALA73      -0.1231
     18  CA        38.3890  -10.4390  -37.9830 C.3    73  ALA73       0.1694
     19  C         38.3720  -11.6390  -38.9210 C.2    73  ALA73       0.2592
     20  O         39.2210  -11.7560  -39.8070 O.2    73  ALA73      -0.2718
     21  CB        37.0840   -9.6390  -37.9850 C.3    73  ALA73       0.0304
     22  N         37.4090  -12.5480  -38.7190 N.am   74  ILE74      -0.1966
     23  CA        37.4030  -13.8310  -39.4190 C.3    74  ILE74       0.1727
     24  C         35.9840  -14.3150  -39.6530 C.2    74  ILE74       0.2617
     25  O         35.1270  -14.1990  -38.7860 O.2    74  ILE74      -0.2715
     26  CB        38.2180  -14.8510  -38.6120 C.3    74  ILE74       0.0290
     27  CG1       39.6900  -14.5760  -38.8170 C.3    74  ILE74       0.0022
     28  CG2       37.8990  -16.2600  -39.0000 C.3    74  ILE74       0.0023
     29  CD1       40.5060  -15.7190  -38.4570 C.3    74  ILE74       0.0001
     30  N         35.7690  -14.9680  -40.7800 N.am   75  GLY75      -0.1940
     31  CA        34.4690  -15.5390  -41.0530 C.3    75  GLY75       0.2014
     32  C         33.7310  -14.7430  -42.1110 C.2    75  GLY75       0.2639
     33  O         34.0740  -13.6020  -42.4270 O.2    75  GLY75      -0.2714
     34  N         32.7400  -15.3890  -42.7120 N.am   76  GLY76      -0.1939
     35  CA        32.0100  -14.7700  -43.8050 C.3    76  GLY76       0.2014
     36  C         30.9540  -15.7170  -44.3180 C.2    76  GLY76       0.2638
     37  O         30.9730  -16.9080  -44.0130 O.2    76  GLY76      -0.2714
     38  N         30.0070  -15.1510  -45.0800 N.am   77  TYR77      -0.1973
     39  CA        28.8830  -15.9500  -45.5690 C.3    77  TYR77       0.1639
     40  C         29.3250  -17.0760  -46.4990 C.2    77  TYR77       0.2290
     41  O         28.7110  -18.1430  -46.5150 O.2    77  TYR77      -0.2864
     42  CB        27.8360  -15.0980  -46.2800 C.3    77  TYR77       0.0560
     43  CG        27.1090  -14.0550  -45.4680 C.ar   77  TYR77      -0.0198
     44  CD1       27.2010  -14.0090  -44.0960 C.ar   77  TYR77      -0.0009
     45  CD2       26.2080  -13.2020  -46.0800 C.ar   77  TYR77      -0.0009
     46  CE1       26.4810  -13.0660  -43.3650 C.ar   77  TYR77       0.0417
     47  CE2       25.4870  -12.2720  -45.3640 C.ar   77  TYR77       0.0417
     48  CZ        25.6260  -12.2000  -44.0110 C.ar   77  TYR77       0.1957
     49  OH        24.8970  -11.2610  -43.3120 O.3    77  TYR77      -0.2866
     50  N         30.2500  -20.1960  -44.5870 N.3    80  ASP80      -0.1239
     51  CA        29.3950  -20.6510  -43.5090 C.3    80  ASP80       0.1674
     52  C         28.9370  -22.0840  -43.7000 C.2    80  ASP80       0.2266
     53  O         28.3970  -22.6670  -42.7580 O.2    80  ASP80      -0.2867
     54  CB        28.1420  -19.7810  -43.3960 C.3    80  ASP80       0.1410
     55  CG        28.3480  -18.5280  -42.5730 C.2    80  ASP80       0.3668
     56  OD1       29.4370  -18.3290  -41.9870 O.co2  80  ASP80      -0.2456
     57  OD2       27.3750  -17.7430  -42.4980 O.co2  80  ASP80      -0.2456
     58  N         36.2570  -19.7070  -38.4850 N.3    89  GLU89      -0.1245
     59  CA        36.4150  -19.5030  -37.0620 C.3    89  GLU89       0.1567
     60  C         37.3550  -20.5330  -36.4510 C.2    89  GLU89       0.2260
     61  O         37.9740  -20.2790  -35.4150 O.2    89  GLU89      -0.2867
     62  CB        35.0310  -19.5400  -36.4410 C.3    89  GLU89       0.0388
     63  CG        34.0820  -18.5140  -37.0470 C.3    89  GLU89       0.1160
     64  CD        33.4020  -18.9840  -38.3360 C.2    89  GLU89       0.3649
     65  OE1       32.6890  -18.1910  -38.9880 O.co2  89  GLU89      -0.2457
     66  OE2       33.6410  -20.1260  -38.7480 O.co2  89  GLU89      -0.2457
     67  N         40.8230  -19.0940  -36.2040 N.3    92  LEU92      -0.1245
     68  CA        41.0550  -18.2030  -35.0800 C.3    92  LEU92       0.1561
     69  C         41.3680  -18.9760  -33.8130 C.2    92  LEU92       0.2260
     70  O         42.3450  -18.6740  -33.1260 O.2    92  LEU92      -0.2867
     71  CB        39.8420  -17.3150  -34.8810 C.3    92  LEU92       0.0270
     72  CG        39.9940  -16.3580  -33.7300 C.3    92  LEU92       0.0019
     73  CD1       41.2920  -15.6440  -33.8690 C.3    92  LEU92       0.0001
     74  CD2       38.8800  -15.3690  -33.8350 C.3    92  LEU92       0.0001
     75  N         44.9700  -18.9470  -31.6730 N.3    96  ARG96      -0.1245
     76  CA        45.0750  -18.6440  -30.2510 C.3    96  ARG96       0.1563
     77  C         45.8470  -19.7350  -29.5320 C.2    96  ARG96       0.2260
     78  O         46.6990  -19.4460  -28.6870 O.2    96  ARG96      -0.2867
     79  CB        43.7020  -18.4830  -29.6180 C.3    96  ARG96       0.0307
     80  CG        42.7120  -17.6420  -30.3670 C.3    96  ARG96       0.0489
     81  CD        42.2480  -16.4800  -29.5440 C.3    96  ARG96       0.2205
     82  NE        41.2120  -15.6920  -30.1980 N.pl3  96  ARG96      -0.0865
     83  CZ        39.9190  -15.8980  -29.9880 C.cat  96  ARG96       0.5346
     84  NH1       39.5410  -16.8680  -29.1680 N.pl3  96  ARG96       0.1354
     85  NH2       39.0120  -15.1540  -30.5940 N.pl3  96  ARG96       0.1354
     86  N         39.8510   -7.8550  -22.3340 N.3   106  ARG106     -0.1245
     87  CA        38.8890   -7.0210  -23.0510 C.3   106  ARG106      0.1563
     88  C         38.4370   -5.8640  -22.1820 C.2   106  ARG106      0.2260
     89  O         37.5700   -6.0470  -21.3150 O.2   106  ARG106     -0.2867
     90  CB        37.7010   -7.8630  -23.4940 C.3   106  ARG106      0.0307
     91  CG        38.1670   -9.0450  -24.2890 C.3   106  ARG106      0.0489
     92  CD        37.0560   -9.8260  -24.9070 C.3   106  ARG106      0.2205
     93  NE        37.5890  -10.4410  -26.1050 N.pl3 106  ARG106     -0.0865
     94  CZ        36.8610  -11.0430  -27.0210 C.cat 106  ARG106      0.5346
     95  NH1       35.5400  -11.1310  -26.8800 N.pl3 106  ARG106      0.1354
     96  NH2       37.4730  -11.5310  -28.0850 N.pl3 106  ARG106      0.1354
     97  N         33.4900  -14.7500  -23.7920 N.3   248  ASP248     -0.1239
     98  CA        32.9660  -14.3350  -25.0860 C.3   248  ASP248      0.1674
     99  C         31.6160  -13.6440  -24.9290 C.2   248  ASP248      0.2266
    100  O         31.4250  -12.5190  -25.3950 O.2   248  ASP248     -0.2867
    101  CB        32.8570  -15.5460  -26.0070 C.3   248  ASP248      0.1410
    102  CG        32.9760  -15.1850  -27.4810 C.2   248  ASP248      0.3668
    103  OD1       32.9080  -13.9900  -27.8540 O.co2 248  ASP248     -0.2456
    104  OD2       33.1420  -16.1250  -28.2770 O.co2 248  ASP248     -0.2456
    105  N         29.7350   -2.3710  -30.3340 N.3   261  ILE261     -0.1231
    106  CA        30.7260   -3.4330  -30.3180 C.3   261  ILE261      0.1692
    107  C         31.9670   -2.9800  -31.0440 C.2   261  ILE261      0.2592
    108  O         33.0260   -3.5960  -30.9210 O.2   261  ILE261     -0.2718
    109  CB        30.0960   -4.7110  -30.9110 C.3   261  ILE261      0.0266
    110  CG1       30.9130   -5.9580  -30.5930 C.3   261  ILE261      0.0019
    111  CG2       29.8580   -4.5420  -32.3710 C.3   261  ILE261      0.0020
    112  CD1       30.3570   -7.2080  -31.2180 C.3   261  ILE261      0.0001
    113  N         31.8620   -1.8900  -31.7710 N.am  262  GLY262     -0.1957
    114  CA        33.0210   -1.4510  -32.4900 C.3   262  GLY262      0.1869
    115  C         33.9690   -0.6020  -31.6920 C.2   262  GLY262      0.2309
    116  O         34.9210   -0.0610  -32.2580 O.2   262  GLY262     -0.2863
    117  N         43.4150   -7.9320  -31.4410 N.3   278  GLU278     -0.1231
    118  CA        42.3110   -7.9880  -32.3790 C.3   278  GLU278      0.1684
    119  C         41.1760   -7.2110  -31.7550 C.2   278  GLU278      0.2434
    120  O         41.1800   -6.9720  -30.5430 O.2   278  GLU278     -0.2733
    121  CB        41.8550   -9.4220  -32.6350 C.3   278  GLU278      0.0402
    122  CG        41.4210  -10.0620  -31.3260 C.3   278  GLU278      0.1161
    123  CD        40.5700  -11.3020  -31.4720 C.2   278  GLU278      0.3649
    124  OE1       39.9330  -11.4800  -32.5370 O.co2 278  GLU278     -0.2457
    125  OE2       40.5310  -12.0830  -30.4930 O.co2 278  GLU278     -0.2457
    126  N         40.2300   -6.7550  -32.5460 N.am  279  PRO279     -0.2718
    127  CA        38.9920   -6.2340  -31.9780 C.3   279  PRO279      0.1535
    128  C         38.0260   -7.3550  -31.6570 C.2   279  PRO279      0.2598
    129  O         38.0240   -8.4020  -32.3010 O.2   279  PRO279     -0.2715
    130  CB        38.4520   -5.3540  -33.1010 C.3   279  PRO279      0.0310
    131  CG        38.9940   -5.9800  -34.3290 C.3   279  PRO279      0.0237
    132  CD        40.3240   -6.5340  -33.9920 C.3   279  PRO279      0.0939
    133  N         37.1950   -7.1270  -30.6380 N.am  280  ILE280     -0.1964
    134  CA        36.2810   -8.1840  -30.2300 C.3   280  ILE280      0.1727
    135  C         35.1670   -8.3220  -31.2420 C.2   280  ILE280      0.2616
    136  O         34.4480   -9.3250  -31.2450 O.2   280  ILE280     -0.2715
    137  CB        35.6560   -7.9460  -28.8480 C.3   280  ILE280      0.0290
    138  CG1       34.4740   -7.0090  -28.9450 C.3   280  ILE280      0.0022
    139  CG2       36.6340   -7.3050  -27.9440 C.3   280  ILE280      0.0023
    140  CD1       33.5960   -7.1020  -27.7710 C.3   280  ILE280      0.0001
    141  N         34.9690   -7.3000  -32.0710 N.am  281  HIS281     -0.1959
    142  CA        33.9720   -7.3810  -33.1150 C.3   281  HIS281      0.1787
    143  C         34.4530   -8.3560  -34.1620 C.2   281  HIS281      0.2621
    144  O         35.4940   -9.0040  -34.0370 O.2   281  HIS281     -0.2715
    145  CB        33.6930   -6.0250  -33.7730 C.3   281  HIS281      0.0785
    146  CG        34.8510   -5.4340  -34.5290 C.ar  281  HIS281      0.0821
    147  ND1       35.2880   -5.9380  -35.7340 N.ar  281  HIS281     -0.2267
    148  CD2       35.6050   -4.3350  -34.2950 C.ar  281  HIS281      0.1154
    149  CE1       36.2910   -5.2060  -36.1850 C.ar  281  HIS281      0.1986
    150  NE2       36.4990   -4.2220  -35.3340 N.ar  281  HIS281     -0.2212
    151  N         33.6400   -8.5190  -35.1670 N.am  282  GLY282     -0.1940
    152  CA        34.0650   -9.3330  -36.2510 C.3   282  GLY282      0.2014
    153  C         32.7850   -9.9350  -36.6280 C.2   282  GLY282      0.2640
    154  O         32.1040  -10.4510  -35.7800 O.2   282  GLY282     -0.2714
    155  N         32.4720   -9.8880  -37.9060 N.am  283  SER283     -0.1935
    156  CA        33.3620   -9.3380  -38.9060 C.3   283  SER283      0.2055
    157  C         32.4250   -8.8110  -39.9150 C.2   283  SER283      0.2643
    158  O         32.4730   -9.2190  -41.0620 O.2   283  SER283     -0.2714
    159  CB        34.2320  -10.3700  -39.5750 C.3   283  SER283      0.2130
    160  OG        33.4050  -11.2430  -40.3110 O.3   283  SER283     -0.2179
    161  N         31.4420   -8.1260  -39.4120 N.am  284  ALA284     -0.1963
    162  CA        30.4870   -7.3660  -40.1710 C.3   284  ALA284      0.1713
    163  C         30.2830   -7.9260  -41.5580 C.2   284  ALA284      0.2458
    164  O         30.6210   -7.2620  -42.5460 O.2   284  ALA284     -0.2730
    165  CB        30.9690   -5.9360  -40.2530 C.3   284  ALA284      0.0333
    166  N         29.8090   -9.1540  -41.6900 N.am  285  PRO285     -0.2716
    167  CA        29.5980   -9.6960  -43.0360 C.3   285  PRO285      0.1536
    168  C         28.5860   -8.8970  -43.8310 C.2   285  PRO285      0.2599
    169  O         28.6460   -8.9080  -45.0590 O.2   285  PRO285     -0.2715
    170  CB        29.1040  -11.1130  -42.7570 C.3   285  PRO285      0.0310
    171  CG        28.4890  -11.0260  -41.3780 C.3   285  PRO285      0.0237
    172  CD        29.3450  -10.0640  -40.6360 C.3   285  PRO285      0.0939
    173  N         27.7180   -8.1480  -43.1540 N.am  286  ASP286     -0.1958
    174  CA        26.6130   -7.3940  -43.7180 C.3   286  ASP286      0.1840
    175  C         26.9370   -5.9500  -44.0270 C.2   286  ASP286      0.2621
    176  O         26.1190   -5.2750  -44.6600 O.2   286  ASP286     -0.2715
    177  CB        25.4470   -7.4050  -42.7410 C.3   286  ASP286      0.1450
    178  CG        25.8820   -6.9950  -41.3450 C.2   286  ASP286      0.3671
    179  OD1       27.1050   -7.0310  -41.0910 O.co2 286  ASP286     -0.2456
    180  OD2       25.0370   -6.6190  -40.5040 O.co2 286  ASP286     -0.2456
    181  N         28.0530   -5.4290  -43.5410 N.am  287  ILE287     -0.1977
    182  CA        28.5090   -4.1220  -43.9830 C.3   287  ILE287      0.1596
    183  C         29.9100   -4.2260  -44.5580 C.2   287  ILE287      0.2287
    184  O         30.6680   -3.2730  -44.5620 O.2   287  ILE287     -0.2864
    185  CB        28.4490   -3.0800  -42.8550 C.3   287  ILE287      0.0276
    186  CG1       29.3640   -3.4690  -41.7390 C.3   287  ILE287      0.0022
    187  CG2       27.0930   -3.0400  -42.2730 C.3   287  ILE287      0.0022
    188  CD1       29.6100   -2.3900  -40.7840 C.3   287  ILE287      0.0001
    189  N         31.0700    1.2050  -44.0170 N.3   292  LYS292     -0.1231
    190  CA        30.2780    1.7300  -42.9160 C.3   292  LYS292      0.1693
    191  C         30.9250    1.5190  -41.5510 C.2   292  LYS292      0.2592
    192  O         30.5470    2.1970  -40.5840 O.2   292  LYS292     -0.2718
    193  CB        28.9010    1.0510  -42.8730 C.3   292  LYS292      0.0285
    194  CG        27.9170    1.2420  -44.0150 C.3   292  LYS292      0.0035
    195  CD        26.5520    0.7800  -43.5290 C.3   292  LYS292      0.0206
    196  CE        25.5540    0.5940  -44.6160 C.3   292  LYS292      0.1093
    197  NZ        25.4730    1.7910  -45.4450 N.3   292  LYS292     -0.1314
    198  N         31.8670    0.5830  -41.4560 N.am  293  ALA293     -0.1966
    199  CA        32.3000    0.0340  -40.1760 C.3   293  ALA293      0.1728
    200  C         32.9960    1.0410  -39.2660 C.2   293  ALA293      0.2616
    201  O         33.6520    1.9760  -39.6990 O.2   293  ALA293     -0.2715
    202  CB        33.2220   -1.1520  -40.4120 C.3   293  ALA293      0.0334
    203  N         32.9360    0.7600  -37.9920 N.am  294  ASN294     -0.1972
    204  CA        33.6660    1.5360  -37.0090 C.3   294  ASN294      0.1688
    205  C         35.0520    0.9290  -36.8380 C.2   294  ASN294      0.2292
    206  O         35.1640   -0.2460  -36.4620 O.2   294  ASN294     -0.2864
    207  CB        32.9070    1.5470  -35.6880 C.3   294  ASN294      0.1181
    208  CG        33.5700    2.3580  -34.6270 C.2   294  ASN294      0.2629
    209  OD1       34.7680    2.5250  -34.6280 O.2   294  ASN294     -0.2716
    210  ND2       32.7850    2.8690  -33.7060 N.am  294  ASN294     -0.0877
    211  N         27.4830    3.2280  -35.9600 N.3   335  ASP335     -0.1239
    212  CA        27.0720    2.5760  -34.7310 C.3   335  ASP335      0.1674
    213  C         27.1680    3.4720  -33.5040 C.2   335  ASP335      0.2266
    214  O         26.4880    3.2130  -32.5030 O.2   335  ASP335     -0.2867
    215  CB        27.9250    1.3510  -34.5310 C.3   335  ASP335      0.1410
    216  CG        29.3400    1.6200  -34.8560 C.2   335  ASP335      0.3668
    217  OD1       29.5480    2.0900  -35.9860 O.co2 335  ASP335     -0.2456
    218  OD2       30.2180    1.4220  -33.9960 O.co2 335  ASP335     -0.2456
@<TRIPOS>BOND
     1    41    40    2
     2    40    39    1
     3    42    39    1
     4    42    43    1
     5    45    43   ar
     6    45    47   ar
     7    39    38    1
     8    43    44   ar
     9   197   196    1
    10    47    48   ar
    11    38    36   am
    12   169   168    2
    13   176   175    2
    14   196   195    1
    15    50    51    1
    16   184   183    2
    17   183   182    1
    18    36    37    2
    19    36    35    1
    20    44    46   ar
    21   175   174    1
    22   175   181   am
    23   189   190    1
    24   194   195    1
    25   194   193    1
    26    48    46   ar
    27    48    49    1
    28   182   181    1
    29   182   185    1
    30   168   173   am
    31   168   167    1
    32    35    34    1
    33   174   173    1
    34   174   177    1
    35    52    51    1
    36    52    53    2
    37    51    54    1
    38    54    55    1
    39   167   170    1
    40   167   166    1
    41   190   193    1
    42   190   191    1
    43   185   187    1
    44   185   186    1
    45   170   171    1
    46   177   178    1
    47    34    32   am
    48    55    57   ar
    49    55    56   ar
    50   164   163    2
    51     1     2    1
    52    33    32    2
    53     2     3    1
    54     2     5    1
    55     7     5    1
    56    32    31    1
    57     3     4    2
    58   186   188    1
    59   166   163   am
    60   166   172    1
    61   163   162    1
    62   191   198   am
    63   191   192    2
    64     5     6    1
    65   198   199    1
    66   171   172    1
    67   178   179   ar
    68   178   180   ar
    69   158   157    2
    70    31    30    1
    71    30    24   am
    72   202   199    1
    73   160   159    1
    74   165   162    1
    75     6     8    1
    76   199   200    1
    77   162   161    1
    78   157   161   am
    79   157   156    1
    80    20    19    2
    81   201   200    2
    82    24    23    1
    83    24    25    2
    84   159   156    1
    85    23    22    1
    86    23    26    1
    87   200   203   am
    88    28    26    1
    89    65    64   ar
    90    19    22   am
    91    19    18    1
    92   156   155    1
    93    27    26    1
    94    27    29    1
    95    66    64   ar
    96    58    59    1
    97    17    18    1
    98    64    63    1
    99   203   204    1
   100    21    18    1
   101   155   153   am
   102    59    60    1
   103    59    62    1
   104    63    62    1
   105   204   205    1
   106   204   207    1
   107   205   206    2
   108   153   152    1
   109   153   154    2
   110    11    10    1
   111    11    12    2
   112    60    61    2
   113    14    16    1
   114    14    15    1
   115    14    13    1
   116    10    13    1
   117    10     9    1
   118   152   151    1
   119    67    68    1
   120   149   147   ar
   121   149   150   ar
   122   217   216   ar
   123   211   212    1
   124   147   146   ar
   125   207   208    1
   126   150   148   ar
   127   151   143   am
   128    68    71    1
   129    68    69    1
   130    71    72    1
   131   216   215    1
   132   216   218   ar
   133   212   215    1
   134   212   213    1
   135   209   208    2
   136   208   210   am
   137   146   148   ar
   138   146   145    1
   139   131   132    1
   140   131   130    1
   141   143   144    2
   142   143   142    1
   143   132   126    1
   144    73    72    1
   145    74    72    1
   146    69    70    2
   147   145   142    1
   148   213   214    2
   149   142   141    1
   150   130   127    1
   151   121   118    1
   152   121   122    1
   153   126   127    1
   154   126   119   am
   155   124   123   ar
   156   114   113    1
   157   114   115    1
   158   118   119    1
   159   118   117    1
   160   111   109    1
   161   129   128    2
   162   116   115    2
   163   141   135   am
   164   127   128    1
   165   113   107   am
   166   119   120    2
   167    75    76    1
   168   128   133   am
   169   123   122    1
   170   123   125   ar
   171   136   135    2
   172   135   134    1
   173   112   110    1
   174   107   108    2
   175   107   106    1
   176   109   110    1
   177   109   106    1
   178   133   134    1
   179    85    83    1
   180    80    79    1
   181    80    81    1
   182   105   106    1
   183    76    79    1
   184    76    77    1
   185   134   137    1
   186    82    83    2
   187    82    81    1
   188    83    84    1
   189    77    78    2
   190   138   137    1
   191   138   140    1
   192   137   139    1
   193   104   102   ar
   194    96    94    1
   195   103   102   ar
   196   102   101    1
   197    94    95    1
   198    94    93    2
   199    93    92    1
   200   101    98    1
   201   100    99    2
   202    98    99    1
   203    98    97    1
   204    92    91    1
   205    91    90    1
   206    90    87    1
   207    87    86    1
   208    87    88    1
   209    88    89    2
