@<TRIPOS>MOLECULE
tmp/5j3jA00.pdb
 198 193 0 0 0
SMALL
GASTEIGER

@<TRIPOS>ATOM
      1  N         29.3230   -1.4350   52.1080 N.3    86  ARG86      -0.1245
      2  CA        28.3600   -2.1440   51.2650 C.3    86  ARG86       0.1563
      3  C         28.9190   -2.4620   49.8880 C.2    86  ARG86       0.2260
      4  O         28.7290   -3.5620   49.3780 O.2    86  ARG86      -0.2867
      5  CB        27.0790   -1.3320   51.1130 C.3    86  ARG86       0.0307
      6  CG        25.9540   -2.0770   50.4200 C.3    86  ARG86       0.0489
      7  CD        24.8460   -1.1260   50.0220 C.3    86  ARG86       0.2205
      8  NE        24.1480   -0.5860   51.1860 N.pl3  86  ARG86      -0.0865
      9  CZ        23.1820   -1.2160   51.8560 C.cat  86  ARG86       0.5346
     10  NH1       22.7800   -2.4370   51.5100 N.pl3  86  ARG86       0.1354
     11  NH2       22.6140   -0.6170   52.8930 N.pl3  86  ARG86       0.1354
     12  N         27.3580    5.0230   50.1890 N.3   166  GLU166     -0.1231
     13  CA        26.0900    4.4580   50.6500 C.3   166  GLU166      0.1699
     14  C         24.8490    5.1940   50.1350 C.2   166  GLU166      0.2592
     15  O         23.8220    4.5610   49.9020 O.2   166  GLU166     -0.2718
     16  CB        26.0790    4.4340   52.1840 C.3   166  GLU166      0.0402
     17  CG        24.7490    4.0760   52.8370 C.3   166  GLU166      0.1161
     18  CD        24.3340    2.6300   52.6470 C.2   166  GLU166      0.3649
     19  OE1       25.1420    1.8140   52.1600 O.co2 166  GLU166     -0.2457
     20  OE2       23.1870    2.3030   53.0040 O.co2 166  GLU166     -0.2457
     21  N         24.9410    6.5150   49.9610 N.am  167  GLU167     -0.1966
     22  CA        23.7410    7.3570   49.7850 C.3   167  GLU167      0.1733
     23  C         23.5970    8.0860   48.4320 C.2   167  GLU167      0.2616
     24  O         22.5660    8.7190   48.1780 O.2   167  GLU167     -0.2715
     25  CB        23.6680    8.3930   50.9200 C.3   167  GLU167      0.0429
     26  CG        23.7520    7.8190   52.3310 C.3   167  GLU167      0.1163
     27  CD        22.5220    7.0180   52.7350 C.2   167  GLU167      0.3649
     28  OE1       21.6470    6.7750   51.8760 O.co2 167  GLU167     -0.2457
     29  OE2       22.4250    6.6200   53.9170 O.co2 167  GLU167     -0.2457
     30  N         24.6040    7.9970   47.5680 N.am  168  VAL168     -0.1977
     31  CA        24.5820    8.7170   46.2970 C.3   168  VAL168      0.1596
     32  C         24.8420    7.7930   45.1100 C.2   168  VAL168      0.2287
     33  O         23.9750    7.6260   44.2460 O.2   168  VAL168     -0.2864
     34  CB        25.6110    9.8640   46.3050 C.3   168  VAL168      0.0276
     35  CG1       25.6790   10.5540   44.9430 C.3   168  VAL168      0.0022
     36  CG2       25.2690   10.8630   47.4050 C.3   168  VAL168      0.0022
     37  N         25.9170    4.4080   45.1760 N.3   170  SER170     -0.1217
     38  CA        25.8350    2.9610   45.4010 C.3   170  SER170      0.1889
     39  C         27.0770    2.2750   44.8240 C.2   170  SER170      0.2288
     40  O         26.9890    1.2520   44.1530 O.2   170  SER170     -0.2866
     41  CB        24.5630    2.3950   44.7700 C.3   170  SER170      0.2089
     42  OG        23.4220    3.1210   45.1870 O.3   170  SER170     -0.2183
     43  N         13.4520    9.7300   43.0740 N.3   317  ARG317     -0.1231
     44  CA        13.0860    8.6730   44.0220 C.3   317  ARG317      0.1694
     45  C         14.0510    8.6510   45.2010 C.2   317  ARG317      0.2592
     46  O         13.6360    8.7970   46.3500 O.2   317  ARG317     -0.2718
     47  CB        13.0310    7.3040   43.3300 C.3   317  ARG317      0.0321
     48  CG        11.6950    7.0390   42.6620 C.3   317  ARG317      0.0489
     49  CD        11.7440    5.8990   41.6670 C.3   317  ARG317      0.2205
     50  NE        10.4340    5.7380   41.0300 N.pl3 317  ARG317     -0.0865
     51  CZ        10.2240    5.3680   39.7630 C.cat 317  ARG317      0.5346
     52  NH1       11.2380    5.1070   38.9400 N.pl3 317  ARG317      0.1354
     53  NH2        8.9770    5.2650   39.3110 N.pl3 317  ARG317      0.1354
     54  N         15.3330    8.4680   44.9080 N.am  318  PHE318     -0.1962
     55  CA        16.3820    8.6120   45.9150 C.3   318  PHE318      0.1771
     56  C         17.3680    9.7310   45.5790 C.2   318  PHE318      0.2619
     57  O         18.0490   10.2420   46.4610 O.2   318  PHE318     -0.2715
     58  CB        17.1100    7.2810   46.1140 C.3   318  PHE318      0.0574
     59  CG        16.2700    6.2360   46.7910 C.ar  318  PHE318     -0.0200
     60  CD1       16.2470    6.1340   48.1780 C.ar  318  PHE318     -0.0042
     61  CD2       15.4870    5.3630   46.0460 C.ar  318  PHE318     -0.0042
     62  CE1       15.4700    5.1720   48.8080 C.ar  318  PHE318     -0.0003
     63  CE2       14.7050    4.4000   46.6700 C.ar  318  PHE318     -0.0003
     64  CZ        14.6980    4.3040   48.0540 C.ar  318  PHE318     -0.0000
     65  N         17.4370   10.1130   44.3080 N.am  319  ARG319     -0.1977
     66  CA        18.2810   11.2190   43.8620 C.3   319  ARG319      0.1597
     67  C         17.7720   11.6440   42.4860 C.2   319  ARG319      0.2287
     68  O         16.9380   10.9570   41.9020 O.2   319  ARG319     -0.2864
     69  CB        19.7480   10.7690   43.7820 C.3   319  ARG319      0.0334
     70  CG        20.1310   10.1100   42.4580 C.3   319  ARG319      0.0492
     71  CD        21.1950    9.0370   42.5930 C.3   319  ARG319      0.2205
     72  NE        20.6020    7.7420   42.9330 N.pl3 319  ARG319     -0.0865
     73  CZ        21.1510    6.5510   42.6870 C.cat 319  ARG319      0.5346
     74  NH1       22.3350    6.4440   42.0830 N.pl3 319  ARG319      0.1354
     75  NH2       20.5030    5.4480   43.0490 N.pl3 319  ARG319      0.1354
     76  N          8.9680   -3.0090   56.0470 N.3   508  TYR508     -0.1241
     77  CA        10.0780   -2.1020   55.7770 C.3   508  TYR508      0.1605
     78  C          9.5690   -0.6480   55.7870 C.2   508  TYR508      0.2264
     79  O          9.9640    0.1400   56.6420 O.2   508  TYR508     -0.2867
     80  CB        10.7870   -2.4520   54.4610 C.3   508  TYR508      0.0534
     81  CG        12.0430   -1.6470   54.2740 C.ar  508  TYR508     -0.0201
     82  CD1       13.1930   -1.9430   55.0000 C.ar  508  TYR508     -0.0009
     83  CD2       12.0750   -0.5640   53.4040 C.ar  508  TYR508     -0.0009
     84  CE1       14.3450   -1.1860   54.8590 C.ar  508  TYR508      0.0417
     85  CE2       13.2190    0.2000   53.2550 C.ar  508  TYR508      0.0417
     86  CZ        14.3520   -0.1150   53.9840 C.ar  508  TYR508      0.1957
     87  OH        15.4970    0.6370   53.8310 O.3   508  TYR508     -0.2866
     88  N          6.5330    3.9050   43.6510 N.3   546  TYR546     -0.1241
     89  CA         5.9760    3.4290   42.3740 C.3   546  TYR546      0.1605
     90  C          4.4530    3.5910   42.2290 C.2   546  TYR546      0.2264
     91  O          3.8240    2.8920   41.4330 O.2   546  TYR546     -0.2867
     92  CB         6.4350    1.9930   42.1070 C.3   546  TYR546      0.0534
     93  CG         7.8670    1.7850   42.5390 C.ar  546  TYR546     -0.0201
     94  CD1        8.8700    2.6230   42.0820 C.ar  546  TYR546     -0.0009
     95  CD2        8.2100    0.7840   43.4350 C.ar  546  TYR546     -0.0009
     96  CE1       10.1790    2.4580   42.4880 C.ar  546  TYR546      0.0417
     97  CE2        9.5170    0.6090   43.8430 C.ar  546  TYR546      0.0417
     98  CZ        10.4960    1.4510   43.3680 C.ar  546  TYR546      0.1957
     99  OH        11.8010    1.2920   43.7650 O.3   546  TYR546     -0.2866
    100  N         16.1800   -2.7150   59.7660 N.3   591  SER591     -0.1202
    101  CA        16.6130   -1.4380   59.2540 C.3   591  SER591      0.2020
    102  C         15.5690   -0.3590   59.4960 C.2   591  SER591      0.2618
    103  O         15.1720   -0.1370   60.6050 O.2   591  SER591     -0.2717
    104  CB        16.9690   -1.5810   57.7870 C.3   591  SER591      0.2103
    105  OG        17.7780   -0.5700   57.3030 O.3   591  SER591     -0.2182
    106  N         15.1110    0.2980   58.4510 N.am  592  TYR592     -0.1975
    107  CA        13.9800    1.1690   58.5280 C.3   592  TYR592      0.1639
    108  C         12.8330    0.4150   59.0510 C.2   592  TYR592      0.2290
    109  O         12.1480    0.8950   59.8630 O.2   592  TYR592     -0.2864
    110  CB        13.6400    1.7500   57.1520 C.3   592  TYR592      0.0560
    111  CG        12.8430    3.0270   57.1820 C.ar  592  TYR592     -0.0198
    112  CD1       11.5100    3.0150   57.3390 C.ar  592  TYR592     -0.0009
    113  CD2       13.4360    4.2180   57.0790 C.ar  592  TYR592     -0.0009
    114  CE1       10.7990    4.1520   57.3820 C.ar  592  TYR592      0.0417
    115  CE2       12.7130    5.3540   57.1140 C.ar  592  TYR592      0.0417
    116  CZ        11.4020    5.2900   57.2580 C.ar  592  TYR592      0.1957
    117  OH        10.6930    6.3950   57.2950 O.3   592  TYR592     -0.2866
    118  N         16.8410    1.9670   63.2860 N.3   617  VAL617     -0.1245
    119  CA        17.0610    3.3730   63.5820 C.3   617  VAL617      0.1561
    120  C         16.1670    3.6940   64.7810 C.2   617  VAL617      0.2260
    121  O         15.0630    3.1630   64.8900 O.2   617  VAL617     -0.2867
    122  CB        16.7300    4.2560   62.3540 C.3   617  VAL617      0.0252
    123  CG1       16.4610    5.7070   62.7430 C.3   617  VAL617      0.0019
    124  CG2       17.8570    4.1660   61.3370 C.3   617  VAL617      0.0019
    125  N         16.4750    9.9090   64.3970 N.3   620  TRP620     -0.1241
    126  CA        16.9940   10.3320   63.0970 C.3   620  TRP620      0.1605
    127  C         18.2790   11.1470   63.1790 C.2   620  TRP620      0.2264
    128  O         19.1260   11.0570   62.2920 O.2   620  TRP620     -0.2867
    129  CB        15.9070   11.0540   62.2840 C.3   620  TRP620      0.0550
    130  CG        14.8400   10.0900   61.8600 C.ar  620  TRP620      0.0003
    131  CD1       13.5440   10.0390   62.3000 C.ar  620  TRP620      0.0946
    132  CD2       15.0040    8.9860   60.9690 C.ar  620  TRP620      0.0152
    133  NE1       12.8910    8.9780   61.7210 N.ar  620  TRP620     -0.2442
    134  CE2       13.7640    8.3170   60.8960 C.ar  620  TRP620      0.0810
    135  CE3       16.0770    8.5070   60.2080 C.ar  620  TRP620      0.0012
    136  CZ2       13.5670    7.1960   60.0880 C.ar  620  TRP620      0.0191
    137  CZ3       15.8820    7.3900   59.4080 C.ar  620  TRP620      0.0001
    138  CH2       14.6370    6.7500   59.3550 C.ar  620  TRP620      0.0015
    139  N         21.2510    9.0210   62.4300 N.3   623  TYR623     -0.1241
    140  CA        21.5100    8.5290   61.0690 C.3   623  TYR623      0.1605
    141  C         22.1180    9.6090   60.1730 C.2   623  TYR623      0.2264
    142  O         22.0350   10.7990   60.4740 O.2   623  TYR623     -0.2867
    143  CB        20.2410    7.9250   60.4420 C.3   623  TYR623      0.0534
    144  CG        20.5480    6.9150   59.3530 C.ar  623  TYR623     -0.0201
    145  CD1       21.2030    5.7220   59.6550 C.ar  623  TYR623     -0.0009
    146  CD2       20.2140    7.1620   58.0260 C.ar  623  TYR623     -0.0009
    147  CE1       21.5070    4.8010   58.6690 C.ar  623  TYR623      0.0417
    148  CE2       20.5120    6.2460   57.0310 C.ar  623  TYR623      0.0417
    149  CZ        21.1590    5.0680   57.3540 C.ar  623  TYR623      0.1957
    150  OH        21.4610    4.1580   56.3650 O.3   623  TYR623     -0.2866
    151  N         20.8270   10.7650   53.6270 N.3   627  TYR627     -0.1241
    152  CA        19.5550   10.0440   53.6460 C.3   627  TYR627      0.1605
    153  C         18.5410   10.7920   54.4910 C.2   627  TYR627      0.2264
    154  O         17.5000   11.1940   53.9930 O.2   627  TYR627     -0.2867
    155  CB        19.7270    8.6240   54.1830 C.3   627  TYR627      0.0534
    156  CG        18.4590    7.7860   54.2190 C.ar  627  TYR627     -0.0201
    157  CD1       17.5690    7.8620   55.2910 C.ar  627  TYR627     -0.0009
    158  CD2       18.1700    6.8950   53.1970 C.ar  627  TYR627     -0.0009
    159  CE1       16.4210    7.0830   55.3290 C.ar  627  TYR627      0.0417
    160  CE2       17.0300    6.1090   53.2260 C.ar  627  TYR627      0.0417
    161  CZ        16.1600    6.2020   54.2910 C.ar  627  TYR627      0.1957
    162  OH        15.0350    5.4100   54.3040 O.3   627  TYR627     -0.2866
    163  N         17.0890   14.2450   53.3540 N.3   630  ARG630     -0.1245
    164  CA        16.2660   14.1790   52.1610 C.3   630  ARG630      0.1563
    165  C         14.7930   14.2220   52.5220 C.2   630  ARG630      0.2260
    166  O         14.0050   14.8760   51.8370 O.2   630  ARG630     -0.2867
    167  CB        16.5670   12.8930   51.3960 C.3   630  ARG630      0.0307
    168  CG        15.8900   12.7660   50.0410 C.3   630  ARG630      0.0489
    169  CD        16.3790   11.5190   49.3250 C.3   630  ARG630      0.2205
    170  NE        17.8440   11.4400   49.2950 N.pl3 630  ARG630     -0.0865
    171  CZ        18.5590   10.3170   49.3930 C.cat 630  ARG630      0.5346
    172  NH1       17.9680    9.1270   49.5400 N.pl3 630  ARG630      0.1354
    173  NH2       19.8880   10.3820   49.3470 N.pl3 630  ARG630      0.1354
    174  N         26.6130    1.5530   59.7450 N.3   671  ASN671     -0.1225
    175  CA        25.5500    2.2470   59.0340 C.3   671  ASN671      0.1785
    176  C         24.5230    2.7740   60.0360 C.2   671  ASN671      0.2597
    177  O         24.4910    3.9740   60.3020 O.2   671  ASN671     -0.2718
    178  CB        24.9370    1.2990   57.9900 C.3   671  ASN671      0.1169
    179  CG        24.0460    2.0090   56.9910 C.2   671  ASN671      0.2627
    180  OD1       23.5850    3.1230   57.2270 O.2   671  ASN671     -0.2716
    181  ND2       23.7930    1.3550   55.8620 N.am  671  ASN671     -0.0877
    182  N         23.7000    1.8890   60.5960 N.am  672  VAL672     -0.1980
    183  CA        22.8670    2.2420   61.7350 C.3   672  VAL672      0.1595
    184  C         23.6520    1.8130   62.9690 C.2   672  VAL672      0.2287
    185  O         23.7350    0.6230   63.2860 O.2   672  VAL672     -0.2864
    186  CB        21.4930    1.5530   61.6940 C.3   672  VAL672      0.0276
    187  CG1       20.6670    1.9390   62.9120 C.3   672  VAL672      0.0022
    188  CG2       20.7450    1.9430   60.4370 C.3   672  VAL672      0.0022
    189  N         25.6280   -4.0730   59.4980 N.3   701  HIS701     -0.1241
    190  CA        24.2040   -3.8750   59.2140 C.3   701  HIS701      0.1621
    191  C         23.5230   -5.0660   58.5410 C.2   701  HIS701      0.2264
    192  O         22.3210   -5.2590   58.6970 O.2   701  HIS701     -0.2867
    193  CB        24.0300   -2.6240   58.3440 C.3   701  HIS701      0.0745
    194  CG        22.6460   -2.0630   58.3610 C.ar  701  HIS701      0.0817
    195  ND1       22.0650   -1.5470   59.5000 N.ar  701  HIS701     -0.2268
    196  CD2       21.7280   -1.9290   57.3750 C.ar  701  HIS701      0.1154
    197  CE1       20.8440   -1.1290   59.2160 C.ar  701  HIS701      0.1986
    198  NE2       20.6160   -1.3480   57.9330 N.ar  701  HIS701     -0.2212
@<TRIPOS>BOND
     1    52    51    1
     2    53    51    1
     3    51    50    2
     4    50    49    1
     5    91    90    2
     6    49    48    1
     7    68    67    2
     8    94    96   ar
     9    94    93   ar
    10    74    73    1
    11    92    89    1
    12    92    93    1
    13    90    89    1
    14    89    88    1
    15    70    71    1
    16    70    69    1
    17    67    66    1
    18    96    98   ar
    19    93    95   ar
    20    71    72    1
    21    48    47    1
    22    73    72    2
    23    73    75    1
    24    43    44    1
    25    47    44    1
    26    98    99    1
    27    98    97   ar
    28    95    97   ar
    29    69    66    1
    30    66    65    1
    31    44    45    1
    32    40    39    2
    33    33    32    2
    34    65    56   am
    35    41    42    1
    36    41    38    1
    37    39    38    1
    38    54    45   am
    39    54    55    1
    40    35    34    1
    41    32    31    1
    42    37    38    1
    43    45    46    2
    44    56    55    1
    45    56    57    2
    46    55    58    1
    47    61    63   ar
    48    61    59   ar
    49    58    59    1
    50    31    34    1
    51    31    30    1
    52    34    36    1
    53    63    64   ar
    54    59    60   ar
    55    30    23   am
    56    64    62   ar
    57    24    23    2
    58    60    62   ar
    59    23    22    1
    60   170   169    1
    61   170   171    2
    62   169   168    1
    63   173   171    1
    64     4     3    2
    65   171   172    1
    66    22    21    1
    67    22    25    1
    68     3     2    1
    69    15    14    2
    70    21    14   am
    71     7     6    1
    72     7     8    1
    73   168   167    1
    74    14    13    1
    75    12    13    1
    76     6     5    1
    77    13    16    1
    78    25    26    1
    79     5     2    1
    80     8     9    2
    81     2     1    1
    82   167   164    1
    83    10     9    1
    84   166   165    2
    85     9    11    1
    86    28    27   ar
    87    19    18   ar
    88   164   165    1
    89   164   163    1
    90    16    17    1
    91    26    27    1
    92    18    17    1
    93    18    20   ar
    94    27    29   ar
    95   158   160   ar
    96   158   156   ar
    97   160   161   ar
    98    85    83   ar
    99    85    86   ar
   100    83    81   ar
   101   151   152    1
   102   152   155    1
   103   152   153    1
   104    87    86    1
   105    86    84   ar
   106   154   153    2
   107   155   156    1
   108   156   157   ar
   109    81    80    1
   110    81    82   ar
   111   161   162    1
   112   161   159   ar
   113    80    77    1
   114    84    82   ar
   115   157   159   ar
   116    77    78    1
   117    77    76    1
   118    78    79    2
   119   181   179   am
   120   150   149    1
   121   179   180    2
   122   179   178    1
   123   148   149   ar
   124   148   146   ar
   125   113   115   ar
   126   113   111   ar
   127   115   116   ar
   128   110   111    1
   129   110   107    1
   130   111   112   ar
   131   116   117    1
   132   116   114   ar
   133   105   104    1
   134   112   114   ar
   135   149   147   ar
   136   196   198   ar
   137   196   194   ar
   138   104   101    1
   139   198   197   ar
   140   178   175    1
   141   146   144   ar
   142   193   194    1
   143   193   190    1
   144   194   195   ar
   145   106   107    1
   146   106   102   am
   147   107   108    1
   148   191   192    2
   149   191   190    1
   150   147   145   ar
   151   175   174    1
   152   175   176    1
   153   108   109    2
   154   190   189    1
   155   197   195   ar
   156   101   102    1
   157   101   100    1
   158   144   145   ar
   159   144   143    1
   160   138   137   ar
   161   138   136   ar
   162   137   135   ar
   163   102   103    2
   164   176   177    2
   165   176   182   am
   166   136   134   ar
   167   141   142    2
   168   141   140    1
   169   135   132   ar
   170   188   186    1
   171   143   140    1
   172   182   183    1
   173   134   132   ar
   174   134   133   ar
   175   132   130   ar
   176   140   139    1
   177   124   122    1
   178   186   183    1
   179   186   187    1
   180   133   131   ar
   181   183   184    1
   182   130   129    1
   183   130   131   ar
   184   129   126    1
   185   128   127    2
   186   122   123    1
   187   122   119    1
   188   184   185    2
   189   126   127    1
   190   126   125    1
   191   118   119    1
   192   119   120    1
   193   120   121    2
