@<TRIPOS>MOLECULE
tmp/5j3sA00.pdb
 104 100 0 0 0
SMALL
GASTEIGER

@<TRIPOS>ATOM
      1  N          1.5180  -14.9260   18.9780 N.3   118  SER118     -0.1202
      2  CA         1.6990  -13.5350   18.5790 C.3   118  SER118      0.2020
      3  C          3.0760  -13.0060   18.9540 C.2   118  SER118      0.2619
      4  O          3.5950  -12.1110   18.2790 O.2   118  SER118     -0.2717
      5  CB         0.6160  -12.6610   19.2120 C.3   118  SER118      0.2103
      6  OG        -0.6800  -13.1450   18.9080 O.3   118  SER118     -0.2182
      7  N          3.6740  -13.5440   20.0150 N.am  119  THR119     -0.1938
      8  CA         4.9530  -13.0420   20.4980 C.3   119  THR119      0.2028
      9  C          6.0400  -13.2370   19.4470 C.2   119  THR119      0.2642
     10  O          6.1430  -14.2960   18.8210 O.2   119  THR119     -0.2714
     11  CB         5.3410  -13.7560   21.7950 C.3   119  THR119      0.1808
     12  OG1        4.3350  -13.5220   22.7890 O.3   119  THR119     -0.2208
     13  CG2        6.6750  -13.2440   22.3140 C.3   119  THR119      0.0379
     14  N          6.8500  -12.1950   19.2470 N.am  120  ARG120     -0.1963
     15  CA         7.9520  -12.2770   18.2950 C.3   120  ARG120      0.1729
     16  C          9.1460  -13.0130   18.8910 C.2   120  ARG120      0.2616
     17  O          9.8400  -13.7510   18.1830 O.2   120  ARG120     -0.2715
     18  CB         8.3530  -10.8730   17.8450 C.3   120  ARG120      0.0348
     19  CG         9.1100  -10.8070   16.5280 C.3   120  ARG120      0.0492
     20  CD        10.5910  -10.5370   16.7350 C.3   120  ARG120      0.2205
     21  NE        11.1620   -9.8270   15.5940 N.pl3 120  ARG120     -0.0865
     22  CZ        12.4240   -9.4180   15.5180 C.cat 120  ARG120      0.5346
     23  NH1       13.2590   -9.6470   16.5220 N.pl3 120  ARG120      0.1354
     24  NH2       12.8510   -8.7780   14.4380 N.pl3 120  ARG120      0.1354
     25  N          9.3970  -12.8260   20.1890 N.am  121  GLY121     -0.1955
     26  CA        10.4770  -13.5480   20.8380 C.3   121  GLY121      0.1869
     27  C         10.1970  -15.0290   20.9850 C.2   121  GLY121      0.2309
     28  O         11.1160  -15.8490   20.8990 O.2   121  GLY121     -0.2863
     29  N          7.2950  -14.8560    9.7520 N.3   150  ARG150     -0.1231
     30  CA         8.1100  -13.8750    9.0430 C.3   150  ARG150      0.1694
     31  C          9.5760  -14.2620    9.1820 C.2   150  ARG150      0.2592
     32  O          9.9270  -15.1950    9.9080 O.2   150  ARG150     -0.2718
     33  CB         7.8840  -12.4560    9.5700 C.3   150  ARG150      0.0321
     34  CG         8.2770  -12.2600   11.0240 C.3   150  ARG150      0.0489
     35  CD         7.1170  -12.5230   11.9700 C.3   150  ARG150      0.2205
     36  NE         7.1370  -11.6230   13.1180 N.pl3 150  ARG150     -0.0865
     37  CZ         6.1140  -11.4510   13.9490 C.cat 150  ARG150      0.5346
     38  NH1        4.9860  -12.1240   13.7640 N.pl3 150  ARG150      0.1354
     39  NH2        6.2180  -10.6080   14.9650 N.pl3 150  ARG150      0.1354
     40  N         10.4280  -13.5190    8.4720 N.am  151  ASP151     -0.1974
     41  CA        11.8850  -13.6550    8.5510 C.3   151  ASP151      0.1709
     42  C         12.3330  -15.0910    8.2890 C.2   151  ASP151      0.2293
     43  O         13.1730  -15.6470    9.0000 O.2   151  ASP151     -0.2864
     44  CB        12.4080  -13.1540    9.9000 C.3   151  ASP151      0.1436
     45  CG        12.2290  -11.6600   10.0740 C.2   151  ASP151      0.3671
     46  OD1       11.4460  -11.0590    9.3080 O.co2 151  ASP151     -0.2456
     47  OD2       12.8760  -11.0850   10.9740 O.co2 151  ASP151     -0.2456
     48  N         -0.3990   -7.3030    7.0170 N.3   181  TRP181     -0.1241
     49  CA        -0.2170   -6.4360    8.1800 C.3   181  TRP181      0.1605
     50  C          0.6790   -5.2770    7.7530 C.2   181  TRP181      0.2264
     51  O          1.9050   -5.4160    7.6990 O.2   181  TRP181     -0.2867
     52  CB         0.3790   -7.2100    9.3520 C.3   181  TRP181      0.0550
     53  CG         0.1680   -6.5560   10.6830 C.ar  181  TRP181      0.0003
     54  CD1       -1.0120   -6.4370   11.3590 C.ar  181  TRP181      0.0946
     55  CD2        1.1670   -5.9490   11.5110 C.ar  181  TRP181      0.0152
     56  NE1       -0.8110   -5.7830   12.5510 N.ar  181  TRP181     -0.2442
     57  CE2        0.5190   -5.4740   12.6690 C.ar  181  TRP181      0.0810
     58  CE3        2.5460   -5.7570   11.3840 C.ar  181  TRP181      0.0012
     59  CZ2        1.2020   -4.8210   13.6920 C.ar  181  TRP181      0.0191
     60  CZ3        3.2220   -5.1070   12.4020 C.ar  181  TRP181      0.0001
     61  CH2        2.5500   -4.6460   13.5400 C.ar  181  TRP181      0.0015
     62  N          1.5140    3.3660   14.8260 N.3   191  ILE191     -0.1245
     63  CA         2.9340    3.0290   14.8340 C.3   191  ILE191      0.1561
     64  C          3.6580    3.9940   13.9020 C.2   191  ILE191      0.2260
     65  O          3.4470    3.9750   12.6870 O.2   191  ILE191     -0.2867
     66  CB         3.1670    1.5740   14.4160 C.3   191  ILE191      0.0252
     67  CG1        2.4590    0.6240   15.3830 C.3   191  ILE191      0.0019
     68  CG2        4.6560    1.2670   14.3630 C.3   191  ILE191      0.0019
     69  CD1        2.5810   -0.8360   15.0010 C.3   191  ILE191      0.0001
     70  N          6.6770    3.8440   13.1090 N.3   193  ALA193     -0.1231
     71  CA         7.5230    3.0440   12.2390 C.3   193  ALA193      0.1694
     72  C          6.7130    2.4950   11.0670 C.2   193  ALA193      0.2592
     73  O          5.4790    2.4640   11.0870 O.2   193  ALA193     -0.2718
     74  CB         8.1680    1.8970   13.0170 C.3   193  ALA193      0.0304
     75  N          7.4270    2.0570   10.0330 N.am  194  ALA194     -0.1966
     76  CA         6.8150    1.5350    8.8150 C.3   194  ALA194      0.1728
     77  C          7.3340    0.1240    8.5750 C.2   194  ALA194      0.2616
     78  O          8.4880   -0.0590    8.1730 O.2   194  ALA194     -0.2715
     79  CB         7.1140    2.4390    7.6200 C.3   194  ALA194      0.0334
     80  N          6.4850   -0.8710    8.8230 N.am  195  CYS195     -0.1968
     81  CA         6.8190   -2.2570    8.5410 C.3   195  CYS195      0.1712
     82  C          5.6150   -2.9420    7.9120 C.2   195  CYS195      0.2296
     83  O          4.4640   -2.6280    8.2280 O.2   195  CYS195     -0.2864
     84  CB         7.2620   -3.0090    9.8060 C.3   195  CYS195      0.0983
     85  SG         5.9190   -3.5680   10.8770 S.3   195  CYS195     -0.0798
     86  N          4.2150   -6.9320    6.6900 N.3   197  LEU197     -0.1245
     87  CA         4.4200   -8.3630    6.8510 C.3   197  LEU197      0.1561
     88  C          3.2150   -9.1160    6.3050 C.2   197  LEU197      0.2260
     89  O          2.1110   -8.5750    6.2010 O.2   197  LEU197     -0.2867
     90  CB         4.6590   -8.7340    8.3210 C.3   197  LEU197      0.0270
     91  CG         5.9660   -8.2130    8.9200 C.3   197  LEU197      0.0019
     92  CD1        5.9430   -8.2690   10.4370 C.3   197  LEU197      0.0001
     93  CD2        7.1480   -8.9960    8.3670 C.3   197  LEU197      0.0001
     94  N          1.1540  -11.9750    7.3800 N.3   199  PHE199     -0.1241
     95  CA         0.7640  -12.8590    8.4740 C.3   199  PHE199      0.1605
     96  C         -0.2990  -13.8630    8.0380 C.2   199  PHE199      0.2264
     97  O         -0.0730  -15.0750    8.0890 O.2   199  PHE199     -0.2867
     98  CB         0.2620  -12.0330    9.6640 C.3   199  PHE199      0.0534
     99  CG         1.3550  -11.3460   10.4350 C.ar  199  PHE199     -0.0203
    100  CD1        2.6840  -11.6810   10.2330 C.ar  199  PHE199     -0.0042
    101  CD2        1.0510  -10.3660   11.3650 C.ar  199  PHE199     -0.0042
    102  CE1        3.6870  -11.0520   10.9470 C.ar  199  PHE199     -0.0003
    103  CE2        2.0490   -9.7330   12.0790 C.ar  199  PHE199     -0.0003
    104  CZ         3.3670  -10.0770   11.8710 C.ar  199  PHE199     -0.0000
@<TRIPOS>BOND
     1    89    88    2
     2    88    87    1
     3    86    87    1
     4    87    90    1
     5    48    49    1
     6    94    95    1
     7    79    76    1
     8    51    50    2
     9    50    49    1
    10    82    83    2
    11    82    81    1
    12    96    97    2
    13    96    95    1
    14    78    77    2
    15    49    52    1
    16    42    41    1
    17    42    43    2
    18    90    91    1
    19    93    91    1
    20    40    41    1
    21    40    31   am
    22    95    98    1
    23    81    80    1
    24    81    84    1
    25    41    44    1
    26    77    76    1
    27    77    80   am
    28    76    75    1
    29    91    92    1
    30    30    31    1
    31    30    33    1
    32    30    29    1
    33    31    32    2
    34    46    45   ar
    35    52    53    1
    36    33    34    1
    37    98    99    1
    38    84    85    1
    39    44    45    1
    40    75    72   am
    41    45    47   ar
    42   100    99   ar
    43   100   102   ar
    44    99   101   ar
    45    53    54   ar
    46    53    55   ar
    47   102   104   ar
    48    34    35    1
    49    72    73    2
    50    72    71    1
    51    54    56   ar
    52   101   103   ar
    53    58    55   ar
    54    58    60   ar
    55    55    57   ar
    56   104   103   ar
    57    35    36    1
    58    71    74    1
    59    71    70    1
    60    60    61   ar
    61    56    57   ar
    62    57    59   ar
    63    65    64    2
    64    36    37    2
    65    61    59   ar
    66    38    37    1
    67    64    63    1
    68    37    39    1
    69    68    66    1
    70    66    63    1
    71    66    67    1
    72    24    22    1
    73    62    63    1
    74    69    67    1
    75    22    21    2
    76    22    23    1
    77    21    20    1
    78    19    20    1
    79    19    18    1
    80    18    15    1
    81    17    16    2
    82     4     3    2
    83    15    16    1
    84    15    14    1
    85     2     3    1
    86     2     1    1
    87     2     5    1
    88    10     9    2
    89    16    25   am
    90     6     5    1
    91     3     7   am
    92    14     9   am
    93     9     8    1
    94     7     8    1
    95    25    26    1
    96     8    11    1
    97    26    27    1
    98    28    27    2
    99    11    13    1
   100    11    12    1
