@<TRIPOS>MOLECULE
tmp/5j3uA01.pdb
 123 117 0 0 0
SMALL
GASTEIGER

@<TRIPOS>ATOM
      1  N         -1.5170   32.5590    5.4740 N.3    49  ILE49      -0.1245
      2  CA        -2.7910   33.2250    5.3410 C.3    49  ILE49       0.1561
      3  C         -3.1620   33.2380    3.8590 C.2    49  ILE49       0.2260
      4  O         -2.3020   33.4840    3.0370 O.2    49  ILE49      -0.2867
      5  CB        -2.6970   34.7120    5.8010 C.3    49  ILE49       0.0252
      6  CG1       -2.3940   34.7750    7.3060 C.3    49  ILE49       0.0019
      7  CG2       -3.9530   35.4940    5.4260 C.3    49  ILE49       0.0019
      8  CD1       -2.3220   36.2030    7.8320 C.3    49  ILE49       0.0001
      9  N          3.7570   38.9720    1.4010 N.3    68  CYS68      -0.1235
     10  CA         2.3060   39.1980    1.2960 C.3    68  CYS68       0.1677
     11  C          2.0520   39.4030   -0.2020 C.2    68  CYS68       0.2270
     12  O          2.7960   40.1920   -0.8660 O.2    68  CYS68      -0.2867
     13  CB         1.8900   40.4570    2.0380 C.3    68  CYS68       0.0956
     14  SG         2.3590   40.4170    3.7950 S.3    68  CYS68      -0.0801
     15  N         -1.0830   39.4140   -3.6440 N.3    70  LYS70      -0.1245
     16  CA        -2.4900   39.4780   -4.1120 C.3    70  LYS70       0.1561
     17  C         -2.6430   38.7350   -5.4350 C.2    70  LYS70       0.2260
     18  O         -1.7960   38.8670   -6.3360 O.2    70  LYS70      -0.2867
     19  CB        -2.9350   40.9120   -4.3020 C.3    70  LYS70       0.0271
     20  CG        -3.1150   41.6600   -3.0000 C.3    70  LYS70       0.0035
     21  CD        -3.3300   43.1390   -3.2800 C.3    70  LYS70       0.0206
     22  CE        -4.1590   43.8290   -2.2190 C.3    70  LYS70       0.1093
     23  NZ        -4.6220   45.1490   -2.7050 N.3    70  LYS70      -0.1314
     24  N          3.3210   42.1260   -2.7530 N.3    79  VAL79      -0.1231
     25  CA         3.0370   43.5190   -2.4480 C.3    79  VAL79       0.1692
     26  C          3.7680   44.0420   -1.2170 C.2    79  VAL79       0.2591
     27  O          3.8010   45.2540   -1.0150 O.2    79  VAL79      -0.2718
     28  CB         1.5120   43.8250   -2.2840 C.3    79  VAL79       0.0266
     29  CG1        0.7900   43.6100   -3.5950 C.3    79  VAL79       0.0020
     30  CG2        0.8480   43.0380   -1.1850 C.3    79  VAL79       0.0020
     31  N          4.2840   43.1590   -0.3680 N.am   80  LYS80      -0.1980
     32  CA         5.0120   43.6190    0.8440 C.3    80  LYS80       0.1596
     33  C          5.7770   42.4670    1.4130 C.2    80  LYS80       0.2287
     34  O          5.2640   41.3330    1.4210 O.2    80  LYS80      -0.2864
     35  CB         4.0170   44.1300    1.8800 C.3    80  LYS80       0.0298
     36  CG         4.6040   44.6580    3.1840 C.3    80  LYS80       0.0038
     37  CD         5.5430   45.8450    2.9760 C.3    80  LYS80       0.0206
     38  CE         5.9290   46.4090    4.3590 C.3    80  LYS80       0.1093
     39  NZ         6.9620   47.4860    4.1660 N.3    80  LYS80      -0.1314
     40  N          7.5180   41.2800    4.9340 N.3    82  VAL82      -0.1245
     41  CA         7.4500   41.5680    6.3600 C.3    82  VAL82       0.1561
     42  C          8.5360   40.7470    7.0310 C.2    82  VAL82       0.2260
     43  O          8.8680   39.6210    6.5930 O.2    82  VAL82      -0.2867
     44  CB         6.0800   41.2560    6.9800 C.3    82  VAL82       0.0252
     45  CG1        4.9820   42.1240    6.3820 C.3    82  VAL82       0.0019
     46  CG2        5.7130   39.7900    6.8200 C.3    82  VAL82       0.0019
     47  N          3.9380   43.3300   12.3080 N.3    87  ALA87      -0.1231
     48  CA         2.6580   42.6830   12.5290 C.3    87  ALA87       0.1694
     49  C          1.9940   42.4590   11.1700 C.2    87  ALA87       0.2592
     50  O          2.1600   43.2590   10.2370 O.2    87  ALA87      -0.2718
     51  CB         1.7630   43.5310   13.4090 C.3    87  ALA87       0.0304
     52  N          1.2610   41.3640   11.0330 N.am   88  PHE88      -0.1962
     53  CA         0.4980   41.1210    9.8260 C.3    88  PHE88       0.1771
     54  C         -0.7360   40.3130   10.1650 C.2    88  PHE88       0.2620
     55  O         -0.8470   39.6700   11.2180 O.2    88  PHE88      -0.2715
     56  CB         1.3450   40.4420    8.7210 C.3    88  PHE88       0.0574
     57  CG         1.7600   39.0430    9.0260 C.ar   88  PHE88      -0.0200
     58  CD1        2.9900   38.7960    9.6330 C.ar   88  PHE88      -0.0042
     59  CD2        0.9820   37.9600    8.6820 C.ar   88  PHE88      -0.0042
     60  CE1        3.3640   37.5000    9.9590 C.ar   88  PHE88      -0.0003
     61  CE2        1.3880   36.6710    8.9830 C.ar   88  PHE88      -0.0003
     62  CZ         2.5890   36.4440    9.6190 C.ar   88  PHE88      -0.0000
     63  N         -1.6740   40.3280    9.2510 N.am   89  GLY89      -0.1940
     64  CA        -2.9900   39.7550    9.4860 C.3    89  GLY89       0.2014
     65  C         -3.8770   40.5690   10.3600 C.2    89  GLY89       0.2639
     66  O         -4.8690   40.0540   10.8420 O.2    89  GLY89      -0.2714
     67  N         -3.5580   41.8510   10.5460 N.am   90  GLU90      -0.1963
     68  CA        -4.3480   42.7590   11.4160 C.3    90  GLU90       0.1733
     69  C         -5.5590   43.3930   10.7090 C.2    90  GLU90       0.2616
     70  O         -6.5500   43.7830   11.3550 O.2    90  GLU90      -0.2715
     71  CB        -3.4290   43.8650   12.0070 C.3    90  GLU90       0.0429
     72  CG        -3.1670   45.0920   11.1290 C.3    90  GLU90       0.1163
     73  CD        -2.2890   44.8750    9.9010 C.2    90  GLU90       0.3649
     74  OE1       -1.9460   43.7090    9.4870 O.co2  90  GLU90      -0.2457
     75  OE2       -1.9120   45.9180    9.3290 O.co2  90  GLU90      -0.2457
     76  N         -5.4890   43.5020    9.3810 N.am   91  LEU91      -0.1963
     77  CA        -6.5570   44.1880    8.6550 C.3    91  LEU91       0.1728
     78  C         -7.8860   43.4940    8.8000 C.2    91  LEU91       0.2616
     79  O         -8.8830   44.1420    9.0330 O.2    91  LEU91      -0.2715
     80  CB        -6.2090   44.4080    7.1620 C.3    91  LEU91       0.0311
     81  CG        -4.9340   45.1590    6.8690 C.3    91  LEU91       0.0022
     82  CD1       -4.6850   45.2580    5.3650 C.3    91  LEU91       0.0001
     83  CD2       -5.0480   46.5560    7.5020 C.3    91  LEU91       0.0001
     84  N         -7.9200   42.1660    8.6950 N.am   92  ALA92      -0.1977
     85  CA        -9.1660   41.4160    8.8560 C.3    92  ALA92       0.1597
     86  C         -9.7900   41.6170   10.2330 C.2    92  ALA92       0.2287
     87  O        -11.0180   41.5970   10.3970 O.2    92  ALA92      -0.2864
     88  CB        -8.9090   39.9550    8.6110 C.3    92  ALA92       0.0319
     89  N        -12.5920   39.9790    4.9150 N.3    98  PRO98      -0.2102
     90  CA       -11.8170   38.8080    4.6000 C.3    98  PRO98       0.1504
     91  C        -10.3480   39.1840    4.4640 C.2    98  PRO98       0.2576
     92  O        -10.0000   40.3570    4.2300 O.2    98  PRO98      -0.2718
     93  CB       -12.4210   38.3340    3.2530 C.3    98  PRO98       0.0282
     94  CG       -13.7570   38.9980    3.1660 C.3    98  PRO98       0.0208
     95  CD       -13.5120   40.3290    3.8090 C.3    98  PRO98       0.0893
     96  N         -9.4840   38.2000    4.5890 N.am   99  ARG99      -0.1966
     97  CA        -8.0370   38.4420    4.3250 C.3    99  ARG99       0.1729
     98  C         -7.8090   39.1980    2.9760 C.2    99  ARG99       0.2616
     99  O         -8.2910   38.7770    1.9410 O.2    99  ARG99      -0.2715
    100  CB        -7.2880   37.1030    4.2730 C.3    99  ARG99       0.0348
    101  CG        -7.3310   36.2650    5.5670 C.3    99  ARG99       0.0492
    102  CD        -6.7060   37.0460    6.7380 C.3    99  ARG99       0.2205
    103  NE        -6.4480   36.1620    7.8620 N.pl3  99  ARG99      -0.0865
    104  CZ        -6.0660   36.5790    9.0660 C.cat  99  ARG99       0.5346
    105  NH1       -5.8830   37.8610    9.3090 N.pl3  99  ARG99       0.1354
    106  NH2       -5.9040   35.6930   10.0390 N.pl3  99  ARG99       0.1354
    107  N         -7.0450   40.2740    3.0000 N.am  100  ALA100     -0.1963
    108  CA        -6.8050   41.1260    1.8370 C.3   100  ALA100      0.1728
    109  C         -5.6010   40.7080    0.9840 C.2   100  ALA100      0.2616
    110  O         -5.3360   41.3180   -0.0600 O.2   100  ALA100     -0.2715
    111  CB        -6.5960   42.5410    2.3090 C.3   100  ALA100      0.0334
    112  N         -4.8550   39.7090    1.4310 N.am  101  ALA101     -0.1977
    113  CA        -3.6750   39.2180    0.7670 C.3   101  ALA101      0.1597
    114  C         -3.3670   37.8060    1.3340 C.2   101  ALA101      0.2287
    115  O         -3.9080   37.4060    2.3680 O.2   101  ALA101     -0.2864
    116  CB        -2.4750   40.1550    1.0090 C.3   101  ALA101      0.0319
    117  N         -0.2510   35.3780    2.6880 N.3   103  VAL103     -0.1245
    118  CA         1.0290   35.5630    3.2810 C.3   103  VAL103      0.1561
    119  C          1.7600   34.2170    3.2890 C.2   103  VAL103      0.2260
    120  O          1.2360   33.2470    3.8100 O.2   103  VAL103     -0.2867
    121  CB         0.9030   36.1100    4.7200 C.3   103  VAL103      0.0252
    122  CG1        2.2860   36.4210    5.2600 C.3   103  VAL103      0.0019
    123  CG2        0.0360   37.3350    4.7660 C.3   103  VAL103      0.0019
@<TRIPOS>BOND
     1    18    17    2
     2    17    16    1
     3    19    16    1
     4    19    20    1
     5    16    15    1
     6    29    28    1
     7    21    20    1
     8    21    22    1
     9    24    25    1
    10    23    22    1
    11    25    28    1
    12    25    26    1
    13    28    30    1
    14    26    27    2
    15    26    31   am
    16    12    11    2
    17    31    32    1
    18    11    10    1
    19   110   109    2
    20   113   116    1
    21   113   114    1
    22   113   112    1
    23    32    33    1
    24    32    35    1
    25   109   112   am
    26   109   108    1
    27    10     9    1
    28    10    13    1
    29   114   115    2
    30    33    34    2
    31   108   111    1
    32   108   107    1
    33    35    36    1
    34    99    98    2
    35    13    14    1
    36   117   118    1
    37    98   107   am
    38    98    97    1
    39    37    36    1
    40    37    38    1
    41     4     3    2
    42    94    93    1
    43    94    95    1
    44    93    90    1
    45   118   119    1
    46   118   121    1
    47   119   120    2
    48    95    89    1
    49     3     2    1
    50    39    38    1
    51    92    91    2
    52   100    97    1
    53   100   101    1
    54    97    96    1
    55    91    96   am
    56    91    90    1
    57    90    89    1
    58   121   123    1
    59   121   122    1
    60    40    41    1
    61     2     1    1
    62     2     5    1
    63    82    81    1
    64     7     5    1
    65   101   102    1
    66     5     6    1
    67    41    44    1
    68    41    42    1
    69    45    44    1
    70    43    42    2
    71   102   103    1
    72    46    44    1
    73    81    80    1
    74    81    83    1
    75    80    77    1
    76     6     8    1
    77   103   104    2
    78    88    85    1
    79    77    78    1
    80    77    76    1
    81    59    61   ar
    82    59    57   ar
    83    84    78   am
    84    84    85    1
    85    56    57    1
    86    56    53    1
    87    78    79    2
    88    85    86    1
    89    61    62   ar
    90    57    58   ar
    91   104   105    1
    92   104   106    1
    93    63    64    1
    94    63    54   am
    95    75    73   ar
    96    76    69   am
    97    64    65    1
    98    74    73   ar
    99    62    60   ar
   100    58    60   ar
   101    53    54    1
   102    53    52    1
   103    73    72    1
   104    54    55    2
   105    86    87    2
   106    50    49    2
   107    65    67   am
   108    65    66    2
   109    67    68    1
   110    69    70    2
   111    69    68    1
   112    52    49   am
   113    72    71    1
   114    49    48    1
   115    68    71    1
   116    47    48    1
   117    48    51    1
