@<TRIPOS>MOLECULE
tmp/5j3uA00.pdb
 144 139 0 0 0
SMALL
GASTEIGER

@<TRIPOS>ATOM
      1  N         17.2670   63.4700   22.6950 N.3   171  VAL171     -0.1245
      2  CA        18.4160   63.2850   21.8300 C.3   171  VAL171      0.1561
      3  C         19.6360   63.9290   22.4660 C.2   171  VAL171      0.2260
      4  O         19.5210   64.8890   23.2660 O.2   171  VAL171     -0.2867
      5  CB        18.2210   63.7570   20.3740 C.3   171  VAL171      0.0252
      6  CG1       16.9280   63.1630   19.7500 C.3   171  VAL171      0.0019
      7  CG2       18.2960   65.2610   20.2460 C.3   171  VAL171      0.0019
      8  N         16.3470   72.6220   23.9250 N.3   190  ALA190     -0.1245
      9  CA        17.5220   72.2760   23.1180 C.3   190  ALA190      0.1562
     10  C         18.7100   73.0130   23.7110 C.2   190  ALA190      0.2260
     11  O         18.6470   74.2530   23.9050 O.2   190  ALA190     -0.2867
     12  CB        17.3220   72.7090   21.6980 C.3   190  ALA190      0.0290
     13  N         23.0860   73.2900   23.0590 N.3   192  LYS192     -0.1245
     14  CA        24.0570   73.0410   22.0500 C.3   192  LYS192      0.1561
     15  C         25.4250   73.5280   22.4830 C.2   192  LYS192      0.2260
     16  O         25.5420   74.7010   22.8620 O.2   192  LYS192     -0.2867
     17  CB        23.6510   73.7780   20.7830 C.3   192  LYS192      0.0271
     18  CG        24.5800   73.6140   19.5830 C.3   192  LYS192      0.0035
     19  CD        23.9280   74.1580   18.3040 C.3   192  LYS192      0.0206
     20  CE        24.7680   73.8510   17.0790 C.3   192  LYS192      0.1093
     21  NZ        24.5500   74.8690   16.0310 N.3   192  LYS192     -0.1314
     22  N         28.7570   74.7630   21.0730 N.3   194  PHE194     -0.1241
     23  CA        29.2530   75.3850   19.8430 C.3   194  PHE194      0.1605
     24  C         30.7010   75.0320   19.4410 C.2   194  PHE194      0.2264
     25  O         31.1830   75.4950   18.4380 O.2   194  PHE194     -0.2867
     26  CB        29.0300   76.9070   19.8930 C.3   194  PHE194      0.0534
     27  CG        27.5740   77.2600   19.7130 C.ar  194  PHE194     -0.0203
     28  CD1       26.7190   77.2030   20.7870 C.ar  194  PHE194     -0.0042
     29  CD2       27.0700   77.5200   18.4740 C.ar  194  PHE194     -0.0042
     30  CE1       25.3620   77.4720   20.6300 C.ar  194  PHE194     -0.0003
     31  CE2       25.7160   77.7660   18.3010 C.ar  194  PHE194     -0.0003
     32  CZ        24.8650   77.7470   19.3840 C.ar  194  PHE194     -0.0000
     33  N         19.5070   76.9090   23.6250 N.3   203  VAL203     -0.1231
     34  CA        19.2890   77.5480   22.3420 C.3   203  VAL203      0.1692
     35  C         17.8200   77.5610   21.8700 C.2   203  VAL203      0.2591
     36  O         17.4950   78.2560   20.8940 O.2   203  VAL203     -0.2718
     37  CB        20.1760   76.9660   21.2260 C.3   203  VAL203      0.0266
     38  CG1       21.6380   77.2270   21.5550 C.3   203  VAL203      0.0020
     39  CG2       19.9890   75.4730   21.0270 C.3   203  VAL203      0.0020
     40  N         16.9470   76.8220   22.5390 N.am  204  LYS204     -0.1980
     41  CA        15.5090   76.8520   22.1330 C.3   204  LYS204      0.1596
     42  C         14.7050   76.2090   23.2070 C.2   204  LYS204      0.2287
     43  O         15.1830   75.3130   23.8940 O.2   204  LYS204     -0.2864
     44  CB        15.2920   76.1230   20.8070 C.3   204  LYS204      0.0298
     45  CG        13.9050   76.3350   20.2300 C.3   204  LYS204      0.0038
     46  CD        13.9650   76.0790   18.7540 C.3   204  LYS204      0.0206
     47  CE        12.6000   76.1610   18.1220 C.3   204  LYS204      0.1093
     48  NZ        12.2700   77.5660   17.7880 N.3   204  LYS204     -0.1314
     49  N         10.9270   74.3120   23.6990 N.3   206  TYR206     -0.1241
     50  CA         9.8440   73.7100   22.8950 C.3   206  TYR206      0.1605
     51  C          8.5960   73.6290   23.7310 C.2   206  TYR206      0.2264
     52  O          8.6570   73.4050   24.9150 O.2   206  TYR206     -0.2867
     53  CB        10.1980   72.2920   22.4400 C.3   206  TYR206      0.0534
     54  CG        11.2860   72.2910   21.4210 C.ar  206  TYR206     -0.0201
     55  CD1       11.1180   72.8870   20.1920 C.ar  206  TYR206     -0.0009
     56  CD2       12.5460   71.7760   21.7250 C.ar  206  TYR206     -0.0009
     57  CE1       12.1230   72.9190   19.2610 C.ar  206  TYR206      0.0417
     58  CE2       13.5540   71.7440   20.7550 C.ar  206  TYR206      0.0417
     59  CZ        13.3540   72.3220   19.5590 C.ar  206  TYR206      0.1957
     60  OH        14.3490   72.3770   18.6260 O.3   206  TYR206     -0.2866
     61  N         11.3140   68.7130   16.4310 N.3   212  PHE212     -0.1227
     62  CA        12.7810   68.7520   16.4780 C.3   212  PHE212      0.1736
     63  C         13.3200   67.4170   15.9660 C.2   212  PHE212      0.2596
     64  O         12.5760   66.4470   15.8520 O.2   212  PHE212     -0.2718
     65  CB        13.2770   69.0600   17.9010 C.3   212  PHE212      0.0547
     66  CG        12.8460   68.0810   18.9500 C.ar  212  PHE212     -0.0202
     67  CD1       13.5970   66.9180   19.1990 C.ar  212  PHE212     -0.0042
     68  CD2       11.6980   68.2810   19.7100 C.ar  212  PHE212     -0.0042
     69  CE1       13.2730   66.0280   20.1940 C.ar  212  PHE212     -0.0003
     70  CE2       11.3440   67.3550   20.7110 C.ar  212  PHE212     -0.0003
     71  CZ        12.1030   66.2270   20.9520 C.ar  212  PHE212     -0.0000
     72  N         14.6400   67.3520   15.7070 N.am  213  GLY213     -0.1942
     73  CA        15.2590   66.1200   15.3150 C.3   213  GLY213      0.2014
     74  C         15.2140   65.9200   13.8160 C.2   213  GLY213      0.2639
     75  O         15.4690   64.8110   13.3570 O.2   213  GLY213     -0.2714
     76  N         14.9070   66.9720   13.0450 N.am  214  GLU214     -0.1963
     77  CA        14.8540   66.8380   11.5980 C.3   214  GLU214      0.1733
     78  C         16.2410   66.9240   10.9590 C.2   214  GLU214      0.2616
     79  O         16.4120   66.3620    9.8900 O.2   214  GLU214     -0.2715
     80  CB        13.9610   67.8630   10.9130 C.3   214  GLU214      0.0429
     81  CG        14.4350   69.3130   10.7700 C.3   214  GLU214      0.1163
     82  CD        14.5670   70.1540   12.0400 C.2   214  GLU214      0.3649
     83  OE1       14.5140   69.6420   13.1560 O.co2 214  GLU214     -0.2457
     84  OE2       14.7280   71.4090   11.9380 O.co2 214  GLU214     -0.2457
     85  N         17.1660   67.6490   11.5820 N.am  215  LEU215     -0.1963
     86  CA        18.4350   67.9410   10.9110 C.3   215  LEU215      0.1728
     87  C         19.2640   66.6990   10.6260 C.2   215  LEU215      0.2616
     88  O         19.8550   66.6100    9.5370 O.2   215  LEU215     -0.2715
     89  CB        19.2770   68.9970   11.6380 C.3   215  LEU215      0.0311
     90  CG        18.6530   70.3650   11.8050 C.3   215  LEU215      0.0022
     91  CD1       19.5720   71.2700   12.6040 C.3   215  LEU215      0.0001
     92  CD2       18.2650   70.9910   10.4710 C.3   215  LEU215      0.0001
     93  N         19.3060   65.7360   11.5610 N.am  216  ALA216     -0.1977
     94  CA        20.0820   64.5070   11.3240 C.3   216  ALA216      0.1597
     95  C         19.5040   63.7280   10.1430 C.2   216  ALA216      0.2287
     96  O         20.2370   63.0950    9.4000 O.2   216  ALA216     -0.2864
     97  CB        20.1530   63.6280   12.5550 C.3   216  ALA216      0.0319
     98  N         25.2550   63.6720   12.4710 N.3   222  PRO222     -0.2102
     99  CA        24.9030   63.3830   13.8530 C.3   222  PRO222      0.1504
    100  C         24.0220   64.4980   14.3740 C.2   222  PRO222      0.2576
    101  O         24.0610   65.6000   13.8350 O.2   222  PRO222     -0.2718
    102  CB        26.2530   63.4730   14.6150 C.3   222  PRO222      0.0282
    103  CG        27.2700   63.1880   13.5660 C.3   222  PRO222      0.0208
    104  CD        26.7250   63.7440   12.2580 C.3   222  PRO222      0.0893
    105  N         23.3310   64.2030   15.4380 N.am  223  ARG223     -0.1966
    106  CA        22.4980   65.2070   16.1140 C.3   223  ARG223      0.1729
    107  C         23.2990   66.4740   16.3960 C.2   223  ARG223      0.2616
    108  O         24.4380   66.3890   16.9430 O.2   223  ARG223     -0.2715
    109  CB        22.0080   64.6390   17.4430 C.3   223  ARG223      0.0348
    110  CG        21.0560   63.4410   17.4040 C.3   223  ARG223      0.0492
    111  CD        19.7850   63.7380   16.5720 C.3   223  ARG223      0.2205
    112  NE        18.7990   62.6840   16.7830 N.pl3 223  ARG223     -0.0865
    113  CZ        17.6340   62.6150   16.1400 C.cat 223  ARG223      0.5346
    114  NH1       17.3190   63.5310   15.2480 N.pl3 223  ARG223      0.1354
    115  NH2       16.8140   61.6020   16.3990 N.pl3 223  ARG223      0.1354
    116  N         22.7370   67.6120   16.0630 N.am  224  ALA224     -0.1963
    117  CA        23.3880   68.9240   16.2000 C.3   224  ALA224      0.1728
    118  C         23.2050   69.6200   17.5880 C.2   224  ALA224      0.2616
    119  O         23.8390   70.6620   17.8650 O.2   224  ALA224     -0.2715
    120  CB        22.9780   69.8520   15.0610 C.3   224  ALA224      0.0334
    121  N         22.3840   69.0340   18.4450 N.am  225  ALA225     -0.1977
    122  CA        22.0690   69.5900   19.7700 C.3   225  ALA225      0.1597
    123  C         21.4940   68.4900   20.6460 C.2   225  ALA225      0.2287
    124  O         21.1080   67.4210   20.1400 O.2   225  ALA225     -0.2864
    125  CB        21.0860   70.7490   19.6170 C.3   225  ALA225      0.0319
    126  N         18.3680   67.5890   23.0830 N.3   227  VAL227     -0.1245
    127  CA        16.9540   67.9990   23.4260 C.3   227  VAL227      0.1561
    128  C         16.5740   67.2680   24.6870 C.2   227  VAL227      0.2260
    129  O         16.6040   66.0130   24.7450 O.2   227  VAL227     -0.2867
    130  CB        15.9430   67.8330   22.2700 C.3   227  VAL227      0.0252
    131  CG1       14.5580   68.3480   22.7280 C.3   227  VAL227      0.0019
    132  CG2       16.4330   68.5310   21.0010 C.3   227  VAL227      0.0019
    133  N         17.9060   78.5080   12.5940 N.3   261  TYR261     -0.1241
    134  CA        18.6100   78.0800   13.8330 C.3   261  TYR261      0.1605
    135  C         19.8190   78.9750   14.2710 C.2   261  TYR261      0.2264
    136  O         20.5850   79.3970   13.4040 O.2   261  TYR261     -0.2867
    137  CB        19.0930   76.6530   13.6880 C.3   261  TYR261      0.0534
    138  CG        17.9320   75.6250   13.7990 C.ar  261  TYR261     -0.0201
    139  CD1       17.1170   75.5710   14.9130 C.ar  261  TYR261     -0.0009
    140  CD2       17.7090   74.7160   12.7840 C.ar  261  TYR261     -0.0009
    141  CE1       16.1020   74.6170   15.0330 C.ar  261  TYR261      0.0417
    142  CE2       16.6910   73.7910   12.8660 C.ar  261  TYR261      0.0417
    143  CZ        15.8990   73.7450   13.9850 C.ar  261  TYR261      0.1957
    144  OH        14.9150   72.7580   14.0360 O.3   261  TYR261     -0.2866
@<TRIPOS>BOND
     1    96    95    2
     2    88    87    2
     3    79    78    2
     4    95    94    1
     5    92    90    1
     6    87    86    1
     7    87    93   am
     8    81    80    1
     9    81    82    1
    10    86    85    1
    11    86    89    1
    12    80    77    1
    13    78    85   am
    14    78    77    1
    15    94    93    1
    16    94    97    1
    17    77    76    1
    18    89    90    1
    19    90    91    1
    20    84    82   ar
    21    82    83   ar
    22   104    98    1
    23   104   103    1
    24    98    99    1
    25   133   134    1
    26   140   142   ar
    27   140   138   ar
    28   142   143   ar
    29    76    74   am
    30    75    74    2
    31   136   135    2
    32   103   102    1
    33   137   138    1
    34   137   134    1
    35   138   139   ar
    36    74    73    1
    37   134   135    1
    38   101   100    2
    39    99   100    1
    40    99   102    1
    41   143   144    1
    42   143   141   ar
    43   100   105   am
    44   139   141   ar
    45   120   117    1
    46   114   113    1
    47    73    72    1
    48   105   106    1
    49    72    63   am
    50    64    63    2
    51    63    62    1
    52    21    20    1
    53   116   117    1
    54   116   107   am
    55   106   107    1
    56   106   109    1
    57   113   115    1
    58   113   112    2
    59   117   118    1
    60   107   108    2
    61    61    62    1
    62    62    65    1
    63   111   112    1
    64   111   110    1
    65    20    19    1
    66   110   109    1
    67   118   119    2
    68   118   121   am
    69    48    47    1
    70    65    66    1
    71    47    46    1
    72    31    29   ar
    73    31    32   ar
    74    19    18    1
    75    25    24    2
    76   121   122    1
    77    29    27   ar
    78    60    59    1
    79    46    45    1
    80    66    67   ar
    81    66    68   ar
    82    67    69   ar
    83    57    59   ar
    84    57    55   ar
    85    32    30   ar
    86    24    23    1
    87    59    58   ar
    88    18    17    1
    89   125   122    1
    90    68    70   ar
    91    27    26    1
    92    27    28   ar
    93     6     5    1
    94   122   123    1
    95    23    26    1
    96    23    22    1
    97   124   123    2
    98    55    54   ar
    99    69    71   ar
   100    45    44    1
   101     7     5    1
   102     5     2    1
   103    30    28   ar
   104    70    71   ar
   105    58    56   ar
   106    17    14    1
   107    44    41    1
   108    36    35    2
   109   132   130    1
   110    39    37    1
   111    37    38    1
   112    37    34    1
   113    54    56   ar
   114    54    53    1
   115    12     9    1
   116     2     3    1
   117     2     1    1
   118    35    34    1
   119    35    40   am
   120    14    15    1
   121    14    13    1
   122    41    40    1
   123    41    42    1
   124   130   131    1
   125   130   127    1
   126    34    33    1
   127    53    50    1
   128     3     4    2
   129    15    16    2
   130    50    49    1
   131    50    51    1
   132   126   127    1
   133     9    10    1
   134     9     8    1
   135    42    43    2
   136   127   128    1
   137    10    11    2
   138    51    52    2
   139   128   129    2
