@<TRIPOS>MOLECULE
tmp/5j3zB00.pdb
 116 112 0 0 0
SMALL
GASTEIGER

@<TRIPOS>ATOM
      1  N         -6.8370   -0.3510  -15.9130 N.3   120  THR120     -0.1203
      2  CA        -5.7990   -0.4340  -16.9690 C.3   120  THR120      0.1994
      3  C         -4.3740   -0.5380  -16.4200 C.2   120  THR120      0.2618
      4  O         -4.0450    0.0580  -15.3920 O.2   120  THR120     -0.2717
      5  CB        -5.8620    0.7120  -18.0200 C.3   120  THR120      0.1784
      6  OG1       -5.3570    1.9340  -17.4720 O.3   120  THR120     -0.2211
      7  CG2       -7.2490    0.9000  -18.6360 C.3   120  THR120      0.0376
      8  N         -3.5270   -1.2720  -17.1590 N.am  121  ARG121     -0.1965
      9  CA        -2.1250   -1.5120  -16.8370 C.3   121  ARG121      0.1729
     10  C         -1.3280   -0.2110  -16.6560 C.2   121  ARG121      0.2616
     11  O         -0.5100   -0.1400  -15.7430 O.2   121  ARG121     -0.2715
     12  CB        -1.4620   -2.3750  -17.9240 C.3   121  ARG121      0.0348
     13  CG        -1.8880   -3.8320  -17.9020 C.3   121  ARG121      0.0492
     14  CD        -1.3640   -4.5720  -19.1110 C.3   121  ARG121      0.2205
     15  NE        -0.4550   -5.6540  -18.7360 N.pl3 121  ARG121     -0.0865
     16  CZ         0.8680   -5.5400  -18.6880 C.cat 121  ARG121      0.5346
     17  NH1        1.6160   -6.5770  -18.3390 N.pl3 121  ARG121      0.1354
     18  NH2        1.4540   -4.3870  -18.9900 N.pl3 121  ARG121      0.1354
     19  N         -1.5910    0.7890  -17.5010 N.am  122  GLY122     -0.1955
     20  CA        -0.8970    2.0770  -17.5040 C.3   122  GLY122      0.1869
     21  C         -1.0220    2.9390  -16.2630 C.2   122  GLY122      0.2309
     22  O         -0.2330    3.8720  -16.0890 O.2   122  GLY122     -0.2863
     23  N         -8.7190   -4.6980   -9.8200 N.3   154  ASN154     -0.1240
     24  CA        -7.9330   -4.6150  -11.0740 C.3   154  ASN154      0.1653
     25  C         -6.4610   -5.0390  -10.8400 C.2   154  ASN154      0.2266
     26  O         -5.5790   -4.7040  -11.6300 O.2   154  ASN154     -0.2867
     27  CB        -7.9830   -3.1960  -11.6730 C.3   154  ASN154      0.1155
     28  CG        -9.2030   -2.9330  -12.5000 C.2   154  ASN154      0.2627
     29  OD1       -9.4260   -3.5830  -13.5180 O.2   154  ASN154     -0.2716
     30  ND2       -9.9980   -1.9480  -12.0990 N.am  154  ASN154     -0.0877
     31  N         -2.9890   -7.3340  -10.2140 N.3   156  ARG156     -0.1245
     32  CA        -2.1330   -8.3970  -10.6960 C.3   156  ARG156      0.1563
     33  C         -1.3060   -8.7990   -9.4780 C.2   156  ARG156      0.2260
     34  O         -1.0230   -7.9380   -8.6380 O.2   156  ARG156     -0.2867
     35  CB        -1.2700   -7.9030  -11.8750 C.3   156  ARG156      0.0307
     36  CG        -2.0280   -7.8180  -13.2140 C.3   156  ARG156      0.0489
     37  CD        -2.8520   -6.5410  -13.3760 C.3   156  ARG156      0.2205
     38  NE        -3.2840   -6.3560  -14.7610 N.pl3 156  ARG156     -0.0865
     39  CZ        -4.1870   -5.4690  -15.1640 C.cat 156  ARG156      0.5346
     40  NH1       -4.7850   -4.6730  -14.2870 N.pl3 156  ARG156      0.1354
     41  NH2       -4.5090   -5.3800  -16.4440 N.pl3 156  ARG156      0.1354
     42  N          1.7920   -9.3990   -9.0620 N.3   158  ARG158     -0.1245
     43  CA         3.0420   -8.6260   -9.0200 C.3   158  ARG158      0.1563
     44  C          2.8620   -7.2370   -8.3660 C.2   158  ARG158      0.2260
     45  O          3.8130   -6.7190   -7.7760 O.2   158  ARG158     -0.2867
     46  CB         3.6440   -8.4750  -10.4370 C.3   158  ARG158      0.0307
     47  CG         2.7990   -7.6580  -11.4270 C.3   158  ARG158      0.0489
     48  CD         3.3590   -7.6850  -12.8340 C.3   158  ARG158      0.2205
     49  NE         2.4680   -7.0200  -13.7880 N.pl3 158  ARG158     -0.0865
     50  CZ         1.4980   -7.6290  -14.4680 C.cat 158  ARG158      0.5346
     51  NH1        1.2720   -8.9270  -14.3000 N.pl3 158  ARG158      0.1354
     52  NH2        0.7430   -6.9420  -15.3140 N.pl3 158  ARG158      0.1354
     53  N        -12.2540  -12.6580  -14.1100 N.3   187  TRP187     -0.1241
     54  CA       -12.2420  -11.9940  -15.4070 C.3   187  TRP187      0.1605
     55  C        -11.5310  -12.9500  -16.3640 C.2   187  TRP187      0.2264
     56  O        -10.3050  -13.0890  -16.3180 O.2   187  TRP187     -0.2867
     57  CB       -11.5640  -10.6210  -15.2960 C.3   187  TRP187      0.0550
     58  CG       -11.8480   -9.7060  -16.4460 C.ar  187  TRP187      0.0003
     59  CD1      -12.9710   -8.9560  -16.6400 C.ar  187  TRP187      0.0946
     60  CD2      -10.9660   -9.4000  -17.5320 C.ar  187  TRP187      0.0152
     61  NE1      -12.8570   -8.2270  -17.8010 N.ar  187  TRP187     -0.2442
     62  CE2      -11.6350   -8.4800  -18.3680 C.ar  187  TRP187      0.0810
     63  CE3       -9.6820   -9.8400  -17.9000 C.ar  187  TRP187      0.0012
     64  CZ2      -11.0540   -7.9720  -19.5370 C.ar  187  TRP187      0.0191
     65  CZ3       -9.1130   -9.3430  -19.0630 C.ar  187  TRP187      0.0001
     66  CH2       -9.7970   -8.4230  -19.8690 C.ar  187  TRP187      0.0015
     67  N        -13.1420  -10.5070  -26.5000 N.3   197  ILE197     -0.1231
     68  CA       -11.6820  -10.3670  -26.5710 C.3   197  ILE197      0.1678
     69  C        -11.0880  -11.6610  -27.1770 C.2   197  ILE197      0.2434
     70  O        -11.3460  -12.7520  -26.6560 O.2   197  ILE197     -0.2733
     71  CB       -11.0590  -10.0070  -25.1870 C.3   197  ILE197      0.0265
     72  CG1      -11.3860   -8.5480  -24.8020 C.3   197  ILE197      0.0019
     73  CG2       -9.5360  -10.2510  -25.1610 C.3   197  ILE197      0.0020
     74  CD1      -11.1920   -8.2040  -23.3330 C.3   197  ILE197      0.0001
     75  N        -10.3100  -11.5480  -28.2840 N.am  198  PRO198     -0.2718
     76  CA        -9.7410  -12.7530  -28.9150 C.3   198  PRO198      0.1535
     77  C         -8.6300  -13.4310  -28.1090 C.2   198  PRO198      0.2598
     78  O         -8.4940  -14.6540  -28.1870 O.2   198  PRO198     -0.2715
     79  CB        -9.1740  -12.2210  -30.2310 C.3   198  PRO198      0.0310
     80  CG        -8.8630  -10.7850  -29.9550 C.3   198  PRO198      0.0237
     81  CD        -9.9460  -10.3250  -29.0310 C.3   198  PRO198      0.0939
     82  N         -7.8120  -12.6430  -27.3840 N.am  199  ALA199     -0.1964
     83  CA        -6.6860  -13.1580  -26.6070 C.3   199  ALA199      0.1728
     84  C         -7.1650  -13.7830  -25.3010 C.2   199  ALA199      0.2616
     85  O         -7.8420  -13.1180  -24.5130 O.2   199  ALA199     -0.2715
     86  CB        -5.6830  -12.0440  -26.3320 C.3   199  ALA199      0.0334
     87  N         -6.8310  -15.0720  -25.0900 N.am  200  ALA200     -0.1963
     88  CA        -7.1850  -15.8310  -23.8890 C.3   200  ALA200      0.1728
     89  C         -6.4700  -15.2470  -22.6620 C.2   200  ALA200      0.2616
     90  O         -5.2410  -15.3160  -22.5600 O.2   200  ALA200     -0.2715
     91  CB        -6.8310  -17.3010  -24.0700 C.3   200  ALA200      0.0334
     92  N         -7.2470  -14.6090  -21.7750 N.am  201  CYS201     -0.1968
     93  CA        -6.7630  -13.9610  -20.5570 C.3   201  CYS201      0.1712
     94  C         -7.6010  -14.4010  -19.3690 C.2   201  CYS201      0.2296
     95  O         -8.8280  -14.4150  -19.4510 O.2   201  CYS201     -0.2864
     96  CB        -6.7760  -12.4420  -20.7100 C.3   201  CYS201      0.0983
     97  SG        -6.3420  -11.5370  -19.1970 S.3   201  CYS201     -0.0798
     98  N         -7.6870  -13.5380  -15.1890 N.3   203  LEU203     -0.1245
     99  CA        -7.1530  -12.7340  -14.0840 C.3   203  LEU203      0.1561
    100  C         -8.0940  -12.7050  -12.8920 C.2   203  LEU203      0.2260
    101  O         -9.2920  -12.9230  -13.0510 O.2   203  LEU203     -0.2867
    102  CB        -6.8300  -11.2920  -14.5410 C.3   203  LEU203      0.0270
    103  CG        -5.6170  -11.1330  -15.4840 C.3   203  LEU203      0.0019
    104  CD1       -5.6090   -9.7770  -16.1390 C.3   203  LEU203      0.0001
    105  CD2       -4.2860  -11.3620  -14.7540 C.3   203  LEU203      0.0001
    106  N         -9.1900  -10.1660  -10.7310 N.3   205  PHE205     -0.1241
    107  CA        -9.3890   -8.7390  -10.4460 C.3   205  PHE205      0.1605
    108  C        -10.2400   -8.4990   -9.2000 C.2   205  PHE205      0.2264
    109  O        -10.0250   -7.5290   -8.4660 O.2   205  PHE205     -0.2867
    110  CB       -10.0730   -8.0690  -11.6480 C.3   205  PHE205      0.0534
    111  CG        -9.2030   -7.7700  -12.8460 C.ar  205  PHE205     -0.0203
    112  CD1       -7.8170   -7.7270  -12.7300 C.ar  205  PHE205     -0.0042
    113  CD2       -9.7730   -7.4660  -14.0770 C.ar  205  PHE205     -0.0042
    114  CE1       -7.0190   -7.3970  -13.8260 C.ar  205  PHE205     -0.0003
    115  CE2       -8.9740   -7.1360  -15.1730 C.ar  205  PHE205     -0.0003
    116  CZ        -7.6040   -7.1030  -15.0400 C.ar  205  PHE205     -0.0000
@<TRIPOS>BOND
     1    79    80    1
     2    79    76    1
     3    80    81    1
     4    81    75    1
     5    76    75    1
     6    76    77    1
     7    75    69   am
     8    78    77    2
     9    77    82   am
    10    82    83    1
    11    69    70    2
    12    69    68    1
    13    83    86    1
    14    83    84    1
    15    68    67    1
    16    68    71    1
    17    84    87   am
    18    84    85    2
    19    71    73    1
    20    71    72    1
    21    87    88    1
    22    72    74    1
    23    91    88    1
    24    88    89    1
    25    89    90    2
    26    89    92   am
    27    92    93    1
    28    96    93    1
    29    96    97    1
    30    93    94    1
    31    66    64   ar
    32    66    65   ar
    33    64    62   ar
    34    95    94    2
    35    14    15    1
    36    14    13    1
    37    65    63   ar
    38    18    16    1
    39    15    16    2
    40    16    17    1
    41     7     5    1
    42    62    61   ar
    43    62    60   ar
    44     5     6    1
    45     5     2    1
    46    12    13    1
    47    12     9    1
    48    63    60   ar
    49    61    59   ar
    50    60    58   ar
    51    20    19    1
    52    20    21    1
    53    19    10   am
    54     8     9    1
    55     8     3   am
    56     2     3    1
    57     2     1    1
    58     9    10    1
    59    10    11    2
    60    59    58   ar
    61    58    57    1
    62    41    39    1
    63     3     4    2
    64    55    56    2
    65    55    54    1
    66    21    22    2
    67   104   103    1
    68   103   105    1
    69   103   102    1
    70    54    57    1
    71    54    53    1
    72    52    50    1
    73    98    99    1
    74   115   116   ar
    75   115   113   ar
    76    39    38    2
    77    39    40    1
    78   116   114   ar
    79    38    37    1
    80   102    99    1
    81    50    51    1
    82    50    49    2
    83    99   100    1
    84   113   111   ar
    85   114   112   ar
    86    49    48    1
    87    29    28    2
    88    37    36    1
    89    36    35    1
    90   101   100    2
    91   111   112   ar
    92   111   110    1
    93    48    47    1
    94    28    30   am
    95    28    27    1
    96    35    32    1
    97    27    24    1
    98   110   107    1
    99    26    25    2
   100    47    46    1
   101    24    25    1
   102    24    23    1
   103   106   107    1
   104    32    31    1
   105    32    33    1
   106   107   108    1
   107    46    43    1
   108    33    34    2
   109   108   109    2
   110    42    43    1
   111    43    44    1
   112    44    45    2
