@<TRIPOS>MOLECULE
tmp/5j41B00.pdb
 125 120 0 0 0
SMALL
GASTEIGER

@<TRIPOS>ATOM
      1  N         10.3150   22.0380   67.9810 N.3     6  TYR6       -0.1227
      2  CA         9.0590   22.0910   68.7220 C.3     6  TYR6        0.1736
      3  C          7.9870   22.7960   67.9070 C.2     6  TYR6        0.2595
      4  O          8.2710   23.4990   66.9300 O.2     6  TYR6       -0.2718
      5  CB         9.2500   22.8050   70.0640 C.3     6  TYR6        0.0548
      6  CG         8.1600   22.5700   71.0970 C.ar    6  TYR6       -0.0200
      7  CD1        7.7150   21.2810   71.4020 C.ar    6  TYR6       -0.0009
      8  CD2        7.5990   23.6420   71.7850 C.ar    6  TYR6       -0.0009
      9  CE1        6.7270   21.0720   72.3660 C.ar    6  TYR6        0.0417
     10  CE2        6.6180   23.4480   72.7520 C.ar    6  TYR6        0.0417
     11  CZ         6.1860   22.1660   73.0340 C.ar    6  TYR6        0.1957
     12  OH         5.2140   21.9720   73.9960 O.3     6  TYR6       -0.2866
     13  N          6.7480   22.6030   68.3430 N.am    7  PHE7       -0.1976
     14  CA         5.6180   23.3600   67.8380 C.3     7  PHE7        0.1639
     15  C          5.7640   24.8330   68.2160 C.2     7  PHE7        0.2290
     16  O          6.5130   25.1760   69.1350 O.2     7  PHE7       -0.2864
     17  CB         4.3360   22.8000   68.4470 C.3     7  PHE7        0.0560
     18  CG         4.1200   21.3550   68.1400 C.ar    7  PHE7       -0.0200
     19  CD1        3.7390   20.9660   66.8700 C.ar    7  PHE7       -0.0042
     20  CD2        4.3040   20.3780   69.1100 C.ar    7  PHE7       -0.0042
     21  CE1        3.5440   19.6320   66.5670 C.ar    7  PHE7       -0.0003
     22  CE2        4.1110   19.0360   68.8140 C.ar    7  PHE7       -0.0003
     23  CZ         3.7280   18.6630   67.5440 C.ar    7  PHE7       -0.0000
     24  N          4.6360   27.0140   70.1790 N.3     9  VAL9       -0.1245
     25  CA         3.9710   27.2820   71.4490 C.3     9  VAL9        0.1561
     26  C          5.0540   27.3280   72.5140 C.2     9  VAL9        0.2260
     27  O          6.1830   26.8800   72.3100 O.2     9  VAL9       -0.2867
     28  CB         2.8810   26.2430   71.8480 C.3     9  VAL9        0.0252
     29  CG1        1.8820   26.0090   70.7170 C.3     9  VAL9        0.0019
     30  CG2        3.5060   24.9350   72.3120 C.3     9  VAL9        0.0019
     31  N          4.5760   26.0230   75.9520 N.3    11  GLY11      -0.1210
     32  CA         4.4250   24.6200   76.3100 C.3    11  GLY11       0.1956
     33  C          5.5840   24.0620   77.1100 C.2    11  GLY11       0.2611
     34  O          6.0690   24.6770   78.0680 O.2    11  GLY11      -0.2717
     35  N          6.0440   22.8820   76.6990 N.am   12  ARG12      -0.1979
     36  CA         7.0950   22.1510   77.4020 C.3    12  ARG12       0.1597
     37  C          8.5030   22.6090   77.0400 C.2    12  ARG12       0.2287
     38  O          9.4700   22.0230   77.5350 O.2    12  ARG12      -0.2864
     39  CB         6.9360   20.6350   77.2290 C.3    12  ARG12       0.0334
     40  CG         5.8660   20.0490   78.1450 C.3    12  ARG12       0.0492
     41  CD         5.7190   18.5380   77.9690 C.3    12  ARG12       0.2205
     42  NE         4.7630   17.9920   78.9360 N.pl3  12  ARG12      -0.0865
     43  CZ         5.0780   17.6530   80.1850 C.cat  12  ARG12       0.5346
     44  NH1        6.3260   17.7650   80.6140 N.pl3  12  ARG12       0.1354
     45  NH2        4.1430   17.1940   81.0040 N.pl3  12  ARG12       0.1354
     46  N          1.7250   22.2890   63.2210 N.3    34  VAL34      -0.1245
     47  CA         0.8380   21.1330   63.3170 C.3    34  VAL34       0.1561
     48  C          0.5860   20.5170   61.9420 C.2    34  VAL34       0.2260
     49  O          0.4740   19.2950   61.8210 O.2    34  VAL34      -0.2867
     50  CB        -0.4540   21.4970   64.0790 C.3    34  VAL34       0.0252
     51  CG1       -1.4560   20.3570   64.0270 C.3    34  VAL34       0.0019
     52  CG2       -0.1220   21.8390   65.5270 C.3    34  VAL34       0.0019
     53  N          3.5250   18.3910   61.0900 N.3    37  TRP37      -0.1241
     54  CA         3.4680   17.2300   61.9730 C.3    37  TRP37       0.1605
     55  C          2.4730   16.1900   61.4780 C.2    37  TRP37       0.2264
     56  O          2.7170   14.9830   61.6190 O.2    37  TRP37      -0.2867
     57  CB         3.0840   17.7060   63.3690 C.3    37  TRP37       0.0550
     58  CG         3.1160   16.6690   64.4260 C.ar   37  TRP37       0.0003
     59  CD1        2.0410   16.1360   65.0680 C.ar   37  TRP37       0.0946
     60  CD2        4.2760   16.0690   65.0130 C.ar   37  TRP37       0.0152
     61  NE1        2.4600   15.2310   66.0160 N.ar   37  TRP37      -0.2442
     62  CE2        3.8260   15.1700   65.9980 C.ar   37  TRP37       0.0810
     63  CE3        5.6550   16.1960   64.7940 C.ar   37  TRP37       0.0012
     64  CZ2        4.7010   14.4080   66.7740 C.ar   37  TRP37       0.0191
     65  CZ3        6.5260   15.4310   65.5680 C.ar   37  TRP37       0.0001
     66  CH2        6.0420   14.5460   66.5390 C.ar   37  TRP37       0.0015
     67  N          6.9690   12.1240   69.8080 N.3    50  GLN50      -0.1231
     68  CA         6.5820   13.4320   70.3250 C.3    50  GLN50       0.1698
     69  C          7.7370   14.4230   70.2820 C.2    50  GLN50       0.2592
     70  O          8.9130   14.0630   70.1650 O.2    50  GLN50      -0.2718
     71  CB         6.0390   13.3350   71.7590 C.3    50  GLN50       0.0381
     72  CG         4.7690   12.5100   71.8510 C.3    50  GLN50       0.0905
     73  CD         4.0260   12.7260   73.1350 C.2    50  GLN50       0.2608
     74  OE1        4.5840   12.5500   74.2180 O.2    50  GLN50      -0.2717
     75  NE2        2.7610   13.1190   73.0330 N.am   50  GLN50      -0.0878
     76  N          7.3650   15.6980   70.3930 N.am   51  LEU51      -0.1980
     77  CA         8.2890   16.8130   70.5680 C.3    51  LEU51       0.1596
     78  C          8.1410   17.3400   72.0020 C.2    51  LEU51       0.2287
     79  O          7.0980   17.1700   72.6130 O.2    51  LEU51      -0.2864
     80  CB         7.9600   17.9150   69.5550 C.3    51  LEU51       0.0297
     81  CG         8.0780   17.5150   68.0820 C.3    51  LEU51       0.0022
     82  CD1        7.7340   18.6980   67.1940 C.3    51  LEU51       0.0001
     83  CD2        9.4680   17.0050   67.7750 C.3    51  LEU51       0.0001
     84  N          2.2690   20.1600   86.2650 N.3    99  ARG99      -0.1245
     85  CA         2.1970   20.4610   84.8360 C.3    99  ARG99       0.1563
     86  C          1.3180   19.4520   84.1070 C.2    99  ARG99       0.2260
     87  O          0.5370   19.8260   83.2280 O.2    99  ARG99      -0.2867
     88  CB         3.5940   20.5090   84.2120 C.3    99  ARG99       0.0307
     89  CG         3.5520   20.9400   82.7380 C.3    99  ARG99       0.0489
     90  CD         4.9370   20.9770   82.1010 C.3    99  ARG99       0.2205
     91  NE         5.8080   21.9540   82.7410 N.pl3  99  ARG99      -0.0865
     92  CZ         5.7910   23.2650   82.4810 C.cat  99  ARG99       0.5346
     93  NH1        4.9550   23.7500   81.5820 N.pl3  99  ARG99       0.1354
     94  NH2        6.5940   24.0950   83.1340 N.pl3  99  ARG99       0.1354
     95  N         -1.9130   20.4430   81.9320 N.3   103  ILE103     -0.1245
     96  CA        -2.0450   20.0600   80.5310 C.3   103  ILE103      0.1561
     97  C         -3.3200   19.2620   80.3100 C.2   103  ILE103      0.2260
     98  O         -4.0190   19.4530   79.3140 O.2   103  ILE103     -0.2867
     99  CB        -0.7770   19.3170   80.0750 C.3   103  ILE103      0.0252
    100  CG1        0.4070   20.2980   80.0050 C.3   103  ILE103      0.0019
    101  CG2       -0.9840   18.6160   78.7370 C.3   103  ILE103      0.0019
    102  CD1        0.1690   21.5340   79.1150 C.3   103  ILE103      0.0001
    103  N         -6.0410   20.7450   77.6280 N.3   107  TYR107     -0.1227
    104  CA        -6.2720   20.0700   76.3620 C.3   107  TYR107      0.1736
    105  C         -7.4510   19.1130   76.3820 C.2   107  TYR107      0.2596
    106  O         -7.9430   18.7580   75.3070 O.2   107  TYR107     -0.2718
    107  CB        -5.0120   19.3360   75.9080 C.3   107  TYR107      0.0548
    108  CG        -3.8920   20.2410   75.4550 C.ar  107  TYR107     -0.0200
    109  CD1       -3.8010   20.6660   74.1410 C.ar  107  TYR107     -0.0009
    110  CD2       -2.9210   20.6680   76.3420 C.ar  107  TYR107     -0.0009
    111  CE1       -2.7650   21.4940   73.7210 C.ar  107  TYR107      0.0417
    112  CE2       -1.8790   21.4970   75.9350 C.ar  107  TYR107      0.0417
    113  CZ        -1.8090   21.9020   74.6230 C.ar  107  TYR107      0.1957
    114  OH        -0.7880   22.7090   74.1870 O.3   107  TYR107     -0.2866
    115  N         -7.9200   18.6750   77.5580 N.am  108  THR108     -0.1953
    116  CA        -8.9750   17.6630   77.5990 C.3   108  THR108      0.1897
    117  C        -10.2240   18.0270   78.3830 C.2   108  THR108      0.2313
    118  O        -11.2230   17.3110   78.2490 O.2   108  THR108     -0.2863
    119  CB        -8.4580   16.2950   78.1000 C.3   108  THR108      0.1794
    120  OG1       -8.4240   16.2610   79.5360 O.3   108  THR108     -0.2208
    121  CG2       -7.0830   15.9880   77.5520 C.3   108  THR108      0.0378
    122  N         -1.2670   24.9640   72.6160 N.3   204  GLY204     -0.1225
    123  CA        -1.5490   24.8240   71.2000 C.3   204  GLY204      0.1811
    124  C         -2.9990   24.9120   70.7820 C.2   204  GLY204      0.2280
    125  O         -3.2840   24.8720   69.5830 O.2   204  GLY204     -0.2866
@<TRIPOS>BOND
     1    53    54    1
     2    55    56    2
     3    55    54    1
     4    49    48    2
     5    48    47    1
     6    54    57    1
     7    46    47    1
     8    47    50    1
     9    57    58    1
    10    51    50    1
    11    50    52    1
    12    58    60   ar
    13    58    59   ar
    14    63    60   ar
    15    63    65   ar
    16    60    62   ar
    17    59    61   ar
    18    65    66   ar
    19    62    61   ar
    20    62    64   ar
    21    66    64   ar
    22    21    19   ar
    23    21    23   ar
    24    19    18   ar
    25     4     3    2
    26    82    81    1
    27    23    22   ar
    28    83    81    1
    29    14    15    1
    30    14    13    1
    31    14    17    1
    32     3    13   am
    33     3     2    1
    34     1     2    1
    35    81    80    1
    36    18    17    1
    37    18    20   ar
    38    15    16    2
    39     2     5    1
    40    22    20   ar
    41    80    77    1
    42   125   124    2
    43    67    68    1
    44     5     6    1
    45    70    69    2
    46    24    25    1
    47    69    68    1
    48    69    76   am
    49    68    71    1
    50    76    77    1
    51    77    78    1
    52    29    28    1
    53   124   123    1
    54     6     7   ar
    55     6     8   ar
    56   123   122    1
    57     7     9   ar
    58    25    28    1
    59    25    26    1
    60    71    72    1
    61     8    10   ar
    62    28    30    1
    63    72    73    1
    64    78    79    2
    65    27    26    2
    66     9    11   ar
    67    10    11   ar
    68    75    73   am
    69    11    12    1
    70    73    74    2
    71   111   109   ar
    72   111   113   ar
    73   109   108   ar
    74   114   113    1
    75   113   112   ar
    76   106   105    2
    77   108   107    1
    78   108   110   ar
    79   107   104    1
    80   112   110   ar
    81    31    32    1
    82    32    33    1
    83   104   105    1
    84   104   103    1
    85   105   115   am
    86    35    33   am
    87    35    36    1
    88    37    36    1
    89    37    38    2
    90    33    34    2
    91    39    36    1
    92    39    40    1
    93   121   119    1
    94   115   116    1
    95   116   119    1
    96   116   117    1
    97    41    40    1
    98    41    42    1
    99   119   120    1
   100   118   117    2
   101   101    99    1
   102    42    43    2
   103   102   100    1
   104    98    97    2
   105   100    99    1
   106    99    96    1
   107    43    44    1
   108    43    45    1
   109    97    96    1
   110    96    95    1
   111    93    92    1
   112    90    89    1
   113    90    91    1
   114    92    91    2
   115    92    94    1
   116    89    88    1
   117    87    86    2
   118    86    85    1
   119    88    85    1
   120    85    84    1
