@<TRIPOS>MOLECULE
tmp/5j42A00.pdb
 115 112 0 0 0
SMALL
GASTEIGER

@<TRIPOS>ATOM
      1  N         -8.6260  -16.0380  -39.1360 N.3   117  SER117     -0.1202
      2  CA        -8.3790  -15.0220  -38.1110 C.3   117  SER117      0.2020
      3  C         -7.4220  -15.5370  -37.0210 C.2   117  SER117      0.2619
      4  O         -7.2810  -16.7380  -36.8160 O.2   117  SER117     -0.2717
      5  CB        -9.7230  -14.6960  -37.4290 C.3   117  SER117      0.2103
      6  OG       -10.6230  -14.1960  -38.4010 O.3   117  SER117     -0.2182
      7  N         -6.8260  -14.5800  -36.2580 N.am  118  THR118     -0.1938
      8  CA        -6.0890  -14.6930  -34.9910 C.3   118  THR118      0.2028
      9  C         -4.6150  -14.9810  -35.2180 C.2   118  THR118      0.2642
     10  O         -4.2020  -15.4810  -36.2880 O.2   118  THR118     -0.2714
     11  CB        -6.6250  -15.7510  -33.9800 C.3   118  THR118      0.1808
     12  OG1       -6.2220  -17.0530  -34.3860 O.3   118  THR118     -0.2208
     13  CG2       -8.1640  -15.6820  -33.8990 C.3   118  THR118      0.0379
     14  N         -3.8240  -14.6390  -34.2170 N.am  119  ARG119     -0.1977
     15  CA        -2.3910  -14.8760  -34.3730 C.3   119  ARG119      0.1597
     16  C         -2.0960  -16.3650  -34.3670 C.2   119  ARG119      0.2287
     17  O         -1.1700  -16.8080  -35.0590 O.2   119  ARG119     -0.2864
     18  CB        -1.6020  -14.1430  -33.2910 C.3   119  ARG119      0.0334
     19  CG        -1.7920  -12.5870  -33.3410 C.3   119  ARG119      0.0492
     20  CD        -1.0760  -11.9290  -32.1540 C.3   119  ARG119      0.2205
     21  NE        -1.8820  -12.1920  -30.9750 N.pl3 119  ARG119     -0.0865
     22  CZ        -1.7300  -11.5680  -29.8100 C.cat 119  ARG119      0.5346
     23  NH1       -2.5430  -11.8660  -28.7980 N.pl3 119  ARG119      0.1354
     24  NH2       -0.7210  -10.7220  -29.6390 N.pl3 119  ARG119      0.1354
     25  N         -6.7410  -10.2180  -42.3620 N.3   152  ASN152     -0.1240
     26  CA        -6.2230  -10.5530  -41.0420 C.3   152  ASN152      0.1653
     27  C         -4.6850  -10.5730  -41.0030 C.2   152  ASN152      0.2266
     28  O         -4.1190  -11.0780  -40.0620 O.2   152  ASN152     -0.2867
     29  CB        -6.7730  -11.9010  -40.5570 C.3   152  ASN152      0.1155
     30  CG        -8.1390  -11.7060  -39.9700 C.2   152  ASN152      0.2627
     31  OD1       -8.2770  -10.8800  -39.0460 O.2   152  ASN152     -0.2716
     32  ND2       -9.1320  -12.4540  -40.4470 N.am  152  ASN152     -0.0877
     33  N         -0.6750   -9.4860  -40.7240 N.3   154  ARG154     -0.1231
     34  CA         0.0620   -8.5680  -39.8590 C.3   154  ARG154      0.1694
     35  C          1.5180   -8.8780  -40.0450 C.2   154  ARG154      0.2592
     36  O          1.8650   -9.8840  -40.6640 O.2   154  ARG154     -0.2718
     37  CB        -0.2740   -8.7240  -38.3720 C.3   154  ARG154      0.0321
     38  CG        -0.1450  -10.1810  -37.8700 C.3   154  ARG154      0.0489
     39  CD        -1.5730  -10.7710  -37.9010 C.3   154  ARG154      0.2205
     40  NE        -2.2750  -10.3960  -36.6790 N.pl3 154  ARG154     -0.0865
     41  CZ        -3.5690  -10.7060  -36.4000 C.cat 154  ARG154      0.5346
     42  NH1       -4.3550  -11.3810  -37.2430 N.pl3 154  ARG154      0.1354
     43  NH2       -4.0610  -10.3430  -35.2100 N.pl3 154  ARG154      0.1354
     44  N          2.3530   -8.0210  -39.4850 N.am  155  ASP155     -0.1974
     45  CA         3.8000   -8.3220  -39.3110 C.3   155  ASP155      0.1709
     46  C          4.3680   -8.6910  -40.6800 C.2   155  ASP155      0.2293
     47  O          4.0670   -7.9950  -41.6590 O.2   155  ASP155     -0.2864
     48  CB         3.9900   -9.4010  -38.2700 C.3   155  ASP155      0.1436
     49  CG         3.5470   -8.9550  -36.8640 C.2   155  ASP155      0.3671
     50  OD1        3.3640   -7.7320  -36.6630 O.co2 155  ASP155     -0.2456
     51  OD2        3.3730   -9.8200  -36.0000 O.co2 155  ASP155     -0.2456
     52  N         -8.1900   -1.4800  -38.5380 N.3   185  TRP185     -0.1241
     53  CA        -8.7300   -2.0110  -37.2660 C.3   185  TRP185      0.1605
     54  C         -7.9650   -1.2950  -36.1740 C.2   185  TRP185      0.2264
     55  O         -6.7990   -1.5890  -35.8860 O.2   185  TRP185     -0.2867
     56  CB        -8.5820   -3.5300  -37.2170 C.3   185  TRP185      0.0550
     57  CG        -9.4180   -4.2300  -36.1580 C.ar  185  TRP185      0.0003
     58  CD1      -10.7340   -4.5520  -36.2470 C.ar  185  TRP185      0.0946
     59  CD2       -8.9460   -4.7570  -34.9370 C.ar  185  TRP185      0.0152
     60  NE1      -11.1180   -5.2330  -35.0870 N.ar  185  TRP185     -0.2442
     61  CE2      -10.0210   -5.3770  -34.2850 C.ar  185  TRP185      0.0810
     62  CE3       -7.6780   -4.7680  -34.3080 C.ar  185  TRP185      0.0012
     63  CZ2       -9.8800   -6.0030  -33.0140 C.ar  185  TRP185      0.0191
     64  CZ3       -7.5520   -5.3630  -33.0760 C.ar  185  TRP185      0.0001
     65  CH2       -8.6350   -5.9770  -32.4420 C.ar  185  TRP185      0.0015
     66  N        -12.6680   -2.8280  -25.1680 N.3   195  ILE195     -0.1231
     67  CA       -11.4390   -3.5040  -24.7710 C.3   195  ILE195      0.1678
     68  C        -10.3460   -2.5060  -24.4170 C.2   195  ILE195      0.2434
     69  O        -10.2040   -1.4570  -25.0550 O.2   195  ILE195     -0.2733
     70  CB       -10.9320   -4.4750  -25.8560 C.3   195  ILE195      0.0265
     71  CG1      -10.1690   -3.7760  -26.9500 C.3   195  ILE195      0.0019
     72  CG2      -12.0650   -5.2670  -26.4440 C.3   195  ILE195      0.0020
     73  CD1       -9.7510   -4.7430  -27.9420 C.3   195  ILE195      0.0001
     74  N         -9.5440   -2.8150  -23.4090 N.am  196  PRO196     -0.2718
     75  CA        -8.6350   -1.7910  -22.8420 C.3   196  PRO196      0.1535
     76  C         -7.3860   -1.5390  -23.6840 C.2   196  PRO196      0.2598
     77  O         -6.7780   -0.4630  -23.5720 O.2   196  PRO196     -0.2715
     78  CB        -8.2710   -2.3700  -21.4750 C.3   196  PRO196      0.0310
     79  CG        -8.4150   -3.8940  -21.6300 C.3   196  PRO196      0.0237
     80  CD        -9.4570   -4.1290  -22.7420 C.3   196  PRO196      0.0939
     81  N         -6.9830   -2.4550  -24.5370 N.am  197  ALA197     -0.1964
     82  CA        -5.6510   -2.3310  -25.1220 C.3   197  ALA197      0.1728
     83  C         -5.6690   -1.6250  -26.4960 C.2   197  ALA197      0.2616
     84  O         -6.6380   -1.7100  -27.2530 O.2   197  ALA197     -0.2715
     85  CB        -5.0150   -3.7190  -25.2110 C.3   197  ALA197      0.0334
     86  N         -4.5920   -0.9020  -26.7840 N.am  198  ALA198     -0.1963
     87  CA        -4.4030   -0.1890  -28.0430 C.3   198  ALA198      0.1728
     88  C         -3.8220   -1.1360  -29.0800 C.2   198  ALA198      0.2616
     89  O         -2.8550   -1.8670  -28.8110 O.2   198  ALA198     -0.2715
     90  CB        -3.4410    0.9890  -27.8910 C.3   198  ALA198      0.0334
     91  N         -4.4220   -1.1260  -30.2560 N.am  199  CYS199     -0.1968
     92  CA        -3.9680   -1.9730  -31.3550 C.3   199  CYS199      0.1712
     93  C         -4.3510   -1.2640  -32.6320 C.2   199  CYS199      0.2296
     94  O         -5.4970   -0.8510  -32.7870 O.2   199  CYS199     -0.2864
     95  CB        -4.6360   -3.3400  -31.2960 C.3   199  CYS199      0.0983
     96  SG        -4.1100   -4.3990  -32.6880 S.3   199  CYS199     -0.0798
     97  N         -4.0110   -2.0540  -36.6900 N.3   201  LEU201     -0.1245
     98  CA        -3.5790   -3.0130  -37.6990 C.3   201  LEU201      0.1561
     99  C         -4.2570   -2.7280  -39.0200 C.2   201  LEU201      0.2260
    100  O         -5.2580   -2.0210  -39.1120 O.2   201  LEU201     -0.2867
    101  CB        -3.8560   -4.4670  -37.2800 C.3   201  LEU201      0.0270
    102  CG        -3.0300   -4.9070  -36.0790 C.3   201  LEU201      0.0019
    103  CD1       -3.5480   -6.2000  -35.4940 C.3   201  LEU201      0.0001
    104  CD2       -1.5970   -5.1340  -36.4090 C.3   201  LEU201      0.0001
    105  N         -5.8160   -4.8550  -41.4150 N.3   203  PHE203     -0.1241
    106  CA        -6.3600   -6.1410  -41.8430 C.3   203  PHE203      0.1605
    107  C         -6.9640   -6.0800  -43.2370 C.2   203  PHE203      0.2264
    108  O         -6.9460   -7.0770  -43.9820 O.2   203  PHE203     -0.2867
    109  CB        -7.4390   -6.5470  -40.8360 C.3   203  PHE203      0.0534
    110  CG        -6.9010   -7.0220  -39.4770 C.ar  203  PHE203     -0.0203
    111  CD1       -5.5900   -7.5050  -39.2980 C.ar  203  PHE203     -0.0042
    112  CD2       -7.7290   -6.9900  -38.3780 C.ar  203  PHE203     -0.0042
    113  CE1       -5.1700   -8.0190  -38.0670 C.ar  203  PHE203     -0.0003
    114  CE2       -7.3160   -7.4750  -37.1360 C.ar  203  PHE203     -0.0003
    115  CZ        -6.0140   -7.9720  -36.9620 C.ar  203  PHE203     -0.0000
@<TRIPOS>BOND
     1   108   107    2
     2   107   106    1
     3    25    26    1
     4   106   105    1
     5   106   109    1
     6    47    46    2
     7    26    27    1
     8    26    29    1
     9    27    28    2
    10   109   110    1
    11    33    34    1
    12    46    45    1
    13    36    35    2
    14    29    30    1
    15    32    30   am
    16    35    34    1
    17    35    44   am
    18    30    31    2
    19    34    37    1
    20    44    45    1
    21   110   111   ar
    22   110   112   ar
    23    45    48    1
    24   111   113   ar
    25     1     2    1
    26   100    99    2
    27    99    98    1
    28    52    53    1
    29     6     5    1
    30   112   114   ar
    31    37    38    1
    32    48    49    1
    33     2     5    1
    34     2     3    1
    35   113   115   ar
    36    39    38    1
    37    39    40    1
    38    98   101    1
    39    98    97    1
    40   101   102    1
    41    53    56    1
    42    53    54    1
    43    42    41    1
    44    56    57    1
    45   114   115   ar
    46     3     4    2
    47     3     7   am
    48    49    50   ar
    49    49    51   ar
    50    40    41    2
    51   104   102    1
    52    41    43    1
    53    10     9    2
    54     7     8    1
    55    58    57   ar
    56    58    60   ar
    57    54    55    2
    58    57    59   ar
    59   102   103    1
    60     9     8    1
    61     9    14   am
    62    60    61   ar
    63    17    16    2
    64     8    11    1
    65    59    62   ar
    66    59    61   ar
    67    12    11    1
    68    15    16    1
    69    15    14    1
    70    15    18    1
    71    62    64   ar
    72    61    63   ar
    73    11    13    1
    74    19    18    1
    75    19    20    1
    76    64    65   ar
    77    63    65   ar
    78    94    93    2
    79    96    95    1
    80    93    92    1
    81    20    21    1
    82    92    95    1
    83    92    91    1
    84    21    22    2
    85    91    88   am
    86    22    24    1
    87    22    23    1
    88    88    89    2
    89    88    87    1
    90    87    90    1
    91    87    86    1
    92    73    71    1
    93    84    83    2
    94    71    70    1
    95    86    83   am
    96    83    82    1
    97    72    70    1
    98    70    67    1
    99    85    82    1
   100    66    67    1
   101    82    81    1
   102    69    68    2
   103    67    68    1
   104    81    76   am
   105    68    74   am
   106    76    77    2
   107    76    75    1
   108    74    75    1
   109    74    80    1
   110    75    78    1
   111    80    79    1
   112    79    78    1
