@<TRIPOS>MOLECULE
tmp/5j42A01.pdb
 113 105 0 0 0
SMALL
GASTEIGER

@<TRIPOS>ATOM
      1  N        -15.4920   -5.2640  -43.4420 N.3     8  ASN8       -0.1240
      2  CA       -15.8900   -6.3000  -42.4790 C.3     8  ASN8        0.1653
      3  C        -16.8900   -5.5880  -41.5860 C.2     8  ASN8        0.2266
      4  O        -16.5120   -4.6830  -40.8300 O.2     8  ASN8       -0.2867
      5  CB       -14.6840   -6.7860  -41.6800 C.3     8  ASN8        0.1155
      6  CG       -15.0450   -7.8460  -40.6490 C.2     8  ASN8        0.2627
      7  OD1      -16.0910   -7.7410  -40.0210 O.2     8  ASN8       -0.2716
      8  ND2      -14.1710   -8.8630  -40.4480 N.am    8  ASN8       -0.0877
      9  N        -18.8740   -6.7290  -39.1970 N.3    10  ASP10      -0.1239
     10  CA       -19.0340   -7.2660  -37.8240 C.3    10  ASP10       0.1674
     11  C        -20.4750   -7.6500  -37.5750 C.2    10  ASP10       0.2266
     12  O        -21.0840   -7.2510  -36.5460 O.2    10  ASP10      -0.2867
     13  CB       -18.5320   -6.2510  -36.7900 C.3    10  ASP10       0.1410
     14  CG       -18.2270   -6.8680  -35.4110 C.2    10  ASP10       0.3668
     15  OD1      -18.0330   -8.1250  -35.3050 O.co2  10  ASP10      -0.2456
     16  OD2      -18.3100   -6.0690  -34.4280 O.co2  10  ASP10      -0.2456
     17  N        -21.3740  -10.3630  -36.4970 N.3    12  LEU12      -0.1245
     18  CA       -21.3180  -11.1540  -35.2740 C.3    12  LEU12       0.1561
     19  C        -21.6030  -10.3350  -34.0200 C.2    12  LEU12       0.2260
     20  O        -21.8820  -10.8970  -32.9450 O.2    12  LEU12      -0.2867
     21  CB       -19.9300  -11.8380  -35.1630 C.3    12  LEU12       0.0270
     22  CG       -19.7370  -12.9040  -36.2550 C.3    12  LEU12       0.0019
     23  CD1      -18.3000  -13.5040  -36.2560 C.3    12  LEU12       0.0001
     24  CD2      -20.7380  -14.0510  -36.1810 C.3    12  LEU12       0.0001
     25  N        -18.2020  -10.9990  -42.7540 N.3    40  GLU40      -0.1245
     26  CA       -18.9070  -11.1380  -41.4850 C.3    40  GLU40       0.1567
     27  C        -20.3430  -10.7290  -41.6340 C.2    40  GLU40       0.2260
     28  O        -20.9630  -10.2470  -40.6730 O.2    40  GLU40      -0.2867
     29  CB       -18.2510  -10.3710  -40.3430 C.3    40  GLU40       0.0388
     30  CG       -17.0730  -11.1800  -39.8150 C.3    40  GLU40       0.1160
     31  CD       -16.5100  -10.7110  -38.4510 C.2    40  GLU40       0.3649
     32  OE1      -15.2740  -10.8040  -38.2680 O.co2  40  GLU40      -0.2457
     33  OE2      -17.2550  -10.2410  -37.5860 O.co2  40  GLU40      -0.2457
     34  N        -21.4840  -17.1040  -40.4960 N.3    66  TYR66      -0.1241
     35  CA       -21.2320  -15.7560  -40.9800 C.3    66  TYR66       0.1605
     36  C        -20.4490  -15.9240  -42.2590 C.2    66  TYR66       0.2264
     37  O        -19.7980  -16.9680  -42.4470 O.2    66  TYR66      -0.2867
     38  CB       -20.4150  -14.9090  -39.9720 C.3    66  TYR66       0.0534
     39  CG       -19.1010  -15.5220  -39.5460 C.ar   66  TYR66      -0.0201
     40  CD1      -19.0380  -16.5510  -38.5820 C.ar   66  TYR66      -0.0009
     41  CD2      -17.9210  -15.0670  -40.1150 C.ar   66  TYR66      -0.0009
     42  CE1      -17.7890  -17.1650  -38.1840 C.ar   66  TYR66       0.0417
     43  CE2      -16.7110  -15.6280  -39.7330 C.ar   66  TYR66       0.0417
     44  CZ       -16.6380  -16.6770  -38.7980 C.ar   66  TYR66       0.1957
     45  OH       -15.4040  -17.2000  -38.4480 O.3    66  TYR66      -0.2866
     46  N        -13.8800  -20.4570  -43.8440 N.3    94  ARG94      -0.1245
     47  CA       -13.4460  -19.4050  -44.7530 C.3    94  ARG94       0.1563
     48  C        -13.2250  -19.9890  -46.1550 C.2    94  ARG94       0.2260
     49  O        -12.9620  -21.1810  -46.3040 O.2    94  ARG94      -0.2867
     50  CB       -12.1570  -18.7700  -44.2300 C.3    94  ARG94       0.0307
     51  CG       -12.1920  -18.3080  -42.7750 C.3    94  ARG94       0.0489
     52  CD       -13.3670  -17.3140  -42.5850 C.3    94  ARG94       0.2205
     53  NE       -13.5460  -17.0130  -41.1360 N.pl3  94  ARG94      -0.0865
     54  CZ       -12.7620  -16.1750  -40.4330 C.cat  94  ARG94       0.5346
     55  NH1      -11.7480  -15.5310  -40.9900 N.pl3  94  ARG94       0.1354
     56  NH2      -12.9960  -15.9840  -39.1260 N.pl3  94  ARG94       0.1354
     57  N        -12.4960  -13.6420  -46.2000 N.3   114  HIS114     -0.1241
     58  CA       -12.1580  -13.2840  -44.8330 C.3   114  HIS114      0.1621
     59  C        -11.1230  -14.3240  -44.4400 C.2   114  HIS114      0.2264
     60  O        -11.4480  -15.4790  -44.1270 O.2   114  HIS114     -0.2867
     61  CB       -13.4300  -13.3300  -43.9910 C.3   114  HIS114      0.0745
     62  CG       -13.2580  -12.9390  -42.5690 C.ar  114  HIS114      0.0817
     63  ND1      -14.2830  -13.1500  -41.6670 N.ar  114  HIS114     -0.2268
     64  CD2      -12.2800  -12.3000  -41.8880 C.ar  114  HIS114      0.1154
     65  CE1      -13.9230  -12.7010  -40.4750 C.ar  114  HIS114      0.1986
     66  NE2      -12.7150  -12.1690  -40.5730 N.ar  114  HIS114     -0.2212
     67  N         -8.6260  -16.0380  -39.1360 N.3   117  SER117     -0.1202
     68  CA        -8.3790  -15.0220  -38.1110 C.3   117  SER117      0.2020
     69  C         -7.4220  -15.5370  -37.0210 C.2   117  SER117      0.2619
     70  O         -7.2810  -16.7380  -36.8160 O.2   117  SER117     -0.2717
     71  CB        -9.7230  -14.6960  -37.4290 C.3   117  SER117      0.2103
     72  OG       -10.6230  -14.1960  -38.4010 O.3   117  SER117     -0.2182
     73  N         -6.8260  -14.5800  -36.2580 N.am  118  THR118     -0.1952
     74  CA        -6.0890  -14.6930  -34.9910 C.3   118  THR118      0.1897
     75  C         -4.6150  -14.9810  -35.2180 C.2   118  THR118      0.2313
     76  O         -4.2020  -15.4810  -36.2880 O.2   118  THR118     -0.2863
     77  CB        -6.6250  -15.7510  -33.9800 C.3   118  THR118      0.1794
     78  OG1       -6.2220  -17.0530  -34.3860 O.3   118  THR118     -0.2208
     79  CG2       -8.1640  -15.6820  -33.8990 C.3   118  THR118      0.0378
     80  N         -6.7410  -10.2180  -42.3620 N.3   152  ASN152     -0.1240
     81  CA        -6.2230  -10.5530  -41.0420 C.3   152  ASN152      0.1653
     82  C         -4.6850  -10.5730  -41.0030 C.2   152  ASN152      0.2266
     83  O         -4.1190  -11.0780  -40.0620 O.2   152  ASN152     -0.2867
     84  CB        -6.7730  -11.9010  -40.5570 C.3   152  ASN152      0.1155
     85  CG        -8.1390  -11.7060  -39.9700 C.2   152  ASN152      0.2627
     86  OD1       -8.2770  -10.8800  -39.0460 O.2   152  ASN152     -0.2716
     87  ND2       -9.1320  -12.4540  -40.4470 N.am  152  ASN152     -0.0877
     88  N        -15.4110   -2.4130  -29.8990 N.3   193  LEU193     -0.1245
     89  CA       -15.0010   -3.4440  -28.9740 C.3   193  LEU193      0.1561
     90  C        -14.6480   -2.7330  -27.6790 C.2   193  LEU193      0.2260
     91  O        -13.9700   -1.7020  -27.6820 O.2   193  LEU193     -0.2867
     92  CB       -13.8030   -4.2230  -29.5040 C.3   193  LEU193      0.0270
     93  CG       -14.1050   -4.9570  -30.8070 C.3   193  LEU193      0.0019
     94  CD1      -12.8130   -5.4390  -31.4450 C.3   193  LEU193      0.0001
     95  CD2      -14.9920   -6.1540  -30.5660 C.3   193  LEU193      0.0001
     96  N        -16.4520   -2.5830  -35.9920 N.3   236  ASP236     -0.1225
     97  CA       -15.1430   -2.4160  -35.3510 C.3   236  ASP236      0.1805
     98  C        -14.0390   -2.2080  -36.3810 C.2   236  ASP236      0.2597
     99  O        -12.9330   -1.7450  -36.0220 O.2   236  ASP236     -0.2718
    100  CB       -14.8210   -3.6180  -34.4250 C.3   236  ASP236      0.1424
    101  CG       -14.6980   -4.9510  -35.1970 C.2   236  ASP236      0.3668
    102  OD1      -15.4640   -5.1430  -36.1730 O.co2 236  ASP236     -0.2456
    103  OD2      -13.8950   -5.8390  -34.8140 O.co2 236  ASP236     -0.2456
    104  N        -14.2940   -2.5540  -37.6320 N.am  237  HIS237     -0.1975
    105  CA       -13.3950   -2.1670  -38.7210 C.3   237  HIS237      0.1656
    106  C        -13.8270   -0.8650  -39.3860 C.2   237  HIS237      0.2291
    107  O        -15.0230   -0.5730  -39.5310 O.2   237  HIS237     -0.2864
    108  CB       -13.3320   -3.2310  -39.8410 C.3   237  HIS237      0.0771
    109  CG       -12.7900   -4.5560  -39.4490 C.ar  237  HIS237      0.0820
    110  ND1      -11.6850   -5.1220  -40.0910 N.ar  237  HIS237     -0.2267
    111  CD2      -13.1810   -5.4520  -38.5040 C.ar  237  HIS237      0.1154
    112  CE1      -11.4650   -6.3310  -39.5900 C.ar  237  HIS237      0.1986
    113  NE2      -12.3690   -6.5640  -38.6240 N.ar  237  HIS237     -0.2212
@<TRIPOS>BOND
     1    49    48    2
     2    57    58    1
     3    48    47    1
     4    58    59    1
     5    58    61    1
     6    47    50    1
     7    47    46    1
     8    59    60    2
     9    50    51    1
    10    61    62    1
    11     1     2    1
    12    51    52    1
    13    25    26    1
    14    52    53    1
    15    62    64   ar
    16    62    63   ar
    17     2     5    1
    18     2     3    1
    19    37    36    2
    20    80    81    1
    21    36    35    1
    22    64    66   ar
    23     5     6    1
    24    63    65   ar
    25    27    26    1
    26    27    28    2
    27     3     4    2
    28    26    29    1
    29    53    54    2
    30    81    82    1
    31    81    84    1
    32    82    83    2
    33    55    54    1
    34    35    34    1
    35    35    38    1
    36     6     8   am
    37     6     7    2
    38    66    65   ar
    39    84    85    1
    40    87    85   am
    41    54    56    1
    42    29    30    1
    43    41    43   ar
    44    41    39   ar
    45   110   112   ar
    46   110   109   ar
    47    38    39    1
    48    85    86    2
    49   108   109    1
    50   108   105    1
    51    30    31    1
    52    43    44   ar
    53   112   113   ar
    54    39    40   ar
    55   107   106    2
    56   109   111   ar
    57   106   105    1
    58     9    10    1
    59    67    68    1
    60    44    45    1
    61    44    42   ar
    62   105   104    1
    63   113   111   ar
    64    40    42   ar
    65    31    32   ar
    66    31    33   ar
    67    72    71    1
    68    68    71    1
    69    68    69    1
    70    10    11    1
    71    10    13    1
    72   104    98   am
    73    11    12    2
    74    69    70    2
    75    69    73   am
    76    13    14    1
    77    17    18    1
    78    98    99    2
    79    98    97    1
    80    76    75    2
    81    73    74    1
    82    23    22    1
    83    22    24    1
    84    22    21    1
    85   102   101   ar
    86    96    97    1
    87    14    15   ar
    88    14    16   ar
    89    97   100    1
    90    18    21    1
    91    18    19    1
    92    75    74    1
    93   101   103   ar
    94   101   100    1
    95    74    77    1
    96    78    77    1
    97    19    20    2
    98    77    79    1
    99    94    93    1
   100    93    95    1
   101    93    92    1
   102    88    89    1
   103    92    89    1
   104    89    90    1
   105    91    90    2
