@<TRIPOS>MOLECULE
tmp/5j42B02.pdb
 98 95 0 0 0
SMALL
GASTEIGER

@<TRIPOS>ATOM
      1  N         -6.2410   -6.0050   -9.4860 N.3   154  LEU154     -0.1231
      2  CA        -4.8630   -6.3240   -9.1080 C.3   154  LEU154      0.1693
      3  C         -4.3150   -7.4460   -9.9630 C.2   154  LEU154      0.2592
      4  O         -5.0270   -8.3560  -10.3820 O.2   154  LEU154     -0.2718
      5  CB        -4.7420   -6.7360   -7.6190 C.3   154  LEU154      0.0284
      6  CG        -4.8240   -5.4990   -6.7020 C.3   154  LEU154      0.0019
      7  CD1       -5.1720   -5.9770   -5.2290 C.3   154  LEU154      0.0001
      8  CD2       -3.4880   -4.6160   -6.7500 C.3   154  LEU154      0.0001
      9  N         -3.0010   -7.3730  -10.2010 N.am  155  ARG155     -0.1966
     10  CA        -2.2030   -8.4980  -10.5830 C.3   155  ARG155      0.1729
     11  C         -1.3290   -8.8620   -9.3830 C.2   155  ARG155      0.2616
     12  O         -0.9280   -7.9850   -8.5980 O.2   155  ARG155     -0.2715
     13  CB        -1.3220   -8.1400  -11.7630 C.3   155  ARG155      0.0348
     14  CG        -2.1510   -7.8960  -13.0590 C.3   155  ARG155      0.0492
     15  CD        -2.8830   -6.4600  -13.2500 C.3   155  ARG155      0.2205
     16  NE        -3.3920   -6.3450  -14.6250 N.pl3 155  ARG155     -0.0865
     17  CZ        -4.3840   -5.5350  -15.0130 C.cat 155  ARG155      0.5346
     18  NH1       -5.0240   -4.7330  -14.1320 N.pl3 155  ARG155      0.1354
     19  NH2       -4.7660   -5.5570  -16.3000 N.pl3 155  ARG155      0.1354
     20  N         -1.0940  -10.1670   -9.2150 N.am  156  ASP156     -0.1957
     21  CA        -0.2930  -10.6560   -8.1070 C.3   156  ASP156      0.1840
     22  C          1.0170   -9.8780   -7.9730 C.2   156  ASP156      0.2621
     23  O          1.4660   -9.5700   -6.8530 O.2   156  ASP156     -0.2715
     24  CB         0.0080  -12.1540   -8.2950 C.3   156  ASP156      0.1450
     25  CG        -1.2120  -13.0350   -8.1100 C.2   156  ASP156      0.3671
     26  OD1       -2.2700  -12.4840   -7.7390 O.co2 156  ASP156     -0.2456
     27  OD2       -1.0810  -14.2850   -8.2780 O.co2 156  ASP156     -0.2456
     28  N          1.6670   -9.5840   -9.0950 N.am  157  ARG157     -0.1977
     29  CA         2.9530   -8.8610   -8.9860 C.3   157  ARG157      0.1597
     30  C          2.7920   -7.4780   -8.3070 C.2   157  ARG157      0.2287
     31  O          3.7350   -6.9660   -7.6960 O.2   157  ARG157     -0.2864
     32  CB         3.5710   -8.7220  -10.3610 C.3   157  ARG157      0.0334
     33  CG         2.6470   -8.0150  -11.3570 C.3   157  ARG157      0.0492
     34  CD         3.2550   -7.9360  -12.7710 C.3   157  ARG157      0.2205
     35  NE         2.3690   -7.2990  -13.7760 N.pl3 157  ARG157     -0.0865
     36  CZ         1.4550   -7.9470  -14.5060 C.cat 157  ARG157      0.5346
     37  NH1        1.2390   -9.2630  -14.2700 N.pl3 157  ARG157      0.1354
     38  NH2        0.7030   -7.2650  -15.4200 N.pl3 157  ARG157      0.1354
     39  N        -10.9180  -19.3790   -8.9200 N.3   183  GLN183     -0.1231
     40  CA        -9.6960  -18.5970   -8.9250 C.3   183  GLN183      0.1698
     41  C         -9.8650  -17.3230   -9.7710 C.2   183  GLN183      0.2592
     42  O         -9.8790  -16.1990   -9.2300 O.2   183  GLN183     -0.2718
     43  CB        -8.5390  -19.4720   -9.4040 C.3   183  GLN183      0.0381
     44  CG        -7.2540  -18.7000   -9.4440 C.3   183  GLN183      0.0905
     45  CD        -6.0500  -19.5790   -9.7380 C.2   183  GLN183      0.2608
     46  OE1       -6.1910  -20.7950   -9.9330 O.2   183  GLN183     -0.2717
     47  NE2       -4.8560  -18.9650   -9.8360 N.am  183  GLN183     -0.0878
     48  N        -10.1760  -17.4750  -11.0550 N.am  184  TYR184     -0.1976
     49  CA       -10.2370  -16.3220  -11.9640 C.3   184  TYR184      0.1639
     50  C        -11.6270  -15.7120  -12.0140 C.2   184  TYR184      0.2290
     51  O        -12.6070  -16.4490  -12.1270 O.2   184  TYR184     -0.2864
     52  CB        -9.8250  -16.7560  -13.3560 C.3   184  TYR184      0.0560
     53  CG        -8.4190  -17.3130  -13.2810 C.ar  184  TYR184     -0.0198
     54  CD1       -7.3590  -16.4840  -12.9450 C.ar  184  TYR184     -0.0009
     55  CD2       -8.1630  -18.6380  -13.5150 C.ar  184  TYR184     -0.0009
     56  CE1       -6.0440  -16.9780  -12.8600 C.ar  184  TYR184      0.0417
     57  CE2       -6.8360  -19.1340  -13.4440 C.ar  184  TYR184      0.0417
     58  CZ        -5.8050  -18.2800  -13.1030 C.ar  184  TYR184      0.1957
     59  OH        -4.4930  -18.7510  -13.0140 O.3   184  TYR184     -0.2866
     60  N         -6.7910  -14.6670  -18.1140 N.3   201  LYS201     -0.1231
     61  CA        -7.4910  -15.0890  -16.8790 C.3   201  LYS201      0.1693
     62  C         -6.8500  -14.3820  -15.6890 C.2   201  LYS201      0.2592
     63  O         -5.6700  -14.6320  -15.3790 O.2   201  LYS201     -0.2718
     64  CB        -7.3920  -16.6060  -16.7010 C.3   201  LYS201      0.0285
     65  CG        -7.9660  -17.4080  -17.8610 C.3   201  LYS201      0.0035
     66  CD        -8.0560  -18.8940  -17.5320 C.3   201  LYS201      0.0206
     67  CE        -6.6950  -19.4250  -17.1790 C.3   201  LYS201      0.1093
     68  NZ        -6.6760  -20.9260  -17.2030 N.3   201  LYS201     -0.1314
     69  N         -7.6120  -13.5260  -15.0090 N.am  202  LEU202     -0.1966
     70  CA        -7.0640  -12.7490  -13.9300 C.3   202  LEU202      0.1728
     71  C         -8.0180  -12.7920  -12.7790 C.2   202  LEU202      0.2616
     72  O         -9.2060  -13.0410  -12.9640 O.2   202  LEU202     -0.2715
     73  CB        -6.7770  -11.2910  -14.3080 C.3   202  LEU202      0.0311
     74  CG        -5.6420  -11.2860  -15.3670 C.3   202  LEU202      0.0022
     75  CD1       -5.6660   -9.9480  -16.0360 C.3   202  LEU202      0.0001
     76  CD2       -4.3180  -11.6200  -14.6360 C.3   202  LEU202      0.0001
     77  N         -7.4860  -12.5400  -11.5970 N.am  203  ARG203     -0.1977
     78  CA        -8.2850  -12.5210  -10.3680 C.3   203  ARG203      0.1597
     79  C         -8.4260  -11.0720   -9.8690 C.2   203  ARG203      0.2287
     80  O         -7.8350  -10.6470   -8.8410 O.2   203  ARG203     -0.2864
     81  CB        -7.6020  -13.4690   -9.3430 C.3   203  ARG203      0.0334
     82  CG        -8.4690  -13.6440   -8.0460 C.3   203  ARG203      0.0492
     83  CD        -7.8000  -14.7410   -7.2160 C.3   203  ARG203      0.2205
     84  NE        -6.5410  -14.2880   -6.5760 N.pl3 203  ARG203     -0.0865
     85  CZ        -6.4740  -13.6930   -5.3740 C.cat 203  ARG203      0.5346
     86  NH1       -7.5810  -13.4120   -4.7120 N.pl3 203  ARG203      0.1354
     87  NH2       -5.3000  -13.3610   -4.8330 N.pl3 203  ARG203      0.1354
     88  N        -11.5710   -9.3980   -5.3500 N.3   206  ARG206     -0.1245
     89  CA       -10.9340  -10.0290   -4.2180 C.3   206  ARG206      0.1563
     90  C        -11.6090   -9.5650   -2.9570 C.2   206  ARG206      0.2260
     91  O        -12.2540   -8.5040   -2.9170 O.2   206  ARG206     -0.2867
     92  CB        -9.4100   -9.6980   -4.1420 C.3   206  ARG206      0.0307
     93  CG        -8.6010   -9.9860   -5.4510 C.3   206  ARG206      0.0489
     94  CD        -7.0910   -9.8480   -5.1560 C.3   206  ARG206      0.2205
     95  NE        -6.4340  -10.2480   -6.4200 N.pl3 206  ARG206     -0.0865
     96  CZ        -5.1370  -10.5030   -6.5370 C.cat 206  ARG206      0.5346
     97  NH1       -4.3660  -10.4570   -5.4690 N.pl3 206  ARG206      0.1354
     98  NH2       -4.6450  -10.8250   -7.7290 N.pl3 206  ARG206      0.1354
@<TRIPOS>BOND
     1    60    61    1
     2    65    66    1
     3    65    64    1
     4    66    67    1
     5    68    67    1
     6    61    64    1
     7    61    62    1
     8    19    17    1
     9    75    74    1
    10    62    63    2
    11    62    69   am
    12    38    36    1
    13    74    76    1
    14    74    73    1
    15    17    16    2
    16    17    18    1
    17    69    70    1
    18    16    15    1
    19    36    37    1
    20    36    35    2
    21    73    70    1
    22    70    71    1
    23    35    34    1
    24    55    57   ar
    25    55    53   ar
    26    57    58   ar
    27    52    53    1
    28    52    49    1
    29    53    54   ar
    30    15    14    1
    31    58    59    1
    32    58    56   ar
    33    14    13    1
    34    72    71    2
    35    54    56   ar
    36    71    77   am
    37    34    33    1
    38    51    50    2
    39    50    49    1
    40    49    48    1
    41    13    10    1
    42    77    78    1
    43    33    32    1
    44    48    41   am
    45    10     9    1
    46    10    11    1
    47     4     3    2
    48    78    79    1
    49    78    81    1
    50    32    29    1
    51     9     3   am
    52     3     2    1
    53    46    45    2
    54    79    80    2
    55    47    45   am
    56    41    42    2
    57    41    40    1
    58    45    44    1
    59     1     2    1
    60    44    43    1
    61    43    40    1
    62    11    20   am
    63    11    12    2
    64    81    82    1
    65    20    21    1
    66     2     5    1
    67    28    29    1
    68    28    22   am
    69    29    30    1
    70    40    39    1
    71    30    31    2
    72    24    25    1
    73    24    21    1
    74    27    25   ar
    75    25    26   ar
    76    21    22    1
    77    82    83    1
    78    22    23    2
    79    98    96    1
    80     5     6    1
    81    83    84    1
    82     8     6    1
    83     6     7    1
    84    84    85    2
    85    96    95    2
    86    96    97    1
    87    95    94    1
    88    93    94    1
    89    93    92    1
    90    85    87    1
    91    85    86    1
    92    88    89    1
    93    89    92    1
    94    89    90    1
    95    90    91    2
