@<TRIPOS>MOLECULE
tmp/5j47A01.pdb
 132 126 0 0 0
SMALL
GASTEIGER

@<TRIPOS>ATOM
      1  N        -46.3770   17.6890   18.1720 N.3   129  TRP129     -0.1241
      2  CA       -45.6210   17.1560   19.3050 C.3   129  TRP129      0.1605
      3  C        -44.3500   17.9680   19.5140 C.2   129  TRP129      0.2264
      4  O        -44.0810   18.3790   20.6450 O.2   129  TRP129     -0.2867
      5  CB       -45.3020   15.6630   19.1140 C.3   129  TRP129      0.0550
      6  CG       -44.7670   14.9920   20.3460 C.ar  129  TRP129      0.0003
      7  CD1      -45.4740   14.2320   21.2340 C.ar  129  TRP129      0.0946
      8  CD2      -43.4030   14.9650   20.7900 C.ar  129  TRP129      0.0152
      9  NE1      -44.6410   13.7520   22.2160 N.ar  129  TRP129     -0.2442
     10  CE2      -43.3610   14.1810   21.9650 C.ar  129  TRP129      0.0810
     11  CE3      -42.2060   15.5310   20.3080 C.ar  129  TRP129      0.0012
     12  CZ2      -42.1720   13.9480   22.6670 C.ar  129  TRP129      0.0191
     13  CZ3      -41.0330   15.3130   21.0130 C.ar  129  TRP129      0.0001
     14  CH2      -41.0190   14.5210   22.1710 C.ar  129  TRP129      0.0015
     15  N        -42.8030   20.5790   22.6580 N.3   133  LEU133     -0.1245
     16  CA       -41.5560   20.2550   23.3670 C.3   133  LEU133      0.1561
     17  C        -40.9290   21.4560   24.0750 C.2   133  LEU133      0.2260
     18  O        -40.4610   21.3150   25.2080 O.2   133  LEU133     -0.2867
     19  CB       -40.5470   19.5640   22.4200 C.3   133  LEU133      0.0270
     20  CG       -39.2430   18.9850   23.0300 C.3   133  LEU133      0.0019
     21  CD1      -39.5240   17.8070   23.9590 C.3   133  LEU133      0.0001
     22  CD2      -38.2850   18.5490   21.9430 C.3   133  LEU133      0.0001
     23  N        -34.7390   10.2260   27.2110 N.3   165  ASP165     -0.1225
     24  CA       -36.1090   10.3940   26.7150 C.3   165  ASP165      0.1805
     25  C        -36.7590   11.6930   27.2080 C.2   165  ASP165      0.2598
     26  O        -37.8720   11.6800   27.7300 O.2   165  ASP165     -0.2718
     27  CB       -36.9700    9.1540   27.0450 C.3   165  ASP165      0.1424
     28  CG       -36.3580    7.8430   26.5920 C.2   165  ASP165      0.3668
     29  OD1      -35.9290    7.7630   25.4230 O.co2 165  ASP165     -0.2456
     30  OD2      -36.3340    6.8920   27.3970 O.co2 165  ASP165     -0.2456
     31  N        -36.0390   12.8120   27.0530 N.am  166  SER166     -0.1938
     32  CA       -36.5090   14.1370   27.4600 C.3   166  SER166      0.2055
     33  C        -36.7700   15.0400   26.2430 C.2   166  SER166      0.2643
     34  O        -37.1270   16.2110   26.4110 O.2   166  SER166     -0.2714
     35  CB       -35.4930   14.7800   28.4020 C.3   166  SER166      0.2130
     36  OG       -34.2170   14.9000   27.7920 O.3   166  SER166     -0.2179
     37  N        -36.5970   14.4850   25.0420 N.am  167  GLY167     -0.1954
     38  CA       -36.7370   15.2100   23.7790 C.3   167  GLY167      0.1869
     39  C        -35.4300   15.8210   23.2900 C.2   167  GLY167      0.2309
     40  O        -35.3560   16.3300   22.1670 O.2   167  GLY167     -0.2863
     41  N        -33.8100   13.5610   20.3390 N.3   170  THR170     -0.1218
     42  CA       -34.7270   13.7160   19.2160 C.3   170  THR170      0.1862
     43  C        -34.5660   15.0720   18.5000 C.2   170  THR170      0.2287
     44  O        -34.4080   15.0940   17.2750 O.2   170  THR170     -0.2866
     45  CB       -36.1570   13.4640   19.7030 C.3   170  THR170      0.1770
     46  OG1      -36.2220   12.1580   20.2740 O.3   170  THR170     -0.2211
     47  CG2      -37.1800   13.5980   18.6050 C.3   170  THR170      0.0375
     48  N        -36.5590   18.6760   30.2370 N.3   281  ARG281     -0.1231
     49  CA       -37.1980   18.0400   31.3840 C.3   281  ARG281      0.1679
     50  C        -38.2940   17.0970   30.8620 C.2   281  ARG281      0.2434
     51  O        -39.1340   17.5570   30.0850 O.2   281  ARG281     -0.2733
     52  CB       -37.8310   19.1200   32.2770 C.3   281  ARG281      0.0321
     53  CG       -37.3900   19.0750   33.7230 C.3   281  ARG281      0.0489
     54  CD       -36.7640   20.3890   34.1300 C.3   281  ARG281      0.2205
     55  NE       -35.3080   20.3590   34.0010 N.pl3 281  ARG281     -0.0865
     56  CZ       -34.5100   21.3930   34.2460 C.cat 281  ARG281      0.5346
     57  NH1      -35.0190   22.5610   34.6200 N.pl3 281  ARG281      0.1354
     58  NH2      -33.1960   21.2710   34.1120 N.pl3 281  ARG281      0.1354
     59  N        -38.3140   15.7910   31.2390 N.am  282  PRO282     -0.2718
     60  CA       -39.3840   14.9070   30.7350 C.3   282  PRO282      0.1535
     61  C        -40.7650   15.3380   31.2190 C.2   282  PRO282      0.2598
     62  O        -40.9340   15.6930   32.3900 O.2   282  PRO282     -0.2715
     63  CB       -39.0100   13.5170   31.2790 C.3   282  PRO282      0.0310
     64  CG       -37.6030   13.6390   31.7630 C.3   282  PRO282      0.0237
     65  CD       -37.4090   15.0680   32.1540 C.3   282  PRO282      0.0939
     66  N        -41.7320   15.3530   30.2960 N.am  283  LYS283     -0.1978
     67  CA       -43.1220   15.7180   30.5660 C.3   283  LYS283      0.1596
     68  C        -43.9740   14.4860   30.3370 C.2   283  LYS283      0.2287
     69  O        -43.9000   13.8860   29.2600 O.2   283  LYS283     -0.2864
     70  CB       -43.5740   16.8830   29.6670 C.3   283  LYS283      0.0298
     71  CG       -43.0290   18.2390   30.0960 C.3   283  LYS283      0.0038
     72  CD       -42.1060   18.8300   29.0380 C.3   283  LYS283      0.0206
     73  CE       -41.5580   20.1860   29.4180 C.3   283  LYS283      0.1093
     74  NZ       -42.5220   21.2780   29.1160 N.3   283  LYS283     -0.1314
     75  N        -46.2290   14.3020   27.1400 N.3   286  LEU286     -0.1231
     76  CA       -45.4850   14.0790   25.8890 C.3   286  LEU286      0.1693
     77  C        -45.2520   12.5860   25.6010 C.2   286  LEU286      0.2591
     78  O        -45.4430   12.1460   24.4660 O.2   286  LEU286     -0.2718
     79  CB       -44.1430   14.8590   25.8610 C.3   286  LEU286      0.0284
     80  CG       -44.2170   16.3950   25.8300 C.3   286  LEU286      0.0019
     81  CD1      -42.8210   17.0040   25.7890 C.3   286  LEU286      0.0001
     82  CD2      -44.9800   16.8960   24.6120 C.3   286  LEU286      0.0001
     83  N        -44.8660   11.8130   26.6310 N.am  287  ARG287     -0.1980
     84  CA       -44.6110   10.3760   26.5340 C.3   287  ARG287      0.1597
     85  C        -45.9210    9.6130   26.2920 C.2   287  ARG287      0.2287
     86  O        -45.9640    8.7080   25.4510 O.2   287  ARG287     -0.2864
     87  CB       -43.9220    9.8800   27.8160 C.3   287  ARG287      0.0334
     88  CG       -43.4530    8.4270   27.7590 C.3   287  ARG287      0.0492
     89  CD       -42.7440    8.0330   29.0330 C.3   287  ARG287      0.2205
     90  NE       -42.2160    6.6730   28.9540 N.pl3 287  ARG287     -0.0865
     91  CZ       -40.9330    6.3720   28.7840 C.cat 287  ARG287      0.5346
     92  NH1      -40.0220    7.3350   28.6920 N.pl3 287  ARG287      0.1354
     93  NH2      -40.5470    5.1040   28.7240 N.pl3 287  ARG287      0.1354
     94  N        -47.2870   10.2310   22.8200 N.3   290  LEU290     -0.1231
     95  CA       -46.4360    9.4570   21.9240 C.3   290  LEU290      0.1693
     96  C        -46.8380    7.9780   21.9190 C.2   290  LEU290      0.2592
     97  O        -46.9480    7.3930   20.8440 O.2   290  LEU290     -0.2718
     98  CB       -44.9590    9.6110   22.3160 C.3   290  LEU290      0.0284
     99  CG       -44.0570   10.2380   21.2760 C.3   290  LEU290      0.0019
    100  CD1      -42.6210   10.3550   21.8140 C.3   290  LEU290      0.0001
    101  CD2      -44.0610    9.4240   19.9760 C.3   290  LEU290      0.0001
    102  N        -47.1050    7.3940   23.1090 N.am  291  SER291     -0.1952
    103  CA       -47.5490    5.9960   23.2620 C.3   291  SER291      0.1924
    104  C        -48.8900    5.7440   22.5660 C.2   291  SER291      0.2314
    105  O        -49.1270    4.6370   22.0790 O.2   291  SER291     -0.2863
    106  CB       -47.6480    5.6150   24.7380 C.3   291  SER291      0.2116
    107  OG       -46.4050    5.8110   25.3950 O.3   291  SER291     -0.2180
    108  N        -43.0750    7.0710   16.2230 N.3   297  LEU297     -0.1245
    109  CA       -41.8750    6.3010   16.5290 C.3   297  LEU297      0.1561
    110  C        -41.5500    5.3000   15.4420 C.2   297  LEU297      0.2260
    111  O        -40.3960    5.2250   15.0290 O.2   297  LEU297     -0.2867
    112  CB       -42.0090    5.6030   17.8930 C.3   297  LEU297      0.0270
    113  CG       -41.7680    6.5210   19.0990 C.3   297  LEU297      0.0019
    114  CD1      -42.4080    5.9600   20.3530 C.3   297  LEU297      0.0001
    115  CD2      -40.2830    6.7750   19.3140 C.3   297  LEU297      0.0001
    116  N        -40.2930   11.8980   14.3160 N.3   302  LEU302     -0.1231
    117  CA       -39.7990   12.9170   15.2540 C.3   302  LEU302      0.1693
    118  C        -38.3140   13.2840   15.0740 C.2   302  LEU302      0.2591
    119  O        -37.9180   14.3850   15.4520 O.2   302  LEU302     -0.2718
    120  CB       -40.0930   12.5240   16.7140 C.3   302  LEU302      0.0284
    121  CG       -41.5620   12.3270   17.1310 C.3   302  LEU302      0.0019
    122  CD1      -41.6300   11.8880   18.5630 C.3   302  LEU302      0.0001
    123  CD2      -42.3990   13.5990   16.9420 C.3   302  LEU302      0.0001
    124  N        -37.5220   12.3950   14.4640 N.am  303  GLN303     -0.1979
    125  CA       -36.0820   12.5810   14.2110 C.3   303  GLN303      0.1601
    126  C        -35.8290   13.1670   12.8090 C.2   303  GLN303      0.2287
    127  O        -34.6890   13.4120   12.4480 O.2   303  GLN303     -0.2864
    128  CB       -35.3580   11.2180   14.3230 C.3   303  GLN303      0.0394
    129  CG       -35.3580   10.5940   15.7200 C.3   303  GLN303      0.0908
    130  CD       -36.5780    9.7410   16.0210 C.2   303  GLN303      0.2608
    131  OE1      -37.3710    9.3860   15.1370 O.2   303  GLN303     -0.2717
    132  NE2      -36.7620    9.4110   17.2960 N.am  303  GLN303     -0.0878
@<TRIPOS>BOND
     1   127   126    2
     2   126   125    1
     3   125   128    1
     4   125   124    1
     5   116   117    1
     6   128   129    1
     7   124   118   am
     8   111   110    2
     9   118   117    1
    10   118   119    2
    11   131   130    2
    12   117   120    1
    13   110   109    1
    14   129   130    1
    15   130   132   am
    16   108   109    1
    17   109   112    1
    18   120   121    1
    19   123   121    1
    20   121   122    1
    21    44    43    2
    22   112   113    1
    23     1     2    1
    24    43    42    1
    25    47    45    1
    26   113   115    1
    27   113   114    1
    28     5     2    1
    29     5     6    1
    30    42    45    1
    31    42    41    1
    32     2     3    1
    33     3     4    2
    34    45    46    1
    35   101    99    1
    36    11     8   ar
    37    11    13   ar
    38     6     8   ar
    39     6     7   ar
    40     8    10   ar
    41    97    96    2
    42    13    14   ar
    43     7     9   ar
    44    99   100    1
    45    99    98    1
    46    96    95    1
    47    96   102   am
    48    95    98    1
    49    95    94    1
    50    22    20    1
    51    10     9   ar
    52    10    12   ar
    53   105   104    2
    54    40    39    2
    55    14    12   ar
    56    19    20    1
    57    19    16    1
    58   104   103    1
    59    15    16    1
    60    20    21    1
    61   102   103    1
    62   103   106    1
    63    39    38    1
    64    16    17    1
    65    38    37    1
    66    17    18    2
    67    78    77    2
    68    82    80    1
    69   106   107    1
    70    37    33   am
    71    29    28   ar
    72    86    85    2
    73    77    76    1
    74    77    83   am
    75    81    80    1
    76    80    79    1
    77    79    76    1
    78    76    75    1
    79    33    34    2
    80    33    32    1
    81    85    84    1
    82    84    83    1
    83    84    87    1
    84    28    27    1
    85    28    30   ar
    86    24    27    1
    87    24    25    1
    88    24    23    1
    89    31    25   am
    90    31    32    1
    91    25    26    2
    92    32    35    1
    93    88    87    1
    94    88    89    1
    95    36    35    1
    96    92    91    1
    97    93    91    1
    98    91    90    2
    99    90    89    1
   100    72    73    1
   101    72    71    1
   102    74    73    1
   103    69    68    2
   104    70    71    1
   105    70    67    1
   106    51    50    2
   107    48    49    1
   108    66    67    1
   109    66    61   am
   110    68    67    1
   111    60    61    1
   112    60    59    1
   113    60    63    1
   114    50    59   am
   115    50    49    1
   116    61    62    2
   117    59    65    1
   118    63    64    1
   119    49    52    1
   120    64    65    1
   121    52    53    1
   122    53    54    1
   123    55    54    1
   124    55    56    2
   125    58    56    1
   126    56    57    1
