@<TRIPOS>MOLECULE
tmp/5j48B00.pdb
 135 130 0 0 0
SMALL
GASTEIGER

@<TRIPOS>ATOM
      1  N         -3.8310    5.6400   -5.1390 N.3    48  ILE48      -0.1245
      2  CA        -3.7260    5.4700   -6.5850 C.3    48  ILE48       0.1561
      3  C         -3.8060    6.8520   -7.2090 C.2    48  ILE48       0.2260
      4  O         -4.6470    7.6700   -6.8100 O.2    48  ILE48      -0.2867
      5  CB        -4.8950    4.6070   -7.1090 C.3    48  ILE48       0.0252
      6  CG1       -4.6960    3.1560   -6.7230 C.3    48  ILE48       0.0019
      7  CG2       -5.0310    4.7180   -8.6320 C.3    48  ILE48       0.0019
      8  CD1       -5.8820    2.2860   -7.1410 C.3    48  ILE48       0.0001
      9  N        -12.7040    8.7880   -4.2820 N.3    67  VAL67      -0.1245
     10  CA       -12.3750    8.4740   -5.6730 C.3    67  VAL67       0.1561
     11  C        -12.6970    9.7070   -6.5030 C.2    67  VAL67       0.2260
     12  O        -13.8350   10.1890   -6.4920 O.2    67  VAL67      -0.2867
     13  CB       -13.1360    7.2360   -6.1840 C.3    67  VAL67       0.0252
     14  CG1      -12.6270    6.7870   -7.5530 C.3    67  VAL67       0.0019
     15  CG2      -13.0250    6.0960   -5.1820 C.3    67  VAL67       0.0019
     16  N        -11.5720   12.0290  -10.3570 N.3    69  ARG69      -0.1245
     17  CA       -10.8440   11.8850  -11.5980 C.3    69  ARG69       0.1563
     18  C        -10.8720   13.1640  -12.3920 C.2    69  ARG69       0.2260
     19  O        -11.8400   13.9290  -12.3560 O.2    69  ARG69      -0.2867
     20  CB       -11.3940   10.7650  -12.4560 C.3    69  ARG69       0.0307
     21  CG       -12.7180   11.0370  -13.1050 C.3    69  ARG69       0.0489
     22  CD       -13.1860    9.7850  -13.8230 C.3    69  ARG69       0.2205
     23  NE       -12.1130    9.2390  -14.6410 N.pl3  69  ARG69      -0.0865
     24  CZ       -11.9010    9.5600  -15.9090 C.cat  69  ARG69       0.5346
     25  NH1      -12.7060   10.4260  -16.5420 N.pl3  69  ARG69       0.1354
     26  NH2      -10.8760    9.0260  -16.5600 N.pl3  69  ARG69       0.1354
     27  N        -16.1300   11.3800   -7.5420 N.3    80  LEU80      -0.1231
     28  CA       -16.9570   10.2640   -7.9840 C.3    80  LEU80       0.1693
     29  C        -17.7000    9.6050   -6.8320 C.2    80  LEU80       0.2591
     30  O        -18.9320    9.4910   -6.8780 O.2    80  LEU80      -0.2718
     31  CB       -16.0970    9.2340   -8.7010 C.3    80  LEU80       0.0284
     32  CG       -15.3730    9.7900   -9.9190 C.3    80  LEU80       0.0019
     33  CD1      -14.3830    8.7600  -10.4740 C.3    80  LEU80       0.0001
     34  CD2      -16.3290   10.2460  -10.9630 C.3    80  LEU80       0.0001
     35  N        -16.9710    9.1640   -5.8040 N.am   81  ARG81      -0.1980
     36  CA       -17.6060    8.4750   -4.6870 C.3    81  ARG81       0.1597
     37  C        -16.6150    8.3180   -3.5450 C.2    81  ARG81       0.2287
     38  O        -15.4030    8.4880   -3.7080 O.2    81  ARG81      -0.2864
     39  CB       -18.1480    7.1100   -5.1210 C.3    81  ARG81       0.0334
     40  CG       -17.0720    6.0380   -5.2920 C.3    81  ARG81       0.0492
     41  CD       -17.5880    4.7860   -5.9860 C.3    81  ARG81       0.2205
     42  NE       -17.7910    5.0110   -7.4050 N.pl3  81  ARG81      -0.0865
     43  CZ       -18.9270    5.3100   -7.9950 C.cat  81  ARG81       0.5346
     44  NH1      -20.0670    5.4070   -7.3070 N.pl3  81  ARG81       0.1354
     45  NH2      -18.9130    5.5100   -9.3040 N.pl3  81  ARG81       0.1354
     46  N        -15.4690    5.3710   -0.6500 N.3    83  LEU83      -0.1245
     47  CA       -15.4880    3.9550   -0.3110 C.3    83  LEU83       0.1561
     48  C        -15.0740    3.8080    1.1400 C.2    83  LEU83       0.2260
     49  O        -14.3600    4.6470    1.6900 O.2    83  LEU83      -0.2867
     50  CB       -14.4940    3.1470   -1.1580 C.3    83  LEU83       0.0270
     51  CG       -14.6470    3.2090   -2.6710 C.3    83  LEU83       0.0019
     52  CD1      -13.5060    2.4330   -3.3020 C.3    83  LEU83       0.0001
     53  CD2      -15.9840    2.6690   -3.0990 C.3    83  LEU83       0.0001
     54  N        -13.3780   -2.3600   -2.2350 N.3    88  TRP88      -0.1227
     55  CA       -12.1330   -2.6600   -2.9240 C.3    88  TRP88       0.1737
     56  C        -12.0610   -1.8020   -4.1710 C.2    88  TRP88       0.2595
     57  O        -13.0660   -1.2520   -4.6340 O.2    88  TRP88      -0.2718
     58  CB       -12.0070   -4.1460   -3.2520 C.3    88  TRP88       0.0564
     59  CG       -13.2060   -4.7520   -3.8830 C.ar   88  TRP88       0.0003
     60  CD1      -14.1750   -5.4760   -3.2410 C.ar   88  TRP88       0.0946
     61  CD2      -13.5830   -4.7120   -5.2630 C.ar   88  TRP88       0.0152
     62  NE1      -15.1180   -5.8850   -4.1370 N.ar   88  TRP88      -0.2442
     63  CE2      -14.7790   -5.4410   -5.3840 C.ar   88  TRP88       0.0810
     64  CE3      -13.0240   -4.1460   -6.4080 C.ar   88  TRP88       0.0012
     65  CZ2      -15.4300   -5.6000   -6.5970 C.ar   88  TRP88       0.0191
     66  CZ3      -13.6790   -4.3180   -7.6170 C.ar   88  TRP88       0.0001
     67  CH2      -14.8650   -5.0330   -7.6920 C.ar   88  TRP88       0.0015
     68  N        -10.8520   -1.6720   -4.7110 N.am   89  PHE89      -0.1962
     69  CA       -10.6520   -0.8020   -5.8650 C.3    89  PHE89       0.1771
     70  C         -9.3040   -1.1190   -6.4970 C.2    89  PHE89       0.2620
     71  O         -8.4690   -1.8110   -5.9140 O.2    89  PHE89      -0.2715
     72  CB       -10.7230    0.6750   -5.4580 C.3    89  PHE89       0.0574
     73  CG        -9.7000    1.0770   -4.4390 C.ar   89  PHE89      -0.0200
     74  CD1       -8.4300    1.4720   -4.8260 C.ar   89  PHE89      -0.0042
     75  CD2      -10.0000    1.0650   -3.0760 C.ar   89  PHE89      -0.0042
     76  CE1       -7.4850    1.8410   -3.8940 C.ar   89  PHE89      -0.0003
     77  CE2       -9.0550    1.4440   -2.1510 C.ar   89  PHE89      -0.0003
     78  CZ        -7.8040    1.8420   -2.5470 C.ar   89  PHE89      -0.0000
     79  N         -9.0940   -0.6060   -7.7070 N.am   90  GLY90      -0.1940
     80  CA        -7.8320   -0.8010   -8.3830 C.3    90  GLY90       0.2014
     81  C         -7.7760   -1.9070   -9.4010 C.2    90  GLY90       0.2639
     82  O         -6.6810   -2.2610   -9.8400 O.2    90  GLY90      -0.2714
     83  N         -8.9160   -2.4700   -9.8000 N.am   91  GLU91      -0.1963
     84  CA        -8.9080   -3.5860  -10.7280 C.3    91  GLU91       0.1733
     85  C         -8.7990   -3.1630  -12.1890 C.2    91  GLU91       0.2616
     86  O         -8.3840   -3.9790  -13.0260 O.2    91  GLU91      -0.2715
     87  CB       -10.1720   -4.4280  -10.5100 C.3    91  GLU91       0.0429
     88  CG       -11.4360   -3.9950  -11.2740 C.3    91  GLU91       0.1163
     89  CD       -12.0940   -2.7050  -10.8410 C.2    91  GLU91       0.3649
     90  OE1      -11.6550   -2.0970   -9.8710 O.co2  91  GLU91      -0.2457
     91  OE2      -13.0970   -2.3190  -11.4880 O.co2  91  GLU91      -0.2457
     92  N         -9.1860   -1.9290  -12.5260 N.am   92  LYS92      -0.1963
     93  CA        -9.2740   -1.5730  -13.9410 C.3    92  LYS92       0.1728
     94  C         -7.9060   -1.6170  -14.6100 C.2    92  LYS92       0.2616
     95  O         -7.7710   -2.1410  -15.7220 O.2    92  LYS92      -0.2715
     96  CB        -9.9390   -0.2130  -14.1290 C.3    92  LYS92       0.0311
     97  CG       -11.3830   -0.1520  -13.6670 C.3    92  LYS92       0.0038
     98  CD       -12.0310    1.1830  -14.0300 C.3    92  LYS92       0.0206
     99  CE       -13.0540    1.0420  -15.1370 C.3    92  LYS92       0.1093
    100  NZ       -14.2190    0.2240  -14.6940 N.3    92  LYS92      -0.1314
    101  N         -6.8770   -1.1070  -13.9380 N.am   93  ALA93      -0.1977
    102  CA        -5.5420   -1.1260  -14.5180 C.3    93  ALA93       0.1597
    103  C         -4.9240   -2.5150  -14.5870 C.2    93  ALA93       0.2287
    104  O         -3.8970   -2.6930  -15.2510 O.2    93  ALA93      -0.2864
    105  CB        -4.6110   -0.2140  -13.7300 C.3    93  ALA93       0.0319
    106  N         -4.0750    3.6210  -14.5880 N.3   100  ARG100     -0.1231
    107  CA        -5.0930    3.9800  -13.6210 C.3   100  ARG100      0.1694
    108  C         -6.0410    5.0260  -14.1950 C.2   100  ARG100      0.2593
    109  O         -5.6070    6.0190  -14.7860 O.2   100  ARG100     -0.2718
    110  CB        -4.4310    4.5370  -12.3580 C.3   100  ARG100      0.0321
    111  CG        -3.5300    3.5450  -11.6410 C.3   100  ARG100      0.0489
    112  CD        -4.2920    2.3910  -11.0830 C.3   100  ARG100      0.2205
    113  NE        -3.4480    1.7080  -10.1150 N.pl3 100  ARG100     -0.0865
    114  CZ        -3.7300    0.5130   -9.6150 C.cat 100  ARG100      0.5346
    115  NH1       -4.8470   -0.1090   -9.9970 N.pl3 100  ARG100      0.1354
    116  NH2       -2.8860   -0.0580   -8.7550 N.pl3 100  ARG100      0.1354
    117  N         -7.3380    4.8270  -13.9770 N.am  101  THR101     -0.1939
    118  CA        -8.3570    5.6610  -14.6020 C.3   101  THR101      0.2028
    119  C         -8.9410    6.6880  -13.6480 C.2   101  THR101      0.2642
    120  O         -9.7730    7.5000  -14.0770 O.2   101  THR101     -0.2714
    121  CB        -9.4990    4.7960  -15.1320 C.3   101  THR101      0.1808
    122  OG1      -10.2070    4.2000  -14.0380 O.3   101  THR101     -0.2208
    123  CG2       -8.9780    3.6870  -16.0360 C.3   101  THR101      0.0379
    124  N         -8.5480    6.6560  -12.3890 N.am  102  ALA102     -0.1977
    125  CA        -9.0340    7.5820  -11.3750 C.3   102  ALA102      0.1597
    126  C         -8.0150    7.6380  -10.2510 C.2   102  ALA102      0.2287
    127  O         -7.1430    6.7660  -10.1250 O.2   102  ALA102     -0.2864
    128  CB       -10.4040    7.1390  -10.8300 C.3   102  ALA102      0.0319
    129  N         -7.4720    7.5690   -6.0990 N.3   104  VAL104     -0.1245
    130  CA        -8.0680    7.0860   -4.8620 C.3   104  VAL104      0.1561
    131  C         -7.2290    7.6560   -3.7250 C.2   104  VAL104      0.2260
    132  O         -6.0200    7.4120   -3.6540 O.2   104  VAL104     -0.2867
    133  CB        -8.1750    5.5480   -4.7840 C.3   104  VAL104      0.0252
    134  CG1       -8.9030    5.1370   -3.4960 C.3   104  VAL104      0.0019
    135  CG2       -8.8880    5.0330   -6.0250 C.3   104  VAL104      0.0019
@<TRIPOS>BOND
     1    26    24    1
     2    25    24    1
     3   123   121    1
     4    24    23    2
     5    95    94    2
     6   104   103    2
     7    99   100    1
     8    99    98    1
     9   121   118    1
    10   121   122    1
    11   109   108    2
    12    23    22    1
    13    94    93    1
    14    94   101   am
    15   118   117    1
    16   118   119    1
    17   106   107    1
    18   103   102    1
    19   102   101    1
    20   102   105    1
    21   108   117   am
    22   108   107    1
    23    96    93    1
    24    96    97    1
    25   120   119    2
    26    98    97    1
    27    93    92    1
    28    22    21    1
    29   119   124   am
    30   107   110    1
    31    21    20    1
    32    86    85    2
    33    92    85   am
    34    20    17    1
    35    18    19    2
    36    18    17    1
    37   124   125    1
    38   110   111    1
    39    85    84    1
    40   111   112    1
    41    17    16    1
    42    91    89   ar
    43   125   128    1
    44   125   126    1
    45    88    89    1
    46    88    87    1
    47   112   113    1
    48    34    32    1
    49    89    90   ar
    50    84    87    1
    51    84    83    1
    52    33    32    1
    53   126   127    2
    54   113   114    2
    55   115   114    1
    56    32    31    1
    57    82    81    2
    58    83    81   am
    59   114   116    1
    60    81    80    1
    61    45    43    1
    62    31    28    1
    63     7     5    1
    64    80    79    1
    65    43    42    2
    66    43    44    1
    67    28    27    1
    68    28    29    1
    69    79    70   am
    70    67    66   ar
    71    67    65   ar
    72    66    64   ar
    73    14    13    1
    74    42    41    1
    75     3     4    2
    76     3     2    1
    77     8     6    1
    78     5     6    1
    79     5     2    1
    80    30    29    2
    81    29    35   am
    82    65    63   ar
    83     2     1    1
    84    11    12    2
    85    11    10    1
    86    70    71    2
    87    70    69    1
    88    64    61   ar
    89    13    10    1
    90    13    15    1
    91   129   130    1
    92   135   133    1
    93    41    40    1
    94    69    72    1
    95    69    68    1
    96    35    36    1
    97    10     9    1
    98    72    73    1
    99    63    61   ar
   100    63    62   ar
   101    40    39    1
   102    61    59   ar
   103    39    36    1
   104   130   133    1
   105   130   131    1
   106    74    73   ar
   107    74    76   ar
   108   133   134    1
   109    68    56   am
   110    36    37    1
   111    57    56    2
   112    73    75   ar
   113    56    55    1
   114    62    60   ar
   115    76    78   ar
   116    59    58    1
   117    59    60   ar
   118   131   132    2
   119    38    37    2
   120    52    51    1
   121    58    55    1
   122    53    51    1
   123    75    77   ar
   124    55    54    1
   125    51    50    1
   126    78    77   ar
   127    50    47    1
   128    46    47    1
   129    47    48    1
   130    48    49    2
