@<TRIPOS>MOLECULE
tmp/5j4hA00.pdb
 88 84 0 0 0
SMALL
GASTEIGER

@<TRIPOS>ATOM
      1  N         17.4940   -2.3470   40.4150 N.3    62  MET62      -0.1230
      2  CA        18.6650   -1.6830   39.8680 C.3    62  MET62       0.1702
      3  C         18.1840   -0.7070   38.8040 C.2    62  MET62       0.2592
      4  O         17.3370   -1.0450   37.9770 O.2    62  MET62      -0.2718
      5  CB        19.6400   -2.7080   39.2890 C.3    62  MET62       0.0401
      6  CG        20.0700   -3.7610   40.3070 C.3    62  MET62       0.0596
      7  SD        21.3300   -4.9100   39.7160 S.3    62  MET62      -0.1393
      8  CE        20.5840   -5.4780   38.1940 C.3    62  MET62       0.0692
      9  N         18.7240    0.5060   38.8450 N.am   63  TYR63      -0.1962
     10  CA        18.2270    1.6160   38.0400 C.3    63  TYR63       0.1771
     11  C         19.3790    2.2210   37.2530 C.2    63  TYR63       0.2619
     12  O         20.2910    2.8090   37.8380 O.2    63  TYR63      -0.2715
     13  CB        17.6080    2.6680   38.9710 C.3    63  TYR63       0.0574
     14  CG        16.7010    3.6970   38.3130 C.ar   63  TYR63      -0.0198
     15  CD1       17.1880    4.5910   37.3680 C.ar   63  TYR63      -0.0009
     16  CD2       15.3620    3.7960   38.6760 C.ar   63  TYR63      -0.0009
     17  CE1       16.3560    5.5400   36.7840 C.ar   63  TYR63       0.0417
     18  CE2       14.5270    4.7360   38.0970 C.ar   63  TYR63       0.0417
     19  CZ        15.0270    5.6060   37.1550 C.ar   63  TYR63       0.1957
     20  OH        14.1920    6.5420   36.5880 O.3    63  TYR63      -0.2866
     21  N         19.3450    2.0450   35.9340 N.am   64  ILE64      -0.1977
     22  CA        20.3050    2.6820   35.0370 C.3    64  ILE64       0.1596
     23  C         19.6860    3.9640   34.4970 C.2    64  ILE64       0.2287
     24  O         18.6190    3.9440   33.8820 O.2    64  ILE64      -0.2864
     25  CB        20.7120    1.7600   33.8640 C.3    64  ILE64       0.0276
     26  CG1       21.4120    0.5000   34.3900 C.3    64  ILE64       0.0022
     27  CG2       21.6250    2.5150   32.8850 C.3    64  ILE64       0.0022
     28  CD1       21.7780   -0.5240   33.3180 C.3    64  ILE64       0.0001
     29  N         19.7650   -0.0220   43.5480 N.3    94  ALA94      -0.1231
     30  CA        21.1480    0.1990   43.1570 C.3    94  ALA94       0.1694
     31  C         21.1880    1.0830   41.9220 C.2    94  ALA94       0.2592
     32  O         20.7970    0.6650   40.8330 O.2    94  ALA94      -0.2718
     33  CB        21.8360   -1.1210   42.8870 C.3    94  ALA94       0.0304
     34  N         21.6660    2.3060   42.1060 N.am   95  TYR95      -0.1962
     35  CA        21.6600    3.3180   41.0620 C.3    95  TYR95       0.1771
     36  C         22.9850    3.3730   40.3070 C.2    95  TYR95       0.2619
     37  O         24.0550    3.2510   40.9000 O.2    95  TYR95      -0.2715
     38  CB        21.3690    4.6860   41.6890 C.3    95  TYR95       0.0574
     39  CG        21.5800    5.8380   40.7410 C.ar   95  TYR95      -0.0198
     40  CD1       20.6410    6.1400   39.7730 C.ar   95  TYR95      -0.0009
     41  CD2       22.7240    6.6150   40.8090 C.ar   95  TYR95      -0.0009
     42  CE1       20.8270    7.1870   38.9030 C.ar   95  TYR95       0.0417
     43  CE2       22.9230    7.6640   39.9410 C.ar   95  TYR95       0.0417
     44  CZ        21.9710    7.9490   38.9880 C.ar   95  TYR95       0.1957
     45  OH        22.1780    9.0010   38.1230 O.3    95  TYR95      -0.2866
     46  N         22.9030    3.5530   38.9920 N.am   96  ALA96      -0.1977
     47  CA        24.0840    3.8140   38.1760 C.3    96  ALA96       0.1597
     48  C         23.7370    4.7570   37.0330 C.2    96  ALA96       0.2287
     49  O         22.7340    4.5740   36.3500 O.2    96  ALA96      -0.2864
     50  CB        24.6700    2.5170   37.6310 C.3    96  ALA96       0.0319
     51  N         27.4930   -1.4990   31.9980 N.3   107  LEU107     -0.1245
     52  CA        26.6700   -1.5150   33.2030 C.3   107  LEU107      0.1561
     53  C         25.7590   -2.7380   33.2490 C.2   107  LEU107      0.2260
     54  O         25.4750   -3.2630   34.3190 O.2   107  LEU107     -0.2867
     55  CB        25.8340   -0.2380   33.3240 C.3   107  LEU107      0.0270
     56  CG        26.5850    1.0170   33.7690 C.3   107  LEU107      0.0019
     57  CD1       25.6980    2.2410   33.6270 C.3   107  LEU107      0.0001
     58  CD2       27.0660    0.8790   35.2010 C.3   107  LEU107      0.0001
     59  N         27.8640   -5.5160   34.4780 N.3   110  GLN110     -0.1231
     60  CA        28.0720   -5.3590   35.9090 C.3   110  GLN110      0.1698
     61  C         26.8060   -5.7220   36.6660 C.2   110  GLN110      0.2592
     62  O         26.8660   -6.2630   37.7700 O.2   110  GLN110     -0.2718
     63  CB        28.4820   -3.9290   36.2390 C.3   110  GLN110      0.0381
     64  CG        29.8580   -3.5610   35.7450 C.3   110  GLN110      0.0905
     65  CD        30.2280   -2.1480   36.1140 C.2   110  GLN110      0.2608
     66  OE1       29.8150   -1.1970   35.4550 O.2   110  GLN110     -0.2717
     67  NE2       31.0000   -1.9990   37.1810 N.am  110  GLN110     -0.0878
     68  N         25.6560   -5.4290   36.0700 N.am  111  ALA111     -0.1980
     69  CA        24.3870   -5.7430   36.7050 C.3   111  ALA111      0.1597
     70  C         24.2830   -7.2470   36.9320 C.2   111  ALA111      0.2287
     71  O         23.8030   -7.6950   37.9740 O.2   111  ALA111     -0.2864
     72  CB        23.2210   -5.2340   35.8590 C.3   111  ALA111      0.0319
     73  N         25.8570   -8.4380   40.2160 N.3   114  MET114     -0.1245
     74  CA        25.0510   -8.1810   41.4010 C.3   114  MET114      0.1570
     75  C         23.8810   -9.1530   41.4740 C.2   114  MET114      0.2261
     76  O         23.5450   -9.6580   42.5430 O.2   114  MET114     -0.2867
     77  CB        24.5300   -6.7440   41.3880 C.3   114  MET114      0.0387
     78  CG        23.9120   -6.3100   42.7040 C.3   114  MET114      0.0595
     79  SD        23.3670   -4.5950   42.6970 S.3   114  MET114     -0.1393
     80  CE        23.0640   -4.3570   44.4460 C.3   114  MET114      0.0692
     81  N         15.2040   -4.6450   36.9210 N.3   128  LEU128     -0.1245
     82  CA        16.2490   -3.8270   36.3170 C.3   128  LEU128      0.1561
     83  C         15.5760   -2.7910   35.4340 C.2   128  LEU128      0.2260
     84  O         14.8730   -3.1450   34.4850 O.2   128  LEU128     -0.2867
     85  CB        17.2130   -4.6920   35.4970 C.3   128  LEU128      0.0270
     86  CG        18.2610   -3.9740   34.6370 C.3   128  LEU128      0.0019
     87  CD1       19.1220   -3.0200   35.4620 C.3   128  LEU128      0.0001
     88  CD2       19.1290   -5.0040   33.9230 C.3   128  LEU128      0.0001
@<TRIPOS>BOND
     1    51    52    1
     2    27    25    1
     3    52    53    1
     4    52    55    1
     5    53    54    2
     6    28    26    1
     7    55    56    1
     8    57    56    1
     9    56    58    1
    10    25    26    1
    11    25    22    1
    12    24    23    2
    13    88    86    1
    14    59    60    1
    15    84    83    2
    16    23    22    1
    17    86    87    1
    18    86    85    1
    19    22    21    1
    20    83    82    1
    21    66    65    2
    22    85    82    1
    23    64    65    1
    24    64    63    1
    25    72    69    1
    26    60    63    1
    27    60    61    1
    28    21    11   am
    29    68    61   am
    30    68    69    1
    31    65    67   am
    32    82    81    1
    33    49    48    2
    34    20    19    1
    35    61    62    2
    36    69    70    1
    37    17    19   ar
    38    17    15   ar
    39    70    71    2
    40    48    47    1
    41    19    18   ar
    42    11    12    2
    43    11    10    1
    44    15    14   ar
    45    50    47    1
    46     4     3    2
    47    10     9    1
    48    10    13    1
    49    18    16   ar
    50    45    44    1
    51    47    46    1
    52     8     7    1
    53    14    16   ar
    54    14    13    1
    55     3     9   am
    56     3     2    1
    57    42    44   ar
    58    42    40   ar
    59    44    43   ar
    60    46    36   am
    61     5     2    1
    62     5     6    1
    63     7     6    1
    64    40    39   ar
    65     2     1    1
    66    43    41   ar
    67    73    74    1
    68    36    37    2
    69    36    35    1
    70    39    41   ar
    71    39    38    1
    72    32    31    2
    73    35    38    1
    74    35    34    1
    75    77    74    1
    76    77    78    1
    77    74    75    1
    78    75    76    2
    79    31    34   am
    80    31    30    1
    81    79    78    1
    82    79    80    1
    83    33    30    1
    84    30    29    1
