@<TRIPOS>MOLECULE
tmp/5j4kA00.pdb
 88 84 0 0 0
SMALL
GASTEIGER

@<TRIPOS>ATOM
      1  N         17.5490   -2.3670   40.4290 N.3    62  MET62      -0.1230
      2  CA        18.7270   -1.7000   39.8850 C.3    62  MET62       0.1702
      3  C         18.2780   -0.7430   38.7890 C.2    62  MET62       0.2592
      4  O         17.4900   -1.1080   37.9160 O.2    62  MET62      -0.2718
      5  CB        19.7240   -2.7220   39.3410 C.3    62  MET62       0.0401
      6  CG        20.1260   -3.7670   40.3700 C.3    62  MET62       0.0596
      7  SD        21.4140   -4.8930   39.7970 S.3    62  MET62      -0.1393
      8  CE        20.7120   -5.4220   38.2420 C.3    62  MET62       0.0692
      9  N         18.7890    0.4820   38.8460 N.am   63  TYR63      -0.1962
     10  CA        18.3100    1.5880   38.0270 C.3    63  TYR63       0.1771
     11  C         19.4750    2.1890   37.2620 C.2    63  TYR63       0.2619
     12  O         20.3940    2.7450   37.8610 O.2    63  TYR63      -0.2715
     13  CB        17.6700    2.6360   38.9430 C.3    63  TYR63       0.0574
     14  CG        16.7870    3.6910   38.2840 C.ar   63  TYR63      -0.0198
     15  CD1       17.2960    4.6040   37.3640 C.ar   63  TYR63      -0.0009
     16  CD2       15.4450    3.7990   38.6350 C.ar   63  TYR63      -0.0009
     17  CE1       16.4750    5.5890   36.7950 C.ar   63  TYR63       0.0417
     18  CE2       14.6330    4.7630   38.0740 C.ar   63  TYR63       0.0417
     19  CZ        15.1510    5.6510   37.1550 C.ar   63  TYR63       0.1957
     20  OH        14.3430    6.6170   36.5950 O.3    63  TYR63      -0.2866
     21  N         19.4300    2.0550   35.9390 N.am   64  ILE64      -0.1977
     22  CA        20.3970    2.6880   35.0510 C.3    64  ILE64       0.1596
     23  C         19.7600    3.9590   34.4910 C.2    64  ILE64       0.2287
     24  O         18.6930    3.9320   33.8660 O.2    64  ILE64      -0.2864
     25  CB        20.7980    1.7570   33.8950 C.3    64  ILE64       0.0276
     26  CG1       21.5120    0.5050   34.4240 C.3    64  ILE64       0.0022
     27  CG2       21.7030    2.4930   32.9040 C.3    64  ILE64       0.0022
     28  CD1       21.8450   -0.5430   33.3470 C.3    64  ILE64       0.0001
     29  N         19.8310   -0.1050   43.6770 N.3    94  ALA94      -0.1231
     30  CA        21.1870    0.1700   43.2110 C.3    94  ALA94       0.1694
     31  C         21.1040    1.1000   42.0140 C.2    94  ALA94       0.2592
     32  O         20.3230    0.8820   41.1090 O.2    94  ALA94      -0.2718
     33  CB        21.8680   -1.1140   42.8320 C.3    94  ALA94       0.0304
     34  N         21.9350    2.1170   41.9810 N.am   95  TYR95      -0.1962
     35  CA        21.8400    3.1800   40.9920 C.3    95  TYR95       0.1771
     36  C         23.1530    3.3630   40.2530 C.2    95  TYR95       0.2619
     37  O         24.2240    3.3330   40.8620 O.2    95  TYR95      -0.2715
     38  CB        21.5070    4.4930   41.7110 C.3    95  TYR95       0.0574
     39  CG        21.6150    5.6880   40.8040 C.ar   95  TYR95      -0.0198
     40  CD1       20.6550    5.9200   39.8380 C.ar   95  TYR95      -0.0009
     41  CD2       22.6810    6.5650   40.8880 C.ar   95  TYR95      -0.0009
     42  CE1       20.7350    6.9820   39.0010 C.ar   95  TYR95       0.0417
     43  CE2       22.7770    7.6550   40.0310 C.ar   95  TYR95       0.0417
     44  CZ        21.7890    7.8500   39.0880 C.ar   95  TYR95       0.1957
     45  OH        21.8180    8.9050   38.2100 O.3    95  TYR95      -0.2866
     46  N         23.0720    3.5400   38.9380 N.am   96  ALA96      -0.1977
     47  CA        24.2350    3.9150   38.1440 C.3    96  ALA96       0.1597
     48  C         23.8260    4.8580   37.0150 C.2    96  ALA96       0.2287
     49  O         22.8280    4.6330   36.3370 O.2    96  ALA96      -0.2864
     50  CB        24.9230    2.6920   37.5680 C.3    96  ALA96       0.0319
     51  N         27.4980   -1.4730   31.9680 N.3   107  LEU107     -0.1245
     52  CA        26.6760   -1.4900   33.1780 C.3   107  LEU107      0.1561
     53  C         25.7630   -2.7090   33.2180 C.2   107  LEU107      0.2260
     54  O         25.4880   -3.2350   34.2800 O.2   107  LEU107     -0.2867
     55  CB        25.8610   -0.2080   33.3150 C.3   107  LEU107      0.0270
     56  CG        26.6520    1.0210   33.7770 C.3   107  LEU107      0.0019
     57  CD1       25.7990    2.2610   33.6410 C.3   107  LEU107      0.0001
     58  CD2       27.1270    0.9010   35.1980 C.3   107  LEU107      0.0001
     59  N         27.8170   -5.4690   34.5370 N.3   110  GLN110     -0.1231
     60  CA        28.0090   -5.2890   35.9680 C.3   110  GLN110      0.1698
     61  C         26.7360   -5.6490   36.7120 C.2   110  GLN110      0.2592
     62  O         26.7850   -6.1780   37.8270 O.2   110  GLN110     -0.2718
     63  CB        28.4340   -3.8680   36.2910 C.3   110  GLN110      0.0381
     64  CG        29.8080   -3.5480   35.7820 C.3   110  GLN110      0.0905
     65  CD        30.1960   -2.1380   36.1280 C.2   110  GLN110      0.2608
     66  OE1       29.8330   -1.1960   35.4340 O.2   110  GLN110     -0.2717
     67  NE2       30.9340   -1.9840   37.2100 N.am  110  GLN110     -0.0878
     68  N         25.5940   -5.3660   36.0970 N.am  111  ALA111     -0.1980
     69  CA        24.3220   -5.7080   36.7200 C.3   111  ALA111      0.1597
     70  C         24.2440   -7.2160   36.9420 C.2   111  ALA111      0.2287
     71  O         23.8100   -7.6770   37.9940 O.2   111  ALA111     -0.2864
     72  CB        23.1520   -5.2070   35.8700 C.3   111  ALA111      0.0319
     73  N         25.8460   -8.4100   40.1880 N.3   114  MET114     -0.1245
     74  CA        25.0520   -8.1730   41.3840 C.3   114  MET114      0.1570
     75  C         23.8740   -9.1400   41.4570 C.2   114  MET114      0.2261
     76  O         23.5320   -9.6490   42.5260 O.2   114  MET114     -0.2867
     77  CB        24.5460   -6.7290   41.4140 C.3   114  MET114      0.0387
     78  CG        23.9260   -6.3430   42.7400 C.3   114  MET114      0.0595
     79  SD        23.4200   -4.6210   42.8570 S.3   114  MET114     -0.1393
     80  CE        23.0300   -4.5650   44.5980 C.3   114  MET114      0.0692
     81  N         15.2320   -4.6330   36.9080 N.3   128  LEU128     -0.1245
     82  CA        16.2820   -3.8150   36.3150 C.3   128  LEU128      0.1561
     83  C         15.6000   -2.7790   35.4420 C.2   128  LEU128      0.2260
     84  O         14.8750   -3.1340   34.5050 O.2   128  LEU128     -0.2867
     85  CB        17.2580   -4.6670   35.5000 C.3   128  LEU128      0.0270
     86  CG        18.3030   -3.9260   34.6520 C.3   128  LEU128      0.0019
     87  CD1       19.1830   -3.0220   35.4970 C.3   128  LEU128      0.0001
     88  CD2       19.1540   -4.9600   33.9140 C.3   128  LEU128      0.0001
@<TRIPOS>BOND
     1    51    52    1
     2    27    25    1
     3    52    53    1
     4    52    55    1
     5    53    54    2
     6    55    56    1
     7    28    26    1
     8    57    56    1
     9    56    58    1
    10    24    23    2
    11    25    26    1
    12    25    22    1
    13    88    86    1
    14    23    22    1
    15    84    83    2
    16    59    60    1
    17    86    87    1
    18    86    85    1
    19    22    21    1
    20    66    65    2
    21    83    82    1
    22    85    82    1
    23    64    65    1
    24    64    63    1
    25    72    69    1
    26    21    11   am
    27    60    63    1
    28    60    61    1
    29    68    61   am
    30    68    69    1
    31    65    67   am
    32    82    81    1
    33    49    48    2
    34    20    19    1
    35    61    62    2
    36    69    70    1
    37    17    19   ar
    38    17    15   ar
    39    70    71    2
    40    48    47    1
    41    19    18   ar
    42    11    12    2
    43    11    10    1
    44    15    14   ar
    45    50    47    1
    46     4     3    2
    47    10     9    1
    48    10    13    1
    49    18    16   ar
    50    47    46    1
    51    45    44    1
    52     8     7    1
    53    14    16   ar
    54    14    13    1
    55     3     9   am
    56     3     2    1
    57    46    36   am
    58    42    44   ar
    59    42    40   ar
    60    44    43   ar
    61     5     2    1
    62     5     6    1
    63     7     6    1
    64    40    39   ar
    65     2     1    1
    66    43    41   ar
    67    73    74    1
    68    36    37    2
    69    36    35    1
    70    39    41   ar
    71    39    38    1
    72    35    38    1
    73    35    34    1
    74    32    31    2
    75    74    77    1
    76    74    75    1
    77    77    78    1
    78    75    76    2
    79    34    31   am
    80    31    30    1
    81    78    79    1
    82    33    30    1
    83    79    80    1
    84    30    29    1
