@<TRIPOS>MOLECULE
tmp/5j4nA00.pdb
 113 107 0 0 0
SMALL
GASTEIGER

@<TRIPOS>ATOM
      1  N         19.8250   27.5870  -36.1090 N.3    18  ASN18      -0.1225
      2  CA        18.9200   27.2800  -35.0100 C.3    18  ASN18       0.1785
      3  C         17.9890   26.1630  -35.4320 C.2    18  ASN18       0.2597
      4  O         17.6310   25.3040  -34.6310 O.2    18  ASN18      -0.2718
      5  CB        18.1080   28.5070  -34.5830 C.3    18  ASN18       0.1169
      6  CG        18.8200   29.3430  -33.5320 C.2    18  ASN18       0.2627
      7  OD1       20.0120   29.1690  -33.2870 O.2    18  ASN18      -0.2716
      8  ND2       18.0840   30.2520  -32.8980 N.am   18  ASN18      -0.0877
      9  N         17.6060   26.1810  -36.7030 N.am   19  ILE19      -0.1980
     10  CA        16.7580   25.1360  -37.2540 C.3    19  ILE19       0.1595
     11  C         17.4910   23.8000  -37.4260 C.2    19  ILE19       0.2287
     12  O         17.0580   22.7900  -36.8700 O.2    19  ILE19      -0.2864
     13  CB        16.1650   25.5900  -38.6020 C.3    19  ILE19       0.0276
     14  CG1       15.1210   26.6770  -38.3550 C.3    19  ILE19       0.0022
     15  CG2       15.5060   24.4300  -39.3340 C.3    19  ILE19       0.0022
     16  CD1       14.7160   27.4350  -39.5910 C.3    19  ILE19       0.0001
     17  N         20.6500   20.8020  -34.5060 N.3    22  SER22      -0.1202
     18  CA        20.5460   19.6760  -33.5850 C.3    22  SER22       0.2020
     19  C         20.3410   18.3090  -34.2390 C.2    22  SER22       0.2619
     20  O         20.8400   17.3070  -33.7260 O.2    22  SER22      -0.2717
     21  CB        19.4020   19.9410  -32.6060 C.3    22  SER22       0.2103
     22  OG        19.5450   21.2230  -32.0230 O.3    22  SER22      -0.2182
     23  N         19.6280   18.2620  -35.3660 N.am   23  GLY23      -0.1956
     24  CA        19.1560   16.9950  -35.9030 C.3    23  GLY23       0.1869
     25  C         19.3420   16.7300  -37.3860 C.2    23  GLY23       0.2309
     26  O         18.9350   15.6740  -37.8670 O.2    23  GLY23      -0.2863
     27  N         10.7460   26.7670  -23.4140 N.3    92  ALA92      -0.1231
     28  CA        11.1050   26.0010  -24.6030 C.3    92  ALA92       0.1694
     29  C         12.5470   26.2880  -25.0000 C.2    92  ALA92       0.2592
     30  O         13.3210   25.3740  -25.2740 O.2    92  ALA92      -0.2718
     31  CB        10.1680   26.3260  -25.7510 C.3    92  ALA92       0.0304
     32  N         12.9020   27.5690  -25.0150 N.am   93  CYS93      -0.1970
     33  CA        14.2380   27.9790  -25.4160 C.3    93  CYS93       0.1712
     34  C         15.3000   27.3360  -24.5460 C.2    93  CYS93       0.2296
     35  O         16.1250   26.5800  -25.0630 O.2    93  CYS93      -0.2864
     36  CB        14.3950   29.4990  -25.3700 C.3    93  CYS93       0.0983
     37  SG        13.3590   30.3880  -26.5500 S.3    93  CYS93      -0.0798
     38  N         15.2990   23.1950  -24.0220 N.3    96  GLY96      -0.1210
     39  CA        15.7270   22.4400  -25.1870 C.3    96  GLY96       0.1956
     40  C         17.2310   22.4100  -25.4110 C.2    96  GLY96       0.2611
     41  O         17.7280   21.5890  -26.1810 O.2    96  GLY96      -0.2717
     42  N         17.9600   23.3020  -24.7460 N.am   97  ASN97      -0.1974
     43  CA        19.4100   23.3790  -24.9130 C.3    97  ASN97       0.1688
     44  C         20.1200   22.1530  -24.3290 C.2    97  ASN97       0.2292
     45  O         21.1890   21.7460  -24.8050 O.2    97  ASN97      -0.2864
     46  CB        19.9450   24.6630  -24.2610 C.3    97  ASN97       0.1181
     47  CG        19.8150   25.8820  -25.1680 C.2    97  ASN97       0.2629
     48  OD1       19.5890   25.7570  -26.3710 O.2    97  ASN97      -0.2716
     49  ND2       19.9750   27.0680  -24.5910 N.am   97  ASN97      -0.0877
     50  N         20.5100   19.5060  -26.8520 N.3   100  MET100     -0.1245
     51  CA        21.4770   19.9400  -27.8440 C.3   100  MET100      0.1570
     52  C         22.9010   19.7300  -27.3650 C.2   100  MET100      0.2261
     53  O         23.6980   19.1170  -28.0750 O.2   100  MET100     -0.2867
     54  CB        21.2520   21.4080  -28.1930 C.3   100  MET100      0.0387
     55  CG        19.8820   21.6640  -28.7840 C.3   100  MET100      0.0595
     56  SD        19.5320   23.4100  -29.0860 S.3   100  MET100     -0.1393
     57  CE        21.0960   23.9620  -29.7420 C.3   100  MET100      0.0692
     58  N          8.8390   18.7440  -36.8190 N.3   198  TRP198     -0.1227
     59  CA         9.5910   19.4040  -35.7570 C.3   198  TRP198      0.1737
     60  C         10.9670   19.8610  -36.2320 C.2   198  TRP198      0.2596
     61  O         11.6790   20.5550  -35.5060 O.2   198  TRP198     -0.2718
     62  CB         9.7340   18.4690  -34.5580 C.3   198  TRP198      0.0564
     63  CG         8.4160   18.0120  -34.0120 C.ar  198  TRP198      0.0003
     64  CD1        7.8070   16.8070  -34.2260 C.ar  198  TRP198      0.0946
     65  CD2        7.5370   18.7590  -33.1660 C.ar  198  TRP198      0.0152
     66  NE1        6.6050   16.7600  -33.5600 N.ar  198  TRP198     -0.2442
     67  CE2        6.4160   17.9470  -32.9030 C.ar  198  TRP198      0.0810
     68  CE3        7.5890   20.0400  -32.6050 C.ar  198  TRP198      0.0012
     69  CZ2        5.3600   18.3710  -32.1020 C.ar  198  TRP198      0.0191
     70  CZ3        6.5360   20.4620  -31.8110 C.ar  198  TRP198      0.0001
     71  CH2        5.4390   19.6260  -31.5620 C.ar  198  TRP198      0.0015
     72  N         11.3340   19.4760  -37.4510 N.am  199  SER199     -0.1952
     73  CA        12.6410   19.8190  -38.0060 C.3   199  SER199      0.1924
     74  C         12.8440   21.3270  -38.1370 C.2   199  SER199      0.2314
     75  O         13.9780   21.8060  -38.1110 O.2   199  SER199     -0.2863
     76  CB        12.8260   19.1650  -39.3790 C.3   199  SER199      0.2116
     77  OG        12.7990   17.7510  -39.2910 O.3   199  SER199     -0.2180
     78  N         11.5680   23.8770  -36.2240 N.3   201  ILE201     -0.1245
     79  CA        11.5650   24.7170  -35.0320 C.3   201  ILE201      0.1561
     80  C         12.7580   25.6590  -35.1300 C.2   201  ILE201      0.2260
     81  O         13.8670   25.2270  -35.4400 O.2   201  ILE201     -0.2867
     82  CB        11.6620   23.9000  -33.7290 C.3   201  ILE201      0.0252
     83  CG1       10.5200   22.8760  -33.6270 C.3   201  ILE201      0.0019
     84  CG2       11.6750   24.8330  -32.5220 C.3   201  ILE201      0.0019
     85  CD1        9.1070   23.4630  -33.6580 C.3   201  ILE201      0.0001
     86  N         19.9320   29.9140  -29.3760 N.3   289  TRP289     -0.1241
     87  CA        18.7550   29.6490  -28.5630 C.3   289  TRP289      0.1605
     88  C         18.8330   30.3550  -27.2040 C.2   289  TRP289      0.2264
     89  O         17.8240   30.8740  -26.6990 O.2   289  TRP289     -0.2867
     90  CB        18.5730   28.1380  -28.4110 C.3   289  TRP289      0.0550
     91  CG        17.9970   27.5350  -29.6660 C.ar  289  TRP289      0.0003
     92  CD1       18.6620   26.8240  -30.6250 C.ar  289  TRP289      0.0946
     93  CD2       16.6380   27.6290  -30.1100 C.ar  289  TRP289      0.0152
     94  NE1       17.7940   26.4600  -31.6310 N.ar  289  TRP289     -0.2442
     95  CE2       16.5470   26.9420  -31.3350 C.ar  289  TRP289      0.0810
     96  CE3       15.4880   28.2220  -29.5850 C.ar  289  TRP289      0.0012
     97  CZ2       15.3530   26.8350  -32.0400 C.ar  289  TRP289      0.0191
     98  CZ3       14.3070   28.1110  -30.2840 C.ar  289  TRP289      0.0001
     99  CH2       14.2470   27.4250  -31.4970 C.ar  289  TRP289      0.0015
    100  N          9.0970   21.1240  -26.2370 N.3   354  VAL354     -0.1245
    101  CA         9.0690   21.2570  -27.6860 C.3   354  VAL354      0.1561
    102  C          7.6760   21.6680  -28.1700 C.2   354  VAL354      0.2260
    103  O          7.5450   22.4390  -29.1200 O.2   354  VAL354     -0.2867
    104  CB         9.4910   19.9370  -28.3690 C.3   354  VAL354      0.0252
    105  CG1        9.2890   20.0190  -29.8550 C.3   354  VAL354      0.0019
    106  CG2       10.9430   19.6210  -28.0670 C.3   354  VAL354      0.0019
    107  N          6.5570   25.5650  -27.9700 N.3   357  THR357     -0.1218
    108  CA         6.8670   26.4600  -29.0850 C.3   357  THR357      0.1862
    109  C          5.6970   26.7090  -30.0350 C.2   357  THR357      0.2287
    110  O          5.6120   27.7700  -30.6560 O.2   357  THR357     -0.2866
    111  CB         8.0390   25.8980  -29.9190 C.3   357  THR357      0.1770
    112  OG1        9.0840   25.4510  -29.0460 O.3   357  THR357     -0.2211
    113  CG2        8.5860   26.9570  -30.8600 C.3   357  THR357      0.0375
@<TRIPOS>BOND
     1    16    14    1
     2    76    77    1
     3    76    73    1
     4    15    13    1
     5    13    14    1
     6    13    10    1
     7    74    75    2
     8    74    73    1
     9    73    72    1
    10    26    25    2
    11    72    60   am
    12    11    10    1
    13    11    12    2
    14    25    24    1
    15    10     9    1
    16    58    59    1
    17     9     3   am
    18    60    59    1
    19    60    61    2
    20    78    79    1
    21     1     2    1
    22    24    23    1
    23    59    62    1
    24    81    80    2
    25     3     2    1
    26     3     4    2
    27    23    19   am
    28    80    79    1
    29    79    82    1
    30     2     5    1
    31     5     6    1
    32    62    63    1
    33    17    18    1
    34    19    20    2
    35    19    18    1
    36    64    63   ar
    37    64    66   ar
    38    63    65   ar
    39    82    83    1
    40    82    84    1
    41    85    83    1
    42    18    21    1
    43    66    67   ar
    44     6     7    2
    45     6     8   am
    46    65    67   ar
    47    65    68   ar
    48    67    69   ar
    49    21    22    1
    50    68    70   ar
    51    69    71   ar
    52    97    99   ar
    53    97    95   ar
    54    70    71   ar
    55    94    95   ar
    56    94    92   ar
    57    99    98   ar
    58    95    93   ar
    59   113   111    1
    60   110   109    2
    61    92    91   ar
    62    98    96   ar
    63    93    91   ar
    64    93    96   ar
    65   109   108    1
    66   111   108    1
    67   111   112    1
    68   105   104    1
    69    57    56    1
    70    91    90    1
    71    86    87    1
    72   103   102    2
    73    56    55    1
    74   108   107    1
    75    55    54    1
    76    87    90    1
    77    87    88    1
    78   104   106    1
    79   104   101    1
    80    54    51    1
    81   102   101    1
    82    53    52    2
    83    51    52    1
    84    51    50    1
    85   101   100    1
    86    88    89    2
    87    37    36    1
    88    48    47    2
    89    41    40    2
    90    31    28    1
    91    33    36    1
    92    33    32    1
    93    33    34    1
    94    40    39    1
    95    40    42   am
    96    30    29    2
    97    39    38    1
    98    47    49   am
    99    47    46    1
   100    35    34    2
   101    32    29   am
   102    29    28    1
   103    43    42    1
   104    43    44    1
   105    43    46    1
   106    45    44    2
   107    28    27    1
