@<TRIPOS>MOLECULE
tmp/5j4vA01.pdb
 132 126 0 0 0
SMALL
GASTEIGER

@<TRIPOS>ATOM
      1  N        -46.3640   17.5820   18.0320 N.3   129  TRP129     -0.1241
      2  CA       -45.5840   17.0570   19.1520 C.3   129  TRP129      0.1605
      3  C        -44.2870   17.8700   19.3130 C.2   129  TRP129      0.2264
      4  O        -44.0530   18.3780   20.4050 O.2   129  TRP129     -0.2867
      5  CB       -45.2440   15.5640   18.9420 C.3   129  TRP129      0.0550
      6  CG       -44.6130   14.9070   20.1440 C.ar  129  TRP129      0.0003
      7  CD1      -45.2550   14.2090   21.1240 C.ar  129  TRP129      0.0946
      8  CD2      -43.2280   14.9490   20.5270 C.ar  129  TRP129      0.0152
      9  NE1      -44.3600   13.8010   22.0850 N.ar  129  TRP129     -0.2442
     10  CE2      -43.1070   14.2360   21.7420 C.ar  129  TRP129      0.0810
     11  CE3      -42.0680   15.4880   19.9410 C.ar  129  TRP129      0.0012
     12  CZ2      -41.8730   14.0220   22.3650 C.ar  129  TRP129      0.0191
     13  CZ3      -40.8490   15.3000   20.5750 C.ar  129  TRP129      0.0001
     14  CH2      -40.7570   14.5560   21.7590 C.ar  129  TRP129      0.0015
     15  N        -42.8150   20.3610   22.5640 N.3   133  LEU133     -0.1245
     16  CA       -41.5880   20.0720   23.2940 C.3   133  LEU133      0.1561
     17  C        -40.8930   21.3310   23.8760 C.2   133  LEU133      0.2260
     18  O        -40.3140   21.2490   24.9680 O.2   133  LEU133     -0.2867
     19  CB       -40.6370   19.2510   22.3980 C.3   133  LEU133      0.0270
     20  CG       -39.2980   18.7570   22.9990 C.3   133  LEU133      0.0019
     21  CD1      -39.5190   17.8680   24.2140 C.3   133  LEU133      0.0001
     22  CD2      -38.4780   18.0040   21.9630 C.3   133  LEU133      0.0001
     23  N        -34.7110   10.1430   27.3300 N.3   165  ASP165     -0.1225
     24  CA       -36.0990   10.2970   26.8560 C.3   165  ASP165      0.1805
     25  C        -36.7860   11.5660   27.4030 C.2   165  ASP165      0.2598
     26  O        -37.8110   11.4950   28.0890 O.2   165  ASP165     -0.2718
     27  CB       -36.9560    9.0340   27.0910 C.3   165  ASP165      0.1424
     28  CG       -36.4050    7.7580   26.4820 C.2   165  ASP165      0.3668
     29  OD1      -36.0610    7.7710   25.2750 O.co2 165  ASP165     -0.2456
     30  OD2      -36.3720    6.7310   27.1930 O.co2 165  ASP165     -0.2456
     31  N        -36.2180   12.7200   27.0370 N.am  166  SER166     -0.1938
     32  CA       -36.6670   14.0630   27.3890 C.3   166  SER166      0.2055
     33  C        -36.7050   15.0050   26.1380 C.2   166  SER166      0.2643
     34  O        -36.9450   16.2150   26.2810 O.2   166  SER166     -0.2714
     35  CB       -35.7740   14.6380   28.4940 C.3   166  SER166      0.2130
     36  OG       -34.4400   14.8740   28.0630 O.3   166  SER166     -0.2179
     37  N        -36.4930   14.4260   24.9430 N.am  167  GLY167     -0.1954
     38  CA       -36.4900   15.1370   23.6610 C.3   167  GLY167      0.1869
     39  C        -35.1490   15.6330   23.1140 C.2   167  GLY167      0.2309
     40  O        -35.0310   15.8350   21.8970 O.2   167  GLY167     -0.2863
     41  N        -33.5600   13.4880   20.0990 N.3   170  THR170     -0.1218
     42  CA       -34.5070   13.6540   18.9950 C.3   170  THR170      0.1862
     43  C        -34.3860   15.0530   18.3720 C.2   170  THR170      0.2287
     44  O        -34.3440   15.1560   17.1410 O.2   170  THR170     -0.2866
     45  CB       -35.9330   13.3770   19.4990 C.3   170  THR170      0.1770
     46  OG1      -36.0100   12.0260   19.9690 O.3   170  THR170     -0.2211
     47  CG2      -36.9950   13.6390   18.4420 C.3   170  THR170      0.0375
     48  N        -36.4180   18.4310   29.8670 N.3   279  ARG279     -0.1231
     49  CA       -36.9440   17.6670   31.0050 C.3   279  ARG279      0.1679
     50  C        -38.1550   16.8120   30.6070 C.2   279  ARG279      0.2434
     51  O        -38.9570   17.2340   29.7670 O.2   279  ARG279     -0.2733
     52  CB       -37.2260   18.5540   32.2280 C.3   279  ARG279      0.0321
     53  CG       -35.9810   18.8020   33.0750 C.3   279  ARG279      0.0489
     54  CD       -35.7530   20.2810   33.3360 C.3   279  ARG279      0.2205
     55  NE       -34.4510   20.5330   33.9620 N.pl3 279  ARG279     -0.0865
     56  CZ       -33.9740   21.7430   34.2460 C.cat 279  ARG279      0.5346
     57  NH1      -34.6880   22.8270   33.9650 N.pl3 279  ARG279      0.1354
     58  NH2      -32.7820   21.8770   34.8170 N.pl3 279  ARG279      0.1354
     59  N        -38.2540   15.5670   31.1320 N.am  280  PRO280     -0.2718
     60  CA       -39.3630   14.6910   30.7290 C.3   280  PRO280      0.1535
     61  C        -40.7150   15.1540   31.2550 C.2   280  PRO280      0.2598
     62  O        -40.9220   15.3240   32.4590 O.2   280  PRO280     -0.2715
     63  CB       -38.9600   13.3170   31.2730 C.3   280  PRO280      0.0310
     64  CG       -37.5120   13.4500   31.7040 C.3   280  PRO280      0.0237
     65  CD       -37.3570   14.8820   32.0860 C.3   280  PRO280      0.0939
     66  N        -41.6130   15.4170   30.3190 N.am  281  LYS281     -0.1978
     67  CA       -42.9770   15.8390   30.5770 C.3   281  LYS281      0.1596
     68  C        -43.8360   14.5970   30.3140 C.2   281  LYS281      0.2287
     69  O        -43.7720   14.0340   29.2140 O.2   281  LYS281     -0.2864
     70  CB       -43.3410   17.0230   29.6610 C.3   281  LYS281      0.0298
     71  CG       -42.6500   18.3350   30.0670 C.3   281  LYS281      0.0038
     72  CD       -42.5060   19.3350   28.9110 C.3   281  LYS281      0.0206
     73  CE       -41.9260   20.6640   29.3400 C.3   281  LYS281      0.1093
     74  NZ       -41.8170   21.6180   28.1970 N.3   281  LYS281     -0.1314
     75  N        -46.0170   14.2690   27.1020 N.3   284  LEU284     -0.1231
     76  CA       -45.3340   14.0650   25.8210 C.3   284  LEU284      0.1693
     77  C        -45.0840   12.6060   25.4890 C.2   284  LEU284      0.2591
     78  O        -45.2570   12.1960   24.3370 O.2   284  LEU284     -0.2718
     79  CB       -44.0400   14.8920   25.7220 C.3   284  LEU284      0.0284
     80  CG       -44.2650   16.4060   25.4730 C.3   284  LEU284      0.0019
     81  CD1      -43.0830   17.2240   25.9220 C.3   284  LEU284      0.0001
     82  CD2      -44.5940   16.7000   24.0150 C.3   284  LEU284      0.0001
     83  N        -44.7140   11.8210   26.5070 N.am  285  ARG285     -0.1980
     84  CA       -44.4060   10.4040   26.3690 C.3   285  ARG285      0.1597
     85  C        -45.6990    9.5920   26.2110 C.2   285  ARG285      0.2287
     86  O        -45.7400    8.6650   25.3870 O.2   285  ARG285     -0.2864
     87  CB       -43.5380    9.9180   27.5570 C.3   285  ARG285      0.0334
     88  CG       -43.0040    8.4770   27.4150 C.3   285  ARG285      0.0492
     89  CD       -42.2070    8.0140   28.6260 C.3   285  ARG285      0.2205
     90  NE       -41.7080    6.6450   28.4810 N.pl3 285  ARG285     -0.0865
     91  CZ       -40.4210    6.3040   28.4480 C.cat 285  ARG285      0.5346
     92  NH1      -39.4770    7.2310   28.5560 N.pl3 285  ARG285      0.1354
     93  NH2      -40.0680    5.0310   28.3220 N.pl3 285  ARG285      0.1354
     94  N        -47.0750    9.9810   22.7430 N.3   288  LEU288     -0.1231
     95  CA       -46.2580    9.2400   21.7950 C.3   288  LEU288      0.1693
     96  C        -46.5950    7.7560   21.8140 C.2   288  LEU288      0.2592
     97  O        -46.6450    7.1380   20.7530 O.2   288  LEU288     -0.2718
     98  CB       -44.7770    9.4490   22.1020 C.3   288  LEU288      0.0284
     99  CG       -43.9920   10.3620   21.1780 C.3   288  LEU288      0.0019
    100  CD1      -42.6140   10.6020   21.7400 C.3   288  LEU288      0.0001
    101  CD2      -43.8800    9.7600   19.7850 C.3   288  LEU288      0.0001
    102  N        -46.8350    7.1860   23.0220 N.am  289  SER289     -0.1952
    103  CA       -47.2410    5.7890   23.2140 C.3   289  SER289      0.1924
    104  C        -48.5830    5.6180   22.5030 C.2   289  SER289      0.2314
    105  O        -48.7850    4.6210   21.8150 O.2   289  SER289     -0.2863
    106  CB       -47.3950    5.4690   24.6990 C.3   289  SER289      0.2116
    107  OG       -46.1540    5.4460   25.3860 O.3   289  SER289     -0.2180
    108  N        -42.8840    7.0340   16.1170 N.3   295  LEU295     -0.1245
    109  CA       -41.6590    6.2960   16.4720 C.3   295  LEU295      0.1561
    110  C        -41.3430    5.2680   15.3990 C.2   295  LEU295      0.2260
    111  O        -40.2230    5.2430   14.9070 O.2   295  LEU295     -0.2867
    112  CB       -41.8090    5.5820   17.8290 C.3   295  LEU295      0.0270
    113  CG       -42.3700    6.4100   18.9900 C.3   295  LEU295      0.0019
    114  CD1      -43.2750    5.5730   19.8850 C.3   295  LEU295      0.0001
    115  CD2      -41.2630    7.0370   19.7900 C.3   295  LEU295      0.0001
    116  N        -40.0530   11.9590   14.1170 N.3   300  LEU300     -0.1231
    117  CA       -39.5830   13.0080   15.0290 C.3   300  LEU300      0.1693
    118  C        -38.1590   13.4950   14.7620 C.2   300  LEU300      0.2591
    119  O        -37.9210   14.7040   14.7090 O.2   300  LEU300     -0.2718
    120  CB       -39.7340   12.5700   16.4970 C.3   300  LEU300      0.0284
    121  CG       -41.1450   12.3600   17.0530 C.3   300  LEU300      0.0019
    122  CD1      -41.0760   11.9530   18.5100 C.3   300  LEU300      0.0001
    123  CD2      -42.0340   13.6130   16.8700 C.3   300  LEU300      0.0001
    124  N        -37.2310   12.5580   14.5770 N.am  301  GLN301     -0.1979
    125  CA       -35.8170   12.8120   14.3470 C.3   301  GLN301      0.1601
    126  C        -35.5440   13.2840   12.9070 C.2   301  GLN301      0.2287
    127  O        -34.3900   13.5310   12.5580 O.2   301  GLN301     -0.2864
    128  CB       -34.9630   11.5500   14.6540 C.3   301  GLN301      0.0394
    129  CG       -35.5190   10.5510   15.6780 C.3   301  GLN301      0.0908
    130  CD       -36.4550    9.5550   15.0420 C.2   301  GLN301      0.2608
    131  OE1      -36.1830    9.0270   13.9630 O.2   301  GLN301     -0.2717
    132  NE2      -37.5940    9.3020   15.6820 N.am  301  GLN301     -0.0878
@<TRIPOS>BOND
     1   127   126    2
     2   126   125    1
     3   131   130    2
     4   116   117    1
     5   125   124    1
     6   125   128    1
     7   124   118   am
     8   128   129    1
     9   119   118    2
    10   118   117    1
    11   111   110    2
    12   117   120    1
    13   130   129    1
    14   130   132   am
    15   110   109    1
    16   108   109    1
    17   109   112    1
    18   120   121    1
    19   123   121    1
    20   121   122    1
    21    44    43    2
    22   112   113    1
    23     1     2    1
    24    43    42    1
    25    47    45    1
    26     5     2    1
    27     5     6    1
    28   113   115    1
    29   113   114    1
    30    42    45    1
    31    42    41    1
    32     2     3    1
    33     3     4    2
    34    45    46    1
    35   101    99    1
    36    11     8   ar
    37    11    13   ar
    38     6     8   ar
    39     6     7   ar
    40     8    10   ar
    41    13    14   ar
    42    97    96    2
    43     7     9   ar
    44    99   100    1
    45    99    98    1
    46    10     9   ar
    47    10    12   ar
    48    14    12   ar
    49    95    96    1
    50    95    98    1
    51    95    94    1
    52    96   102   am
    53   105   104    2
    54    40    39    2
    55    22    20    1
    56    19    20    1
    57    19    16    1
    58   104   103    1
    59    15    16    1
    60    20    21    1
    61   102   103    1
    62    39    38    1
    63   103   106    1
    64    16    17    1
    65    38    37    1
    66    17    18    2
    67    82    80    1
    68    78    77    2
    69   106   107    1
    70    37    33   am
    71    29    28   ar
    72    86    85    2
    73    80    79    1
    74    80    81    1
    75    77    76    1
    76    77    83   am
    77    79    76    1
    78    76    75    1
    79    33    34    2
    80    33    32    1
    81    85    84    1
    82    84    83    1
    83    84    87    1
    84    28    27    1
    85    28    30   ar
    86    24    27    1
    87    24    23    1
    88    24    25    1
    89    31    32    1
    90    31    25   am
    91    32    35    1
    92    25    26    2
    93    88    87    1
    94    88    89    1
    95    36    35    1
    96    74    73    1
    97    93    91    1
    98    91    90    2
    99    91    92    1
   100    90    89    1
   101    72    73    1
   102    72    71    1
   103    69    68    2
   104    70    71    1
   105    70    67    1
   106    51    50    2
   107    48    49    1
   108    68    67    1
   109    66    67    1
   110    66    61   am
   111    50    49    1
   112    50    59   am
   113    60    59    1
   114    60    61    1
   115    60    63    1
   116    49    52    1
   117    59    65    1
   118    61    62    2
   119    63    64    1
   120    64    65    1
   121    52    53    1
   122    53    54    1
   123    54    55    1
   124    55    56    2
   125    57    56    1
   126    56    58    1
