@<TRIPOS>MOLECULE
tmp/5j4yA01.pdb
 132 126 0 0 0
SMALL
GASTEIGER

@<TRIPOS>ATOM
      1  N        -45.6880   17.3080   17.6950 N.3   129  TRP129     -0.1241
      2  CA       -44.8630   16.7370   18.7630 C.3   129  TRP129      0.1605
      3  C        -43.5990   17.5670   19.0040 C.2   129  TRP129      0.2264
      4  O        -43.3590   17.9780   20.1430 O.2   129  TRP129     -0.2867
      5  CB       -44.4930   15.2870   18.4320 C.3   129  TRP129      0.0550
      6  CG       -43.9600   14.5270   19.6150 C.ar  129  TRP129      0.0003
      7  CD1      -44.6820   13.7810   20.4990 C.ar  129  TRP129      0.0946
      8  CD2      -42.5960   14.4880   20.0720 C.ar  129  TRP129      0.0152
      9  NE1      -43.8540   13.2470   21.4570 N.ar  129  TRP129     -0.2442
     10  CE2      -42.5650   13.6640   21.2200 C.ar  129  TRP129      0.0810
     11  CE3      -41.3870   15.0300   19.5950 C.ar  129  TRP129      0.0012
     12  CZ2      -41.3690   13.3630   21.8930 C.ar  129  TRP129      0.0191
     13  CZ3      -40.2140   14.7600   20.2780 C.ar  129  TRP129      0.0001
     14  CH2      -40.2070   13.9290   21.4040 C.ar  129  TRP129      0.0015
     15  N        -42.0620   20.1210   22.1750 N.3   133  LEU133     -0.1245
     16  CA       -40.8270   19.7670   22.8940 C.3   133  LEU133      0.1561
     17  C        -40.2030   20.9620   23.6440 C.2   133  LEU133      0.2260
     18  O        -39.7870   20.8180   24.7970 O.2   133  LEU133     -0.2867
     19  CB       -39.8310   19.0790   21.9360 C.3   133  LEU133      0.0270
     20  CG       -38.5460   18.4390   22.5040 C.3   133  LEU133      0.0019
     21  CD1      -38.8580   17.2570   23.4040 C.3   133  LEU133      0.0001
     22  CD2      -37.6420   17.9720   21.3730 C.3   133  LEU133      0.0001
     23  N        -34.2410    9.9740   26.8980 N.3   165  ASP165     -0.1225
     24  CA       -35.6530   10.1110   26.5250 C.3   165  ASP165      0.1805
     25  C        -36.2410   11.4570   27.0050 C.2   165  ASP165      0.2598
     26  O        -37.2660   11.5090   27.6860 O.2   165  ASP165     -0.2718
     27  CB       -36.4820    8.8940   26.9750 C.3   165  ASP165      0.1424
     28  CG       -35.9750    7.5660   26.4430 C.2   165  ASP165      0.3668
     29  OD1      -35.5660    7.5150   25.2570 O.co2 165  ASP165     -0.2456
     30  OD2      -36.0340    6.5640   27.1940 O.co2 165  ASP165     -0.2456
     31  N        -35.5510   12.5410   26.6380 N.am  166  SER166     -0.1938
     32  CA       -35.8810   13.9160   26.9820 C.3   166  SER166      0.2055
     33  C        -36.1080   14.7510   25.7310 C.2   166  SER166      0.2643
     34  O        -36.7120   15.8210   25.8180 O.2   166  SER166     -0.2714
     35  CB       -34.7540   14.5230   27.8020 C.3   166  SER166      0.2130
     36  OG       -33.5430   14.4500   27.0700 O.3   166  SER166     -0.2179
     37  N        -35.6390   14.2520   24.5900 N.am  167  GLY167     -0.1954
     38  CA       -35.8040   14.9150   23.3030 C.3   167  GLY167      0.1869
     39  C        -34.5400   15.4980   22.7140 C.2   167  GLY167      0.2309
     40  O        -34.5360   15.8540   21.5320 O.2   167  GLY167     -0.2863
     41  N        -33.0620   13.3010   19.6710 N.3   170  THR170     -0.1218
     42  CA       -34.0230   13.4360   18.5800 C.3   170  THR170      0.1862
     43  C        -33.8860   14.7700   17.8480 C.2   170  THR170      0.2287
     44  O        -33.7710   14.7640   16.6250 O.2   170  THR170     -0.2866
     45  CB       -35.4550   13.1860   19.0940 C.3   170  THR170      0.1770
     46  OG1      -35.4650   11.9580   19.8180 O.3   170  THR170     -0.2211
     47  CG2      -36.4600   13.0820   17.9750 C.3   170  THR170      0.0375
     48  N        -36.1080   17.9740   29.6630 N.3   284  ARG284     -0.1231
     49  CA       -36.6230   17.1410   30.7440 C.3   284  ARG284      0.1679
     50  C        -37.6980   16.2000   30.2000 C.2   284  ARG284      0.2434
     51  O        -38.5100   16.6430   29.3760 O.2   284  ARG284     -0.2733
     52  CB       -37.1970   18.0160   31.8740 C.3   284  ARG284      0.0321
     53  CG       -36.1360   18.6120   32.7850 C.3   284  ARG284      0.0489
     54  CD       -36.0280   20.1140   32.6260 C.3   284  ARG284      0.2205
     55  NE       -35.0380   20.6780   33.5430 N.pl3 284  ARG284     -0.0865
     56  CZ       -34.8320   21.9790   33.7170 C.cat 284  ARG284      0.5346
     57  NH1      -35.5460   22.8690   33.0360 N.pl3 284  ARG284      0.1354
     58  NH2      -33.9110   22.4020   34.5750 N.pl3 284  ARG284      0.1354
     59  N        -37.7380   14.9070   30.6280 N.am  285  PRO285     -0.2718
     60  CA       -38.7930   14.0100   30.1290 C.3   285  PRO285      0.1535
     61  C        -40.1620   14.4480   30.6310 C.2   285  PRO285      0.2598
     62  O        -40.3640   14.6870   31.8280 O.2   285  PRO285     -0.2715
     63  CB       -38.3890   12.6230   30.6560 C.3   285  PRO285      0.0310
     64  CG       -37.0040   12.7810   31.1980 C.3   285  PRO285      0.0237
     65  CD       -36.8860   14.2130   31.6110 C.3   285  PRO285      0.0939
     66  N        -41.0640   14.6580   29.6740 N.am  286  LYS286     -0.1978
     67  CA       -42.4460   15.0580   29.9050 C.3   286  LYS286      0.1596
     68  C        -43.2700   13.8170   29.6290 C.2   286  LYS286      0.2287
     69  O        -43.1250   13.1940   28.5700 O.2   286  LYS286     -0.2864
     70  CB       -42.8560   16.2350   28.9830 C.3   286  LYS286      0.0298
     71  CG       -42.3140   17.5980   29.4200 C.3   286  LYS286      0.0038
     72  CD       -41.4670   18.2670   28.3280 C.3   286  LYS286      0.0206
     73  CE       -41.1670   19.7190   28.6370 C.3   286  LYS286      0.1093
     74  NZ       -40.5740   20.4360   27.4750 N.3   286  LYS286     -0.1314
     75  N        -45.5270   13.7910   26.3840 N.3   289  LEU289     -0.1231
     76  CA       -44.7600   13.5810   25.1520 C.3   289  LEU289      0.1693
     77  C        -44.4410   12.1040   24.8790 C.2   289  LEU289      0.2591
     78  O        -44.4970   11.6680   23.7290 O.2   289  LEU289     -0.2718
     79  CB       -43.4750   14.4120   25.1750 C.3   289  LEU289      0.0284
     80  CG       -43.6190   15.9010   24.8360 C.3   289  LEU289      0.0019
     81  CD1      -42.3250   16.6320   25.0820 C.3   289  LEU289      0.0001
     82  CD2      -43.9440   16.1000   23.3740 C.3   289  LEU289      0.0001
     83  N        -44.1230   11.3370   25.9310 N.am  290  ARG290     -0.1980
     84  CA       -43.8360    9.9080   25.8180 C.3   290  ARG290      0.1597
     85  C        -45.1170    9.0830   25.5440 C.2   290  ARG290      0.2287
     86  O        -45.0920    8.1950   24.6820 O.2   290  ARG290     -0.2864
     87  CB       -43.0890    9.4040   27.0650 C.3   290  ARG290      0.0334
     88  CG       -42.7630    7.9090   27.0450 C.3   290  ARG290      0.0492
     89  CD       -42.2350    7.4400   28.3850 C.3   290  ARG290      0.2205
     90  NE       -40.7730    7.4460   28.4090 N.pl3 290  ARG290     -0.0865
     91  CZ       -40.0200    6.3770   28.1720 C.cat 290  ARG290      0.5346
     92  NH1      -38.6960    6.4700   28.2050 N.pl3 290  ARG290      0.1354
     93  NH2      -40.5840    5.2020   27.9090 N.pl3 290  ARG290      0.1354
     94  N        -46.4450    9.7120   21.9220 N.3   293  LEU293     -0.1231
     95  CA       -45.5880    8.9350   21.0360 C.3   293  LEU293      0.1693
     96  C        -45.9890    7.4600   21.0970 C.2   293  LEU293      0.2592
     97  O        -46.1950    6.8560   20.0440 O.2   293  LEU293     -0.2718
     98  CB       -44.1240    9.1450   21.4580 C.3   293  LEU293      0.0284
     99  CG       -43.0250    8.7440   20.4770 C.3   293  LEU293      0.0019
    100  CD1      -43.2250    9.4040   19.1440 C.3   293  LEU293      0.0001
    101  CD2      -41.6740    9.1520   21.0060 C.3   293  LEU293      0.0001
    102  N        -46.1940    6.9110   22.3250 N.am  294  SER294     -0.1952
    103  CA       -46.6600    5.5300   22.5540 C.3   294  SER294      0.1924
    104  C        -47.9980    5.2760   21.8400 C.2   294  SER294      0.2314
    105  O        -48.3040    4.1300   21.4920 O.2   294  SER294     -0.2863
    106  CB       -46.8330    5.2500   24.0490 C.3   294  SER294      0.2116
    107  OG       -45.6060    5.2590   24.7620 O.3   294  SER294     -0.2180
    108  N        -42.2940    6.6390   15.4020 N.3   300  LEU300     -0.1245
    109  CA       -41.0840    5.8470   15.5890 C.3   300  LEU300      0.1561
    110  C        -40.8450    5.0000   14.3430 C.2   300  LEU300      0.2260
    111  O        -39.8260    5.1680   13.7010 O.2   300  LEU300     -0.2867
    112  CB       -41.1440    4.9620   16.8430 C.3   300  LEU300      0.0270
    113  CG       -41.1220    5.6210   18.2330 C.3   300  LEU300      0.0019
    114  CD1      -41.0340    4.5490   19.3250 C.3   300  LEU300      0.0001
    115  CD2      -39.9480    6.5600   18.3950 C.3   300  LEU300      0.0001
    116  N        -39.5140   11.9860   13.7070 N.3   305  LEU305     -0.1231
    117  CA       -38.9690   12.9830   14.6390 C.3   305  LEU305      0.1693
    118  C        -37.4710   13.2780   14.4740 C.2   305  LEU305      0.2591
    119  O        -37.0170   14.3580   14.8560 O.2   305  LEU305     -0.2718
    120  CB       -39.2790   12.6030   16.0820 C.3   305  LEU305      0.0284
    121  CG       -40.6890   12.1550   16.4030 C.3   305  LEU305      0.0019
    122  CD1      -40.6940   11.3780   17.6900 C.3   305  LEU305      0.0001
    123  CD2      -41.6790   13.3570   16.4580 C.3   305  LEU305      0.0001
    124  N        -36.7150   12.3350   13.9010 N.am  306  GLN306     -0.1979
    125  CA       -35.2740   12.4720   13.6380 C.3   306  GLN306      0.1601
    126  C        -35.0740   13.0490   12.2270 C.2   306  GLN306      0.2287
    127  O        -33.9410   13.3240   11.8470 O.2   306  GLN306     -0.2864
    128  CB       -34.5580   11.0890   13.7170 C.3   306  GLN306      0.0394
    129  CG       -34.6900   10.3000   15.0270 C.3   306  GLN306      0.0908
    130  CD       -36.0450    9.6400   15.2190 C.2   306  GLN306      0.2608
    131  OE1      -36.8390    9.4970   14.2870 O.2   306  GLN306     -0.2717
    132  NE2      -36.3720    9.2830   16.4550 N.am  306  GLN306     -0.0878
@<TRIPOS>BOND
     1   127   126    2
     2   126   125    1
     3   125   128    1
     4   125   124    1
     5   111   110    2
     6   116   117    1
     7   128   129    1
     8   124   118   am
     9   131   130    2
    10   110   109    1
    11   118   117    1
    12   118   119    2
    13   117   120    1
    14   129   130    1
    15   130   132   am
    16   108   109    1
    17   109   112    1
    18   120   121    1
    19   121   123    1
    20   121   122    1
    21    44    43    2
    22   112   113    1
    23     1     2    1
    24    43    42    1
    25    47    45    1
    26   113   115    1
    27   113   114    1
    28     5     2    1
    29     5     6    1
    30    42    45    1
    31    42    41    1
    32     2     3    1
    33     3     4    2
    34    45    46    1
    35   100    99    1
    36    11     8   ar
    37    11    13   ar
    38     6     8   ar
    39     6     7   ar
    40    97    96    2
    41     8    10   ar
    42    13    14   ar
    43    99   101    1
    44    99    98    1
    45     7     9   ar
    46    95    96    1
    47    95    98    1
    48    95    94    1
    49    96   102   am
    50    10     9   ar
    51    10    12   ar
    52    22    20    1
    53    14    12   ar
    54   105   104    2
    55    40    39    2
    56   104   103    1
    57    19    20    1
    58    19    16    1
    59    15    16    1
    60   102   103    1
    61    20    21    1
    62   103   106    1
    63    39    38    1
    64    16    17    1
    65    38    37    1
    66    82    80    1
    67    17    18    2
    68    78    77    2
    69   106   107    1
    70    37    33   am
    71    86    85    2
    72    80    81    1
    73    80    79    1
    74    77    76    1
    75    77    83   am
    76    76    79    1
    77    76    75    1
    78    29    28   ar
    79    85    84    1
    80    33    34    2
    81    33    32    1
    82    84    83    1
    83    84    87    1
    84    28    27    1
    85    28    30   ar
    86    24    23    1
    87    24    27    1
    88    24    25    1
    89    31    32    1
    90    31    25   am
    91    32    35    1
    92    25    26    2
    93    88    87    1
    94    88    89    1
    95    36    35    1
    96    74    73    1
    97    93    91    1
    98    91    92    1
    99    91    90    2
   100    72    73    1
   101    72    71    1
   102    89    90    1
   103    69    68    2
   104    70    71    1
   105    70    67    1
   106    51    50    2
   107    68    67    1
   108    48    49    1
   109    66    67    1
   110    66    61   am
   111    60    59    1
   112    60    61    1
   113    60    63    1
   114    50    59   am
   115    50    49    1
   116    59    65    1
   117    61    62    2
   118    63    64    1
   119    49    52    1
   120    64    65    1
   121    52    53    1
   122    54    53    1
   123    54    55    1
   124    57    56    1
   125    55    56    2
   126    56    58    1
