@<TRIPOS>MOLECULE
tmp/5j54A00.pdb
 191 187 0 0 0
SMALL
GASTEIGER

@<TRIPOS>ATOM
      1  N        -27.4370    1.0610  -21.2580 N.3    58  PHE58      -0.1241
      2  CA       -26.2420    0.4900  -21.8410 C.3    58  PHE58       0.1605
      3  C        -25.0530    1.4560  -21.7920 C.2    58  PHE58       0.2264
      4  O        -23.9660    1.0400  -22.2140 O.2    58  PHE58      -0.2867
      5  CB       -26.5040    0.0710  -23.3050 C.3    58  PHE58       0.0534
      6  CG       -27.3800   -1.1800  -23.4740 C.ar   58  PHE58      -0.0203
      7  CD1      -27.9220   -1.8440  -22.3770 C.ar   58  PHE58      -0.0042
      8  CD2      -27.6560   -1.6760  -24.7560 C.ar   58  PHE58      -0.0042
      9  CE1      -28.7290   -2.9730  -22.5480 C.ar   58  PHE58      -0.0003
     10  CE2      -28.4510   -2.8060  -24.9410 C.ar   58  PHE58      -0.0003
     11  CZ       -29.0000   -3.4520  -23.8370 C.ar   58  PHE58      -0.0000
     12  N        -24.4450    7.1710  -26.4620 N.3   100  TYR100     -0.1227
     13  CA       -24.0350    5.8000  -26.7620 C.3   100  TYR100      0.1736
     14  C        -23.5000    5.6600  -28.1830 C.2   100  TYR100      0.2595
     15  O        -24.2240    5.9030  -29.1630 O.2   100  TYR100     -0.2718
     16  CB       -25.2270    4.8720  -26.5700 C.3   100  TYR100      0.0548
     17  CG       -24.8220    3.4330  -26.7600 C.ar  100  TYR100     -0.0200
     18  CD1      -24.3090    2.7010  -25.7020 C.ar  100  TYR100     -0.0009
     19  CD2      -24.9470    2.8250  -28.0070 C.ar  100  TYR100     -0.0009
     20  CE1      -23.9150    1.3880  -25.8590 C.ar  100  TYR100      0.0417
     21  CE2      -24.5570    1.5040  -28.1970 C.ar  100  TYR100      0.0417
     22  CZ       -24.0420    0.7890  -27.1200 C.ar  100  TYR100      0.1957
     23  OH       -23.6380   -0.5230  -27.2920 O.3   100  TYR100     -0.2866
     24  N        -22.2220    5.2890  -28.2930 N.am  101  ARG101     -0.1980
     25  CA       -21.6210    4.9860  -29.5990 C.3   101  ARG101      0.1597
     26  C        -21.7520    6.1670  -30.5660 C.2   101  ARG101      0.2287
     27  O        -21.9520    5.9890  -31.7730 O.2   101  ARG101     -0.2864
     28  CB       -22.2550    3.7280  -30.1900 C.3   101  ARG101      0.0334
     29  CG       -21.3360    2.9540  -31.1640 C.3   101  ARG101      0.0492
     30  CD       -20.3800    2.0420  -30.3970 C.3   101  ARG101      0.2205
     31  NE       -21.1330    0.9490  -29.7710 N.pl3 101  ARG101     -0.0865
     32  CZ       -21.2900   -0.2740  -30.2980 C.cat 101  ARG101      0.5346
     33  NH1      -20.7150   -0.6300  -31.4380 N.pl3 101  ARG101      0.1354
     34  NH2      -22.0200   -1.1650  -29.6690 N.pl3 101  ARG101      0.1354
     35  N        -20.1860   -4.3990  -20.1620 N.3   120  THR120     -0.1218
     36  CA       -21.0800   -5.4120  -20.7120 C.3   120  THR120      0.1862
     37  C        -20.7700   -6.8290  -20.2340 C.2   120  THR120      0.2287
     38  O        -21.6930   -7.6260  -20.0760 O.2   120  THR120     -0.2866
     39  CB       -21.0360   -5.3580  -22.2580 C.3   120  THR120      0.1770
     40  OG1      -21.4830   -4.0540  -22.6960 O.3   120  THR120     -0.2211
     41  CG2      -21.9270   -6.3830  -22.8530 C.3   120  THR120      0.0375
     42  N        -16.3330   -4.3010  -23.5720 N.3   133  LYS133     -0.1231
     43  CA       -17.2890   -3.4470  -24.2690 C.3   133  LYS133      0.1693
     44  C        -16.9310   -3.4750  -25.7530 C.2   133  LYS133      0.2591
     45  O        -15.8030   -3.1410  -26.1320 O.2   133  LYS133     -0.2718
     46  CB       -17.2570   -2.0260  -23.6940 C.3   133  LYS133      0.0285
     47  CG       -18.2490   -1.0890  -24.3440 C.3   133  LYS133      0.0035
     48  CD       -19.6040   -1.4150  -23.9150 C.3   133  LYS133      0.0206
     49  CE       -20.6480   -0.6170  -24.6300 C.3   133  LYS133      0.1093
     50  NZ       -21.8730   -0.6570  -23.7700 N.3   133  LYS133     -0.1314
     51  N        -17.8960   -3.8560  -26.5870 N.am  134  GLU134     -0.1979
     52  CA       -17.6520   -4.2810  -27.9670 C.3   134  GLU134      0.1602
     53  C        -17.2340   -3.1750  -28.9150 C.2   134  GLU134      0.2287
     54  O        -16.9730   -3.4930  -30.0890 O.2   134  GLU134     -0.2864
     55  CB       -18.8980   -4.9510  -28.5180 C.3   134  GLU134      0.0415
     56  CG       -20.0780   -4.0360  -28.6930 C.3   134  GLU134      0.1163
     57  CD       -21.4010   -4.7840  -28.7460 C.2   134  GLU134      0.3649
     58  OE1      -21.6830   -5.6010  -27.8290 O.co2 134  GLU134     -0.2457
     59  OE2      -22.1890   -4.5010  -29.6730 O.co2 134  GLU134     -0.2457
     60  N        -25.2810   -4.4670  -35.3740 N.3   215  MET215     -0.1245
     61  CA       -24.8180   -4.8370  -34.0380 C.3   215  MET215      0.1570
     62  C        -24.4890   -6.3310  -34.0230 C.2   215  MET215      0.2261
     63  O        -25.3820   -7.1780  -33.9740 O.2   215  MET215     -0.2867
     64  CB       -25.8650   -4.5060  -32.9770 C.3   215  MET215      0.0387
     65  CG       -25.3130   -4.6100  -31.5570 C.3   215  MET215      0.0595
     66  SD       -26.5640   -4.7320  -30.2800 S.3   215  MET215     -0.1393
     67  CE       -27.4960   -3.2370  -30.4990 C.3   215  MET215      0.0692
     68  N        -23.3580   -8.3800  -31.6840 N.3   217  HIS217     -0.1241
     69  CA       -23.1850   -8.4150  -30.2350 C.3   217  HIS217      0.1621
     70  C        -22.6670   -9.7770  -29.7630 C.2   217  HIS217      0.2264
     71  O        -21.8760   -9.8560  -28.8210 O.2   217  HIS217     -0.2867
     72  CB       -24.5230   -8.0790  -29.5910 C.3   217  HIS217      0.0745
     73  CG       -24.5230   -8.1510  -28.1010 C.ar  217  HIS217      0.0817
     74  ND1      -23.8110   -7.2690  -27.3190 N.ar  217  HIS217     -0.2268
     75  CD2      -25.1630   -8.9880  -27.2420 C.ar  217  HIS217      0.1154
     76  CE1      -24.0170   -7.5520  -26.0430 C.ar  217  HIS217      0.1986
     77  NE2      -24.8360   -8.5870  -25.9680 N.ar  217  HIS217     -0.2212
     78  N        -35.4220  -10.9040  -35.1390 N.3   280  PHE280     -0.1241
     79  CA       -34.4370  -10.4050  -34.1960 C.3   280  PHE280      0.1605
     80  C        -33.8580  -11.5640  -33.4000 C.2   280  PHE280      0.2264
     81  O        -34.5970  -12.4220  -32.9040 O.2   280  PHE280     -0.2867
     82  CB       -35.0260   -9.3540  -33.2530 C.3   280  PHE280      0.0534
     83  CG       -34.0270   -8.8420  -32.2520 C.ar  280  PHE280     -0.0203
     84  CD1      -33.7000   -9.5920  -31.1200 C.ar  280  PHE280     -0.0042
     85  CD2      -33.3770   -7.6410  -32.4640 C.ar  280  PHE280     -0.0042
     86  CE1      -32.7680   -9.1280  -30.2040 C.ar  280  PHE280     -0.0003
     87  CE2      -32.4300   -7.1670  -31.5430 C.ar  280  PHE280     -0.0003
     88  CZ       -32.1320   -7.9150  -30.4160 C.ar  280  PHE280     -0.0000
     89  N        -30.2550  -11.9700  -30.6580 N.3   282  SER282     -0.1202
     90  CA       -29.0290  -11.3800  -30.1300 C.3   282  SER282      0.2020
     91  C        -28.1510  -12.4370  -29.4820 C.2   282  SER282      0.2618
     92  O        -27.0800  -12.7610  -30.0150 O.2   282  SER282     -0.2717
     93  CB       -29.3900  -10.2750  -29.1400 C.3   282  SER282      0.2103
     94  OG       -28.2100   -9.6780  -28.6510 O.3   282  SER282     -0.2182
     95  N        -28.5710  -12.9980  -28.3560 N.am  283  HIS283     -0.1975
     96  CA       -27.7220  -13.9140  -27.6100 C.3   283  HIS283      0.1656
     97  C        -27.7600  -15.3440  -28.1360 C.2   283  HIS283      0.2291
     98  O        -28.8050  -15.8540  -28.5660 O.2   283  HIS283     -0.2864
     99  CB       -28.1190  -13.8800  -26.1520 C.3   283  HIS283      0.0771
    100  CG       -27.6900  -12.6170  -25.4810 C.ar  283  HIS283      0.0820
    101  ND1      -28.5490  -11.8370  -24.7370 N.ar  283  HIS283     -0.2267
    102  CD2      -26.4850  -11.9970  -25.4450 C.ar  283  HIS283      0.1154
    103  CE1      -27.8960  -10.7870  -24.2750 C.ar  283  HIS283      0.1986
    104  NE2      -26.6390  -10.8590  -24.6880 N.ar  283  HIS283     -0.2212
    105  N        -35.9600   -6.0950  -30.1780 N.3   305  MET305     -0.1230
    106  CA       -36.0430   -6.1910  -28.7250 C.3   305  MET305      0.1702
    107  C        -35.5600   -4.9430  -27.9850 C.2   305  MET305      0.2592
    108  O        -35.7310   -4.8820  -26.7640 O.2   305  MET305     -0.2718
    109  CB       -35.2380   -7.4050  -28.2460 C.3   305  MET305      0.0401
    110  CG       -35.8460   -8.7580  -28.6820 C.3   305  MET305      0.0596
    111  SD       -35.1590  -10.2050  -27.8010 S.3   305  MET305     -0.1393
    112  CE       -35.5940   -9.7370  -26.1200 C.3   305  MET305      0.0692
    113  N        -34.9910   -3.9460  -28.6780 N.am  306  PHE306     -0.1976
    114  CA       -34.4290   -2.7400  -28.0520 C.3   306  PHE306      0.1639
    115  C        -35.3100   -1.5220  -28.3250 C.2   306  PHE306      0.2290
    116  O        -35.1890   -0.9090  -29.3940 O.2   306  PHE306     -0.2864
    117  CB       -33.0150   -2.4640  -28.5780 C.3   306  PHE306      0.0560
    118  CG       -32.0370   -3.6180  -28.4120 C.ar  306  PHE306     -0.0200
    119  CD1      -31.8580   -4.2430  -27.1850 C.ar  306  PHE306     -0.0042
    120  CD2      -31.2810   -4.0510  -29.4870 C.ar  306  PHE306     -0.0042
    121  CE1      -30.9410   -5.3120  -27.0490 C.ar  306  PHE306     -0.0003
    122  CE2      -30.3580   -5.1120  -29.3520 C.ar  306  PHE306     -0.0003
    123  CZ       -30.1930   -5.7290  -28.1430 C.ar  306  PHE306     -0.0000
    124  N        -33.3600    1.5950  -29.4550 N.3   309  PHE309     -0.1241
    125  CA       -32.7900    1.5550  -30.8060 C.3   309  PHE309      0.1605
    126  C        -33.9640    1.3050  -31.7460 C.2   309  PHE309      0.2264
    127  O        -34.1970    0.1580  -32.1690 O.2   309  PHE309     -0.2867
    128  CB       -31.7400    0.4480  -30.9290 C.3   309  PHE309      0.0534
    129  CG       -30.5240    0.6600  -30.0630 C.ar  309  PHE309     -0.0203
    130  CD1      -30.0220    1.9340  -29.8410 C.ar  309  PHE309     -0.0042
    131  CD2      -29.8690   -0.4260  -29.4860 C.ar  309  PHE309     -0.0042
    132  CE1      -28.8950    2.1250  -29.0560 C.ar  309  PHE309     -0.0003
    133  CE2      -28.7370   -0.2380  -28.7050 C.ar  309  PHE309     -0.0003
    134  CZ       -28.2600    1.0490  -28.4800 C.ar  309  PHE309     -0.0000
    135  N        -34.5660  -15.3150  -22.4180 N.3   352  GLU352     -0.1231
    136  CA       -33.3640  -14.6200  -22.8820 C.3   352  GLU352      0.1699
    137  C        -32.2390  -14.8960  -21.8850 C.2   352  GLU352      0.2592
    138  O        -32.3670  -15.7370  -20.9950 O.2   352  GLU352     -0.2718
    139  CB       -33.6210  -13.1170  -23.0510 C.3   352  GLU352      0.0402
    140  CG       -33.5370  -12.6300  -24.4940 C.3   352  GLU352      0.1161
    141  CD       -32.1180  -12.4510  -25.0080 C.2   352  GLU352      0.3649
    142  OE1      -31.9800  -12.1760  -26.2060 O.co2 352  GLU352     -0.2457
    143  OE2      -31.1380  -12.5810  -24.2470 O.co2 352  GLU352     -0.2457
    144  N        -31.1350  -14.1780  -22.0490 N.am  353  PHE353     -0.1976
    145  CA       -29.8890  -14.3760  -21.3180 C.3   353  PHE353      0.1639
    146  C        -29.5530  -15.8650  -21.2040 C.2   353  PHE353      0.2290
    147  O        -29.4220  -16.4020  -20.1030 O.2   353  PHE353     -0.2864
    148  CB       -29.9370  -13.6980  -19.9580 C.3   353  PHE353      0.0560
    149  CG       -29.8380  -12.2250  -20.0890 C.ar  353  PHE353     -0.0200
    150  CD1      -28.5960  -11.6030  -20.1070 C.ar  353  PHE353     -0.0042
    151  CD2      -30.9590  -11.4700  -20.3120 C.ar  353  PHE353     -0.0042
    152  CE1      -28.4890  -10.2170  -20.2750 C.ar  353  PHE353     -0.0003
    153  CE2      -30.8610  -10.0930  -20.4930 C.ar  353  PHE353     -0.0003
    154  CZ       -29.6150   -9.4680  -20.4660 C.ar  353  PHE353     -0.0000
    155  N        -37.8710   -9.7420  -16.1600 N.3   383  MET383     -0.1245
    156  CA       -37.5180  -11.1590  -16.0940 C.3   383  MET383      0.1570
    157  C        -37.8380  -11.6520  -14.6870 C.2   383  MET383      0.2261
    158  O        -37.1160  -11.3230  -13.7370 O.2   383  MET383     -0.2867
    159  CB       -36.0400  -11.3440  -16.4220 C.3   383  MET383      0.0387
    160  CG       -35.5670  -10.5530  -17.6280 C.3   383  MET383      0.0595
    161  SD       -36.4130  -11.1780  -19.0620 S.3   383  MET383     -0.1393
    162  CE       -35.1490  -10.7720  -20.2590 C.3   383  MET383      0.0692
    163  N        -29.1040   -2.7790  -12.5300 N.3   464  PHE464     -0.1241
    164  CA       -29.2300   -3.6340  -13.7110 C.3   464  PHE464      0.1605
    165  C        -27.8740   -4.1600  -14.1430 C.2   464  PHE464      0.2264
    166  O        -26.9390   -3.3940  -14.3510 O.2   464  PHE464     -0.2867
    167  CB       -29.8660   -2.8220  -14.8360 C.3   464  PHE464      0.0534
    168  CG       -29.8010   -3.4680  -16.1990 C.ar  464  PHE464     -0.0203
    169  CD1      -30.6420   -4.5230  -16.5260 C.ar  464  PHE464     -0.0042
    170  CD2      -28.9480   -2.9660  -17.1730 C.ar  464  PHE464     -0.0042
    171  CE1      -30.6060   -5.1140  -17.7960 C.ar  464  PHE464     -0.0003
    172  CE2      -28.9050   -3.5320  -18.4470 C.ar  464  PHE464     -0.0003
    173  CZ       -29.7440   -4.6230  -18.7560 C.ar  464  PHE464     -0.0000
    174  N        -25.3920   -6.6780  -16.7030 N.3   466  LEU466     -0.1231
    175  CA       -25.2650   -7.3300  -17.9960 C.3   466  LEU466      0.1693
    176  C        -24.6630   -8.7170  -17.7350 C.2   466  LEU466      0.2592
    177  O        -25.2910   -9.5070  -17.0300 O.2   466  LEU466     -0.2718
    178  CB       -24.4770   -6.4400  -18.9570 C.3   466  LEU466      0.0284
    179  CG       -25.3800   -5.2460  -19.4010 C.3   466  LEU466      0.0019
    180  CD1      -24.6420   -4.1920  -20.2150 C.3   466  LEU466      0.0001
    181  CD2      -26.5760   -5.7510  -20.2540 C.3   466  LEU466      0.0001
    182  N        -23.4860   -9.0440  -18.2480 N.am  467  HIS467     -0.1976
    183  CA       -23.0580  -10.4400  -18.2310 C.3   467  HIS467      0.1656
    184  C        -22.0560  -10.7000  -17.1190 C.2   467  HIS467      0.2291
    185  O        -21.4090   -9.7890  -16.5900 O.2   467  HIS467     -0.2864
    186  CB       -22.5020  -10.8360  -19.6050 C.3   467  HIS467      0.0771
    187  CG       -23.5250  -10.7180  -20.6860 C.ar  467  HIS467      0.0820
    188  ND1      -24.5500  -11.6350  -20.8490 N.ar  467  HIS467     -0.2267
    189  CD2      -23.7240   -9.7590  -21.6290 C.ar  467  HIS467      0.1154
    190  CE1      -25.3200  -11.2520  -21.8590 C.ar  467  HIS467      0.1986
    191  NE2      -24.8510  -10.1080  -22.3330 N.ar  467  HIS467     -0.2212
@<TRIPOS>BOND
     1    60    61    1
     2    78    79    1
     3    79    80    1
     4    79    82    1
     5    61    62    1
     6    61    64    1
     7    62    63    2
     8    80    81    2
     9    82    83    1
    10    64    65    1
    11    85    83   ar
    12    85    87   ar
    13    83    84   ar
    14   127   126    2
    15    27    26    2
    16   126   125    1
    17    68    69    1
    18    65    66    1
    19    87    88   ar
    20    33    32    1
    21    29    30    1
    22    29    28    1
    23    84    86   ar
    24   128   125    1
    25   128   129    1
    26   125   124    1
    27    89    90    1
    28    26    25    1
    29    67    66    1
    30    88    86   ar
    31    30    31    1
    32    32    31    2
    33    32    34    1
    34    69    70    1
    35    69    72    1
    36    28    25    1
    37   105   106    1
    38    90    91    1
    39    90    93    1
    40    54    53    2
    41   129   130   ar
    42   129   131   ar
    43    92    91    2
    44   130   132   ar
    45    70    71    2
    46    59    57   ar
    47    25    24    1
    48    72    73    1
    49   120   122   ar
    50   120   118   ar
    51   131   133   ar
    52    91    95   am
    53   116   115    2
    54   122   123   ar
    55    15    14    2
    56    93    94    1
    57   132   134   ar
    58    53    52    1
    59    57    56    1
    60    57    58   ar
    61   106   109    1
    62   106   107    1
    63   133   134   ar
    64    56    55    1
    65   110   109    1
    66   110   111    1
    67   113   114    1
    68   113   107   am
    69   117   118    1
    70   117   114    1
    71    98    97    2
    72    55    52    1
    73   118   119   ar
    74    95    96    1
    75   115   114    1
    76    24    14   am
    77    21    19   ar
    78    21    22   ar
    79    14    13    1
    80   123   121   ar
    81    97    96    1
    82    73    74   ar
    83    73    75   ar
    84    19    17   ar
    85   107   108    2
    86    52    51    1
    87   111   112    1
    88    96    99    1
    89    74    76   ar
    90    23    22    1
    91    75    77   ar
    92   119   121   ar
    93    22    20   ar
    94    13    16    1
    95    13    12    1
    96    17    16    1
    97    17    18   ar
    98    51    44   am
    99   142   141   ar
   100    99   100    1
   101    45    44    2
   102    76    77   ar
   103    20    18   ar
   104    44    43    1
   105   100   102   ar
   106   100   101   ar
   107   102   104   ar
   108   141   140    1
   109   141   143   ar
   110    10     8   ar
   111    10    11   ar
   112     8     6   ar
   113   101   103   ar
   114   104   103   ar
   115    49    48    1
   116    49    50    1
   117   140   139    1
   118    47    48    1
   119    47    46    1
   120    43    46    1
   121    43    42    1
   122    11     9   ar
   123     6     5    1
   124     6     7   ar
   125     5     2    1
   126   139   136    1
   127   136   135    1
   128   136   137    1
   129    41    39    1
   130    40    39    1
   131     9     7   ar
   132   191   190   ar
   133   191   189   ar
   134    39    36    1
   135     4     3    2
   136   144   137   am
   137   144   145    1
   138   137   138    2
   139   190   188   ar
   140     2     3    1
   141     2     1    1
   142   189   187   ar
   143   145   146    1
   144   145   148    1
   145   146   147    2
   146   188   187   ar
   147    36    37    1
   148    36    35    1
   149   187   186    1
   150   153   154   ar
   151   153   151   ar
   152   154   152   ar
   153   151   149   ar
   154   152   150   ar
   155   162   161    1
   156   181   179    1
   157    37    38    2
   158   180   179    1
   159   150   149   ar
   160   149   148    1
   161   186   183    1
   162   179   178    1
   163   161   160    1
   164   178   175    1
   165   173   172   ar
   166   173   171   ar
   167   172   170   ar
   168   182   183    1
   169   182   176   am
   170   183   184    1
   171   175   176    1
   172   175   174    1
   173   171   169   ar
   174   176   177    2
   175   160   159    1
   176   170   168   ar
   177   184   185    2
   178   169   168   ar
   179   159   156    1
   180   168   167    1
   181   155   156    1
   182   156   157    1
   183   167   164    1
   184   157   158    2
   185   166   165    2
   186   165   164    1
   187   164   163    1
