@<TRIPOS>MOLECULE
tmp/5j55A00.pdb
 141 138 0 0 0
SMALL
GASTEIGER

@<TRIPOS>ATOM
      1  N         19.0020   51.3370   50.9680 N.3    58  PHE58      -0.1241
      2  CA        20.1880   50.7310   50.3990 C.3    58  PHE58       0.1605
      3  C         21.3800   51.6880   50.3630 C.2    58  PHE58       0.2264
      4  O         22.4660   51.2530   49.9740 O.2    58  PHE58      -0.2867
      5  CB        19.9060   50.2240   48.9670 C.3    58  PHE58       0.0534
      6  CG        19.0450   48.9740   48.8840 C.ar   58  PHE58      -0.0203
      7  CD1       18.5440   48.3640   50.0060 C.ar   58  PHE58      -0.0042
      8  CD2       18.7270   48.4260   47.6290 C.ar   58  PHE58      -0.0042
      9  CE1       17.7440   47.2050   49.9130 C.ar   58  PHE58      -0.0003
     10  CE2       17.9480   47.2670   47.5260 C.ar   58  PHE58      -0.0003
     11  CZ        17.4440   46.6690   48.6670 C.ar   58  PHE58      -0.0000
     12  N         21.9800   57.4340   45.7120 N.3   100  TYR100     -0.1227
     13  CA        22.3680   56.0510   45.4520 C.3   100  TYR100      0.1736
     14  C         22.8790   55.8880   44.0240 C.2   100  TYR100      0.2595
     15  O         22.1720   56.1850   43.0510 O.2   100  TYR100     -0.2718
     16  CB        21.1700   55.1370   45.7110 C.3   100  TYR100      0.0548
     17  CG        21.5320   53.6980   45.4890 C.ar  100  TYR100     -0.0200
     18  CD1       22.1400   52.9590   46.4890 C.ar  100  TYR100     -0.0009
     19  CD2       21.3550   53.1170   44.2400 C.ar  100  TYR100     -0.0009
     20  CE1       22.5020   51.6380   46.2840 C.ar  100  TYR100      0.0417
     21  CE2       21.7100   51.7910   44.0140 C.ar  100  TYR100      0.0417
     22  CZ        22.3060   51.0780   45.0210 C.ar  100  TYR100      0.1957
     23  OH        22.6660   49.7700   44.7890 O.3   100  TYR100     -0.2866
     24  N         24.1380   55.4570   43.9050 N.am  101  ARG101     -0.1980
     25  CA        24.7460   55.1590   42.6200 C.3   101  ARG101      0.1597
     26  C         24.6070   56.3320   41.6470 C.2   101  ARG101      0.2287
     27  O         24.3940   56.1430   40.4500 O.2   101  ARG101     -0.2864
     28  CB        24.1440   53.8860   42.0240 C.3   101  ARG101      0.0334
     29  CG        25.0900   53.1200   41.0590 C.3   101  ARG101      0.0492
     30  CD        26.0750   52.1990   41.7920 C.3   101  ARG101      0.2205
     31  NE        25.3550   51.1270   42.5010 N.pl3 101  ARG101     -0.0865
     32  CZ        25.1420   49.8970   42.0140 C.cat 101  ARG101      0.5346
     33  NH1       25.6380   49.5250   40.8530 N.pl3 101  ARG101      0.1354
     34  NH2       24.4440   49.0250   42.7140 N.pl3 101  ARG101      0.1354
     35  N         27.8910   48.1290   52.5580 N.3   119  ASN119     -0.1225
     36  CA        26.7280   47.9360   53.4030 C.3   119  ASN119      0.1785
     37  C         25.8680   46.7340   53.0350 C.2   119  ASN119      0.2597
     38  O         24.7570   46.6070   53.5710 O.2   119  ASN119     -0.2718
     39  CB        25.8750   49.2060   53.3840 C.3   119  ASN119      0.1169
     40  CG        25.0820   49.3660   52.0830 C.2   119  ASN119      0.2627
     41  OD1       25.2550   48.6140   51.1030 O.2   119  ASN119     -0.2716
     42  ND2       24.2200   50.3610   52.0630 N.am  119  ASN119     -0.0877
     43  N         26.3350   45.8380   52.1540 N.am  120  THR120     -0.1953
     44  CA        25.4720   44.7860   51.6260 C.3   120  THR120      0.1897
     45  C         25.8050   43.3960   52.1550 C.2   120  THR120      0.2313
     46  O         24.8980   42.5600   52.3010 O.2   120  THR120     -0.2863
     47  CB        25.5260   44.7950   50.0770 C.3   120  THR120      0.1794
     48  OG1       25.0580   46.0680   49.5890 O.3   120  THR120     -0.2208
     49  CG2       24.6490   43.7520   49.4580 C.3   120  THR120      0.0378
     50  N         30.1530   45.9050   48.7650 N.3   133  LYS133     -0.1231
     51  CA        29.2050   46.7530   48.0510 C.3   133  LYS133      0.1693
     52  C         29.5520   46.7070   46.5720 C.2   133  LYS133      0.2591
     53  O         30.6900   46.9780   46.1910 O.2   133  LYS133     -0.2718
     54  CB        29.2550   48.1880   48.5800 C.3   133  LYS133      0.0285
     55  CG        28.2820   49.1210   47.9010 C.3   133  LYS133      0.0035
     56  CD        26.9520   48.9430   48.5060 C.3   133  LYS133      0.0206
     57  CE        25.8930   49.6110   47.6870 C.3   133  LYS133      0.1093
     58  NZ        24.6590   49.7330   48.5430 N.3   133  LYS133     -0.1314
     59  N         28.5640   46.3620   45.7450 N.am  134  GLU134     -0.1979
     60  CA        28.8080   45.9020   44.3890 C.3   134  GLU134      0.1602
     61  C         29.2190   46.9900   43.4070 C.2   134  GLU134      0.2287
     62  O         29.4410   46.6520   42.2290 O.2   134  GLU134     -0.2864
     63  CB        27.5530   45.1850   43.8780 C.3   134  GLU134      0.0415
     64  CG        26.3610   46.1050   43.6340 C.3   134  GLU134      0.1163
     65  CD        25.0430   45.3420   43.6840 C.2   134  GLU134      0.3649
     66  OE1       24.8540   44.5460   44.6310 O.co2 134  GLU134     -0.2457
     67  OE2       24.2130   45.5090   42.7730 O.co2 134  GLU134     -0.2457
     68  N         21.1190   45.6450   37.1420 N.3   215  MET215     -0.1245
     69  CA        21.6200   45.2810   38.4650 C.3   215  MET215      0.1570
     70  C         21.9640   43.7980   38.4800 C.2   215  MET215      0.2261
     71  O         21.0830   42.9410   38.5690 O.2   215  MET215     -0.2867
     72  CB        20.5970   45.5760   39.5510 C.3   215  MET215      0.0387
     73  CG        21.1760   45.3750   40.9530 C.3   215  MET215      0.0595
     74  SD        19.9330   45.3210   42.2510 S.3   215  MET215     -0.1393
     75  CE        19.1080   46.9020   42.0580 C.3   215  MET215      0.0692
     76  N         23.1800   41.7680   40.8160 N.3   217  HIS217     -0.1241
     77  CA        23.3530   41.7360   42.2620 C.3   217  HIS217      0.1621
     78  C         23.8540   40.3720   42.7310 C.2   217  HIS217      0.2264
     79  O         24.6780   40.2910   43.6500 O.2   217  HIS217     -0.2867
     80  CB        22.0100   42.0640   42.9190 C.3   217  HIS217      0.0745
     81  CG        22.0230   42.0220   44.4140 C.ar  217  HIS217      0.0817
     82  ND1       22.7720   42.8910   45.1860 N.ar  217  HIS217     -0.2268
     83  CD2       21.3490   41.2310   45.2900 C.ar  217  HIS217      0.1154
     84  CE1       22.5810   42.6190   46.4570 C.ar  217  HIS217      0.1986
     85  NE2       21.7090   41.6330   46.5500 N.ar  217  HIS217     -0.2212
     86  N         16.0850   38.2320   42.0410 N.3   282  SER282     -0.1202
     87  CA        17.2940   38.8350   42.5940 C.3   282  SER282      0.2020
     88  C         18.1910   37.7690   43.2100 C.2   282  SER282      0.2618
     89  O         19.2630   37.5140   42.6860 O.2   282  SER282     -0.2717
     90  CB        16.9150   39.9090   43.6060 C.3   282  SER282      0.2103
     91  OG        18.0790   40.4300   44.2120 O.3   282  SER282     -0.2182
     92  N         17.7860   37.1330   44.2970 N.am  283  HIS283     -0.1975
     93  CA        18.6960   36.2610   45.0240 C.3   283  HIS283      0.1656
     94  C         18.6620   34.8260   44.5270 C.2   283  HIS283      0.2291
     95  O         17.6240   34.3000   44.1000 O.2   283  HIS283     -0.2864
     96  CB        18.3810   36.3080   46.5090 C.3   283  HIS283      0.0771
     97  CG        18.7760   37.6020   47.1440 C.ar  283  HIS283      0.0820
     98  ND1       17.9020   38.3650   47.8800 N.ar  283  HIS283     -0.2267
     99  CD2       19.9530   38.2780   47.1300 C.ar  283  HIS283      0.1154
    100  CE1       18.5240   39.4520   48.3120 C.ar  283  HIS283      0.1986
    101  NE2       19.7720   39.4200   47.8720 N.ar  283  HIS283     -0.2212
    102  N         11.4770   46.0500   43.9790 N.3   306  PHE306     -0.1241
    103  CA        12.0860   47.2540   44.5470 C.3   306  PHE306      0.1605
    104  C         11.1900   48.4630   44.2980 C.2   306  PHE306      0.2264
    105  O         11.3030   49.1000   43.2370 O.2   306  PHE306     -0.2867
    106  CB        13.4610   47.5210   43.9230 C.3   306  PHE306      0.0534
    107  CG        14.4630   46.4120   44.0920 C.ar  306  PHE306     -0.0203
    108  CD1       14.6420   45.7670   45.3100 C.ar  306  PHE306     -0.0042
    109  CD2       15.2560   46.0380   43.0150 C.ar  306  PHE306     -0.0042
    110  CE1       15.5910   44.7650   45.4310 C.ar  306  PHE306     -0.0003
    111  CE2       16.2080   45.0430   43.1390 C.ar  306  PHE306     -0.0003
    112  CZ        16.3720   44.4090   44.3410 C.ar  306  PHE306     -0.0000
    113  N         15.4670   35.9780   50.5450 N.3   353  PHE353     -0.1241
    114  CA        16.6910   35.7650   51.3130 C.3   353  PHE353      0.1605
    115  C         17.0070   34.2710   51.4280 C.2   353  PHE353      0.2264
    116  O         17.1520   33.7390   52.5340 O.2   353  PHE353     -0.2867
    117  CB        16.6030   36.4350   52.6810 C.3   353  PHE353      0.0534
    118  CG        16.7870   37.9320   52.5880 C.ar  353  PHE353     -0.0203
    119  CD1       18.0700   38.4890   52.5790 C.ar  353  PHE353     -0.0042
    120  CD2       15.6980   38.7620   52.3570 C.ar  353  PHE353     -0.0042
    121  CE1       18.2480   39.8470   52.4500 C.ar  353  PHE353     -0.0003
    122  CE2       15.8710   40.1270   52.2110 C.ar  353  PHE353     -0.0003
    123  CZ        17.1470   40.6710   52.2580 C.ar  353  PHE353     -0.0000
    124  N         21.2050   43.4520   55.6420 N.3   467  LEU467     -0.1231
    125  CA        21.2730   42.7120   54.3940 C.3   467  LEU467      0.1693
    126  C         21.8580   41.3290   54.6820 C.2   467  LEU467      0.2592
    127  O         21.2190   40.5470   55.3820 O.2   467  LEU467     -0.2718
    128  CB        22.0560   43.4980   53.3230 C.3   467  LEU467      0.0284
    129  CG        21.2330   44.5630   52.5700 C.3   467  LEU467      0.0019
    130  CD1       19.8500   44.0780   52.1150 C.3   467  LEU467      0.0001
    131  CD2       21.0860   45.7780   53.3870 C.3   467  LEU467      0.0001
    132  N         23.0590   41.0150   54.2060 N.am  468  HIS468     -0.1976
    133  CA        23.5500   39.6420   54.2500 C.3   468  HIS468      0.1656
    134  C         24.5660   39.4150   55.3650 C.2   468  HIS468      0.2291
    135  O         25.2760   40.3220   55.8020 O.2   468  HIS468     -0.2864
    136  CB        24.1190   39.2650   52.8870 C.3   468  HIS468      0.0771
    137  CG        23.1130   39.4150   51.8020 C.ar  468  HIS468      0.0820
    138  ND1       22.0150   38.5910   51.6950 N.ar  468  HIS468     -0.2267
    139  CD2       22.9770   40.3520   50.8400 C.ar  468  HIS468      0.1154
    140  CE1       21.2860   38.9690   50.6550 C.ar  468  HIS468      0.1986
    141  NE2       21.8360   40.0550   50.1400 N.ar  468  HIS468     -0.2212
@<TRIPOS>BOND
     1    68    69    1
     2    69    70    1
     3    69    72    1
     4    70    71    2
     5    72    73    1
     6    27    26    2
     7    76    77    1
     8    33    32    1
     9    73    74    1
    10    29    30    1
    11    29    28    1
    12    26    25    1
    13    30    31    1
    14    32    31    2
    15    32    34    1
    16    28    25    1
    17    86    87    1
    18    75    74    1
    19    62    61    2
    20    77    78    1
    21    77    80    1
    22    87    88    1
    23    87    90    1
    24    25    24    1
    25    89    88    2
    26    78    79    2
    27    67    65   ar
    28    80    81    1
    29   109   111   ar
    30   109   107   ar
    31    15    14    2
    32   111   112   ar
    33    88    92   am
    34   105   104    2
    35    61    60    1
    36    90    91    1
    37    64    65    1
    38    64    63    1
    39    65    66   ar
    40    63    60    1
    41    24    14   am
    42   106   107    1
    43   106   103    1
    44   102   103    1
    45    21    19   ar
    46    21    22   ar
    47    14    13    1
    48   107   108   ar
    49    95    94    2
    50    19    17   ar
    51    92    93    1
    52   104   103    1
    53   112   110   ar
    54    60    59    1
    55    81    82   ar
    56    81    83   ar
    57    94    93    1
    58    23    22    1
    59    22    20   ar
    60    93    96    1
    61    82    84   ar
    62    83    85   ar
    63   108   110   ar
    64    13    16    1
    65    13    12    1
    66    17    16    1
    67    17    18   ar
    68    59    52   am
    69    53    52    2
    70    20    18   ar
    71    84    85   ar
    72    96    97    1
    73    52    51    1
    74    99    97   ar
    75    99   101   ar
    76    97    98   ar
    77    10     8   ar
    78    10    11   ar
    79     8     6   ar
    80    57    56    1
    81    57    58    1
    82   101   100   ar
    83    98   100   ar
    84    55    56    1
    85    55    54    1
    86    51    54    1
    87    51    50    1
    88    11     9   ar
    89     6     5    1
    90     6     7   ar
    91     5     2    1
    92    49    47    1
    93    48    47    1
    94     9     7   ar
    95     4     3    2
    96    47    44    1
    97   141   140   ar
    98   141   139   ar
    99     3     2    1
   100     2     1    1
   101   113   114    1
   102   140   138   ar
   103   139   137   ar
   104    41    40    2
   105   114   115    1
   106   114   117    1
   107   115   116    2
   108    44    43    1
   109    44    45    1
   110   138   137   ar
   111   137   136    1
   112    42    40   am
   113    40    39    1
   114   130   129    1
   115    43    37   am
   116    45    46    2
   117   122   123   ar
   118   122   120   ar
   119   123   121   ar
   120   120   118   ar
   121   121   119   ar
   122    35    36    1
   123   129   128    1
   124   129   131    1
   125   119   118   ar
   126   118   117    1
   127   136   133    1
   128    37    36    1
   129    37    38    2
   130   128   125    1
   131    39    36    1
   132   132   133    1
   133   132   126   am
   134   133   134    1
   135   125   126    1
   136   125   124    1
   137   126   127    2
   138   134   135    2
