@<TRIPOS>MOLECULE
tmp/5j58B00.pdb
 199 196 0 0 0
SMALL
GASTEIGER

@<TRIPOS>ATOM
      1  N        119.6300  117.5300   -5.0800 N.3    16  PRO16      -0.2102
      2  CA       120.6960  118.0890   -5.9030 C.3    16  PRO16       0.1504
      3  C        120.5210  117.5860   -7.3210 C.2    16  PRO16       0.2575
      4  O        119.8740  116.5510   -7.5080 O.2    16  PRO16      -0.2718
      5  CB       121.9810  117.5490   -5.2530 C.3    16  PRO16       0.0282
      6  CG       121.5800  116.4160   -4.3650 C.3    16  PRO16       0.0208
      7  CD       120.0800  116.3660   -4.2830 C.3    16  PRO16       0.0893
      8  N        121.0530  118.3180   -8.3050 N.am   17  ILE17      -0.1980
      9  CA       121.0960  117.8320   -9.7070 C.3    17  ILE17       0.1595
     10  C        122.3700  117.0310   -9.9270 C.2    17  ILE17       0.2287
     11  O        123.4530  117.4630   -9.5470 O.2    17  ILE17      -0.2864
     12  CB       120.9700  118.9490  -10.7640 C.3    17  ILE17       0.0276
     13  CG1      121.9510  120.0970  -10.5050 C.3    17  ILE17       0.0022
     14  CG2      119.5430  119.4860  -10.7930 C.3    17  ILE17       0.0022
     15  CD1      122.1330  121.0000  -11.7040 C.3    17  ILE17       0.0001
     16  N        125.4590  114.6830  -11.6620 N.3    19  TYR19      -0.1241
     17  CA       126.4110  114.6990  -12.7830 C.3    19  TYR19       0.1605
     18  C        126.1460  113.4690  -13.7070 C.2    19  TYR19       0.2264
     19  O        125.8760  112.3710  -13.2200 O.2    19  TYR19      -0.2867
     20  CB       127.8890  114.8480  -12.2250 C.3    19  TYR19       0.0534
     21  CG       128.8150  115.6060  -13.1540 C.ar   19  TYR19      -0.0201
     22  CD1      128.4130  116.8060  -13.7200 C.ar   19  TYR19      -0.0009
     23  CD2      130.0920  115.1290  -13.4720 C.ar   19  TYR19      -0.0009
     24  CE1      129.2220  117.5020  -14.5950 C.ar   19  TYR19       0.0417
     25  CE2      130.9230  115.8230  -14.3440 C.ar   19  TYR19       0.0417
     26  CZ       130.4930  117.0170  -14.8920 C.ar   19  TYR19       0.1957
     27  OH       131.3140  117.7090  -15.7600 O.3    19  TYR19      -0.2866
     28  N        122.9110  117.4770  -14.1370 N.3    56  ASP56      -0.1239
     29  CA       123.9160  118.5030  -14.2250 C.3    56  ASP56       0.1674
     30  C        124.8320  118.0420  -15.3670 C.2    56  ASP56       0.2266
     31  O        125.6150  117.0980  -15.2110 O.2    56  ASP56      -0.2867
     32  CB       124.6570  118.5760  -12.8820 C.3    56  ASP56       0.1410
     33  CG       125.7740  119.5800  -12.8910 C.2    56  ASP56       0.3668
     34  OD1      125.7790  120.4920  -13.7330 O.co2  56  ASP56      -0.2456
     35  OD2      126.6750  119.4660  -12.0510 O.co2  56  ASP56      -0.2456
     36  N        126.7620  119.9850  -18.0690 N.3    58  HIS58      -0.1226
     37  CA       127.9230  120.6490  -18.6670 C.3    58  HIS58       0.1752
     38  C        129.2230  120.2120  -18.0060 C.2    58  HIS58       0.2597
     39  O        129.2220  119.4160  -17.0650 O.2    58  HIS58      -0.2718
     40  CB       127.7440  122.1680  -18.6090 C.3    58  HIS58       0.0759
     41  CG       126.6020  122.6640  -19.4390 C.ar   58  HIS58       0.0818
     42  ND1      125.6720  123.5690  -18.9760 N.ar   58  HIS58      -0.2268
     43  CD2      126.2340  122.3640  -20.7050 C.ar   58  HIS58       0.1154
     44  CE1      124.7870  123.8150  -19.9270 C.ar   58  HIS58       0.1986
     45  NE2      125.1100  123.1010  -20.9900 N.ar   58  HIS58      -0.2212
     46  N        130.3320  120.6900  -18.5530 N.am   59  GLY59      -0.1942
     47  CA       131.6320  120.4930  -17.9460 C.3    59  GLY59       0.2014
     48  C        132.6170  119.6080  -18.6820 C.2    59  GLY59       0.2639
     49  O        132.2900  118.8870  -19.6170 O.2    59  GLY59      -0.2714
     50  N        133.8330  119.6480  -18.1690 N.am   60  GLN60      -0.1963
     51  CA       134.9850  118.9710  -18.7480 C.3    60  GLN60       0.1733
     52  C        134.8430  117.4380  -18.7420 C.2    60  GLN60       0.2616
     53  O        135.0160  116.7570  -19.7690 O.2    60  GLN60      -0.2715
     54  CB       136.2200  119.3890  -17.9410 C.3    60  GLN60       0.0408
     55  CG       137.5460  118.9940  -18.5440 C.3    60  GLN60       0.0908
     56  CD       138.7410  119.6090  -17.8250 C.2    60  GLN60       0.2608
     57  OE1      138.6370  120.6190  -17.1170 O.2    60  GLN60      -0.2717
     58  NE2      139.8980  119.0130  -18.0390 N.am   60  GLN60      -0.0878
     59  N        134.5190  116.9110  -17.5640 N.am   61  LYS61      -0.1977
     60  CA       134.3930  115.4700  -17.3700 C.3    61  LYS61       0.1596
     61  C        133.2420  114.8550  -18.1970 C.2    61  LYS61       0.2287
     62  O        133.4180  113.7710  -18.7480 O.2    61  LYS61      -0.2864
     63  CB       134.4060  115.0900  -15.8830 C.3    61  LYS61       0.0298
     64  CG       135.8190  115.0030  -15.3180 C.3    61  LYS61       0.0038
     65  CD       135.8030  114.1810  -14.0400 C.3    61  LYS61       0.0206
     66  CE       137.1820  113.7320  -13.5900 C.3    61  LYS61       0.1093
     67  NZ       137.8880  114.7680  -12.7890 N.3    61  LYS61      -0.1314
     68  N        141.1970  120.8930  -12.7510 N.3   137  GLU137     -0.1245
     69  CA       140.5530  122.1720  -13.0560 C.3   137  GLU137      0.1567
     70  C        140.7530  123.1700  -11.8990 C.2   137  GLU137      0.2260
     71  O        139.8930  124.0230  -11.6700 O.2   137  GLU137     -0.2867
     72  CB       139.0480  121.9820  -13.3220 C.3   137  GLU137      0.0388
     73  CG       138.6460  120.6230  -13.9260 C.3   137  GLU137      0.1160
     74  CD       137.1630  120.5310  -14.3020 C.2   137  GLU137      0.3649
     75  OE1      136.4590  121.5570  -14.3550 O.co2 137  GLU137     -0.2457
     76  OE2      136.6820  119.4120  -14.5370 O.co2 137  GLU137     -0.2457
     77  N        137.1440  123.3090  -21.1550 N.3   220  LEU220     -0.1245
     78  CA       135.8680  122.6060  -21.0400 C.3   220  LEU220      0.1561
     79  C        135.3880  121.9240  -22.3260 C.2   220  LEU220      0.2260
     80  O        134.2340  121.4570  -22.3820 O.2   220  LEU220     -0.2867
     81  CB       134.7890  123.5900  -20.5800 C.3   220  LEU220      0.0270
     82  CG       135.0230  124.3260  -19.2600 C.3   220  LEU220      0.0019
     83  CD1      133.8910  125.3080  -19.0320 C.3   220  LEU220      0.0001
     84  CD2      135.1090  123.3350  -18.1110 C.3   220  LEU220      0.0001
     85  N        129.6280  124.0460  -22.1970 N.3   224  ALA224     -0.1245
     86  CA       129.2890  124.8990  -21.0600 C.3   224  ALA224      0.1562
     87  C        128.5230  126.1470  -21.5230 C.2   224  ALA224      0.2260
     88  O        128.3910  126.3960  -22.7200 O.2   224  ALA224     -0.2867
     89  CB       130.5540  125.2980  -20.3060 C.3   224  ALA224      0.0290
     90  N        130.8300  129.6850  -18.1790 N.3   235  VAL235     -0.1231
     91  CA       130.3890  129.7850  -16.7940 C.3   235  VAL235      0.1692
     92  C        130.6830  128.4740  -16.0930 C.2   235  VAL235      0.2592
     93  O        130.2910  127.3840  -16.5440 O.2   235  VAL235     -0.2718
     94  CB       128.8890  130.0550  -16.6890 C.3   235  VAL235      0.0266
     95  CG1      128.4580  130.1020  -15.2240 C.3   235  VAL235      0.0020
     96  CG2      128.5550  131.3580  -17.3990 C.3   235  VAL235      0.0020
     97  N        131.3930  128.5620  -14.9800 N.am  236  TYR236     -0.1962
     98  CA       131.8200  127.3400  -14.3490 C.3   236  TYR236      0.1771
     99  C        130.6470  126.6670  -13.5170 C.2   236  TYR236      0.2619
    100  O        129.4830  127.1470  -13.4790 O.2   236  TYR236     -0.2715
    101  CB       133.1670  127.5880  -13.6110 C.3   236  TYR236      0.0574
    102  CG       133.9200  126.3260  -13.1720 C.ar  236  TYR236     -0.0198
    103  CD1      133.9530  125.1650  -13.9630 C.ar  236  TYR236     -0.0009
    104  CD2      134.5390  126.2700  -11.9310 C.ar  236  TYR236     -0.0009
    105  CE1      134.5720  124.0010  -13.5240 C.ar  236  TYR236      0.0417
    106  CE2      135.1810  125.1130  -11.4870 C.ar  236  TYR236      0.0417
    107  CZ       135.2000  123.9840  -12.2820 C.ar  236  TYR236      0.1957
    108  OH       135.8510  122.8520  -11.8190 O.3   236  TYR236     -0.2866
    109  N        130.9430  125.5330  -12.8980 N.am  237  VAL237     -0.1963
    110  CA       129.9740  124.7380  -12.1300 C.3   237  VAL237      0.1727
    111  C        129.1580  125.4960  -11.0770 C.2   237  VAL237      0.2616
    112  O        128.0210  125.1260  -10.8020 O.2   237  VAL237     -0.2715
    113  CB       130.6720  123.5100  -11.4490 C.3   237  VAL237      0.0290
    114  CG1      131.6990  123.9340  -10.3920 C.3   237  VAL237      0.0023
    115  CG2      129.6470  122.5590  -10.8380 C.3   237  VAL237      0.0023
    116  N        129.7370  126.5300  -10.4740 N.am  238  TRP238     -0.1974
    117  CA       129.0950  127.1790   -9.3410 C.3   238  TRP238      0.1640
    118  C        127.8170  127.8510   -9.8430 C.2   238  TRP238      0.2290
    119  O        126.7220  127.4090   -9.4860 O.2   238  TRP238     -0.2864
    120  CB       130.0640  128.1460   -8.6500 C.3   238  TRP238      0.0576
    121  CG       131.4560  127.5160   -8.4250 C.ar  238  TRP238      0.0006
    122  CD1      132.6520  127.9590   -8.9320 C.ar  238  TRP238      0.0946
    123  CD2      131.7510  126.3010   -7.7280 C.ar  238  TRP238      0.0152
    124  NE1      133.6700  127.1190   -8.5560 N.ar  238  TRP238     -0.2442
    125  CE2      133.1470  126.0910   -7.8160 C.ar  238  TRP238      0.0810
    126  CE3      130.9800  125.3810   -7.0110 C.ar  238  TRP238      0.0012
    127  CZ2      133.7850  124.9820   -7.2190 C.ar  238  TRP238      0.0191
    128  CZ3      131.6210  124.2780   -6.4170 C.ar  238  TRP238      0.0001
    129  CH2      133.0000  124.0930   -6.5290 C.ar  238  TRP238      0.0015
    130  N        126.3560  127.7320  -12.8500 N.3   240  ASP240     -0.1225
    131  CA       125.4770  126.9000  -13.6730 C.3   240  ASP240      0.1805
    132  C        124.5520  125.9960  -12.8480 C.2   240  ASP240      0.2598
    133  O        123.3210  126.1430  -12.8960 O.2   240  ASP240     -0.2718
    134  CB       126.3360  126.1010  -14.6810 C.3   240  ASP240      0.1424
    135  CG       125.5260  125.2230  -15.6390 C.2   240  ASP240      0.3668
    136  OD1      124.2710  125.2220  -15.5810 O.co2 240  ASP240     -0.2456
    137  OD2      126.1670  124.5450  -16.4810 O.co2 240  ASP240     -0.2456
    138  N        125.1420  125.0810  -12.0910 N.am  241  ALA241     -0.1966
    139  CA       124.3750  124.0220  -11.4330 C.3   241  ALA241      0.1728
    140  C        123.4690  124.5320  -10.3090 C.2   241  ALA241      0.2616
    141  O        122.2650  124.2620  -10.3150 O.2   241  ALA241     -0.2715
    142  CB       125.3080  122.9300  -10.9080 C.3   241  ALA241      0.0334
    143  N        124.0410  125.2750   -9.3640 N.am  242  LEU242     -0.1977
    144  CA       123.2700  125.8370   -8.2540 C.3   242  LEU242      0.1596
    145  C        122.0510  126.6180   -8.7340 C.2   242  LEU242      0.2287
    146  O        120.9830  126.5920   -8.1100 O.2   242  LEU242     -0.2864
    147  CB       124.1570  126.7240   -7.3740 C.3   242  LEU242      0.0297
    148  CG       125.1700  125.9740   -6.4870 C.3   242  LEU242      0.0022
    149  CD1      126.2290  126.9100   -5.9070 C.3   242  LEU242      0.0001
    150  CD2      124.4540  125.2360   -5.3560 C.3   242  LEU242      0.0001
    151  N        120.0170  125.9900  -11.0460 N.3   244  ASN244     -0.1225
    152  CA       118.8480  125.1540  -11.3760 C.3   244  ASN244      0.1785
    153  C        117.6640  125.3900  -10.4320 C.2   244  ASN244      0.2597
    154  O        116.5000  125.3530  -10.8630 O.2   244  ASN244     -0.2718
    155  CB       119.1940  123.6490  -11.4150 C.3   244  ASN244      0.1169
    156  CG       119.0140  122.9640  -10.0720 C.2   244  ASN244      0.2627
    157  OD1      117.9290  122.4710   -9.7560 O.2   244  ASN244     -0.2716
    158  ND2      120.0700  122.9440   -9.2670 N.am  244  ASN244     -0.0877
    159  N        117.9680  125.6360   -9.1570 N.am  245  TYR245     -0.1976
    160  CA       116.9330  125.8560   -8.1560 C.3   245  TYR245      0.1639
    161  C        116.1170  127.1030   -8.4850 C.2   245  TYR245      0.2290
    162  O        114.8900  127.1060   -8.3620 O.2   245  TYR245     -0.2864
    163  CB       117.5450  125.9770   -6.7550 C.3   245  TYR245      0.0560
    164  CG       118.3810  124.7890   -6.3070 C.ar  245  TYR245     -0.0198
    165  CD1      117.9290  123.4770   -6.4610 C.ar  245  TYR245     -0.0009
    166  CD2      119.6070  124.9790   -5.6880 C.ar  245  TYR245     -0.0009
    167  CE1      118.6850  122.3920   -6.0190 C.ar  245  TYR245      0.0417
    168  CE2      120.3650  123.8970   -5.2390 C.ar  245  TYR245      0.0417
    169  CZ       119.9040  122.6070   -5.4110 C.ar  245  TYR245      0.1957
    170  OH       120.6780  121.5690   -4.9820 O.3   245  TYR245     -0.2866
    171  N        128.5180  118.1940   -0.6850 N.3   283  ILE283     -0.1245
    172  CA       128.2940  119.4590   -1.4060 C.3   283  ILE283      0.1561
    173  C        127.7480  120.5730   -0.5090 C.2   283  ILE283      0.2260
    174  O        127.1700  121.5430   -0.9880 O.2   283  ILE283     -0.2867
    175  CB       127.4250  119.2500   -2.6660 C.3   283  ILE283      0.0252
    176  CG1      126.0030  118.8070   -2.3160 C.3   283  ILE283      0.0019
    177  CG2      128.0840  118.2060   -3.5540 C.3   283  ILE283      0.0019
    178  CD1      125.1480  118.4650   -3.5200 C.3   283  ILE283      0.0001
    179  N        129.0210  124.2930   -1.0300 N.3   286  PHE286     -0.1227
    180  CA       128.4480  124.9610   -2.2170 C.3   286  PHE286      0.1736
    181  C        127.0620  125.5170   -1.9440 C.2   286  PHE286      0.2595
    182  O        126.7100  126.5880   -2.4370 O.2   286  PHE286     -0.2718
    183  CB       128.4200  124.0000   -3.4130 C.3   286  PHE286      0.0547
    184  CG       129.6940  123.1840   -3.5450 C.ar  286  PHE286     -0.0202
    185  CD1      130.9340  123.7470   -3.2430 C.ar  286  PHE286     -0.0042
    186  CD2      129.6510  121.8530   -3.9260 C.ar  286  PHE286     -0.0042
    187  CE1      132.1060  123.0160   -3.3460 C.ar  286  PHE286     -0.0003
    188  CE2      130.8220  121.1180   -4.0310 C.ar  286  PHE286     -0.0003
    189  CZ       132.0480  121.7030   -3.7440 C.ar  286  PHE286     -0.0000
    190  N        126.2960  124.7780   -1.1510 N.am  287  HIS287     -0.1975
    191  CA       124.9220  125.1490   -0.8160 C.3   287  HIS287      0.1656
    192  C        124.7960  126.0850    0.3900 C.2   287  HIS287      0.2291
    193  O        123.8850  126.8960    0.4410 O.2   287  HIS287     -0.2864
    194  CB       124.0780  123.8850   -0.6120 C.3   287  HIS287      0.0771
    195  CG       123.8090  123.1450   -1.8830 C.ar  287  HIS287      0.0820
    196  ND1      124.7370  122.3130   -2.4690 N.ar  287  HIS287     -0.2267
    197  CD2      122.7360  123.1560   -2.7100 C.ar  287  HIS287      0.1154
    198  CE1      124.2380  121.8230   -3.5900 C.ar  287  HIS287      0.1986
    199  NE2      123.0260  122.3200   -3.7610 N.ar  287  HIS287     -0.2212
@<TRIPOS>BOND
     1    88    87    2
     2    80    79    2
     3    79    78    1
     4    85    86    1
     5    87    86    1
     6    77    78    1
     7    86    89    1
     8    78    81    1
     9    45    43   ar
    10    45    44   ar
    11    43    41   ar
    12    81    82    1
    13    44    42   ar
    14    53    52    2
    15    49    48    2
    16    41    42   ar
    17    41    40    1
    18    82    83    1
    19    82    84    1
    20    62    61    2
    21    51    52    1
    22    51    50    1
    23    51    54    1
    24    52    59   am
    25    48    50   am
    26    48    47    1
    27    37    40    1
    28    37    36    1
    29    37    38    1
    30    46    38   am
    31    46    47    1
    32    55    54    1
    33    55    56    1
    34    61    60    1
    35    90    91    1
    36    58    56   am
    37    38    39    2
    38    56    57    2
    39    59    60    1
    40    96    94    1
    41    60    63    1
    42    91    94    1
    43    91    92    1
    44    94    95    1
    45    93    92    2
    46   137   135   ar
    47    92    97   am
    48    63    64    1
    49    27    26    1
    50   135   136   ar
    51   135   134    1
    52    30    31    2
    53    30    29    1
    54    64    65    1
    55    97    98    1
    56    26    24   ar
    57    26    25   ar
    58   134   131    1
    59    24    22   ar
    60    76    74   ar
    61    75    74   ar
    62    98   101    1
    63    98    99    1
    64    25    23   ar
    65    74    73    1
    66    29    28    1
    67    29    32    1
    68    65    66    1
    69   103   105   ar
    70   103   102   ar
    71    73    72    1
    72    34    33   ar
    73    22    21   ar
    74    18    19    2
    75    18    17    1
    76   131   130    1
    77   131   132    1
    78   101   102    1
    79    66    67    1
    80   105   107   ar
    81    99   100    2
    82    99   109   am
    83    23    21   ar
    84    72    69    1
    85   102   104   ar
    86    21    20    1
    87    69    68    1
    88    69    70    1
    89   109   110    1
    90   133   132    2
    91    33    32    1
    92    33    35   ar
    93   132   138   am
    94    17    20    1
    95    17    16    1
    96   107   108    1
    97   107   106   ar
    98   110   113    1
    99   110   111    1
   100   138   139    1
   101   104   106   ar
   102    70    71    2
   103    15    13    1
   104   113   115    1
   105   113   114    1
   106   139   142    1
   107   139   140    1
   108   155   152    1
   109   155   156    1
   110   152   151    1
   111   152   153    1
   112   111   112    2
   113   111   116   am
   114   154   153    2
   115    14    12    1
   116    12    13    1
   117    12     9    1
   118   116   117    1
   119   153   159   am
   120   141   140    2
   121   140   143   am
   122   156   157    2
   123   156   158   am
   124    10     9    1
   125    10    11    2
   126   118   119    2
   127   118   117    1
   128     9     8    1
   129   143   144    1
   130   117   120    1
   131   159   160    1
   132   122   124   ar
   133   122   121   ar
   134   145   144    1
   135   145   146    2
   136   120   121    1
   137   124   125   ar
   138   161   162    2
   139   161   160    1
   140   121   123   ar
   141     8     3   am
   142   144   147    1
   143   160   163    1
   144   125   123   ar
   145   125   127   ar
   146   123   126   ar
   147     4     3    2
   148   147   148    1
   149     3     2    1
   150   127   129   ar
   151   126   128   ar
   152   163   164    1
   153   129   128   ar
   154   148   149    1
   155   148   150    1
   156   165   164   ar
   157   165   167   ar
   158   164   166   ar
   159   167   169   ar
   160     2     5    1
   161     2     1    1
   162   166   168   ar
   163   169   168   ar
   164   169   170    1
   165     5     6    1
   166     1     7    1
   167     6     7    1
   168   188   186   ar
   169   188   189   ar
   170   186   184   ar
   171   199   198   ar
   172   199   197   ar
   173   189   187   ar
   174   198   196   ar
   175   177   175    1
   176   184   183    1
   177   184   185   ar
   178   178   176    1
   179   183   180    1
   180   187   185   ar
   181   197   195   ar
   182   175   176    1
   183   175   172    1
   184   196   195   ar
   185   182   181    2
   186   180   181    1
   187   180   179    1
   188   181   190   am
   189   195   194    1
   190   172   171    1
   191   172   173    1
   192   190   191    1
   193   174   173    2
   194   191   194    1
   195   191   192    1
   196   192   193    2
