@<TRIPOS>MOLECULE
tmp/5j59B00.pdb
 199 196 0 0 0
SMALL
GASTEIGER

@<TRIPOS>ATOM
      1  N        -33.0820   11.5510    5.1400 N.3    16  PRO16      -0.2102
      2  CA       -34.1570   12.0770    5.9840 C.3    16  PRO16       0.1504
      3  C        -33.8850   11.6770    7.4270 C.2    16  PRO16       0.2575
      4  O        -33.0950   10.7500    7.6700 O.2    16  PRO16      -0.2718
      5  CB       -35.4150   11.3650    5.4580 C.3    16  PRO16       0.0282
      6  CG       -35.0030   10.6980    4.1760 C.3    16  PRO16       0.0208
      7  CD       -33.5410   10.4120    4.3330 C.3    16  PRO16       0.0893
      8  N        -34.5050   12.3720    8.3700 N.am   17  ILE17      -0.1980
      9  CA       -34.5120   11.9120    9.7570 C.3    17  ILE17       0.1595
     10  C        -35.7820   11.0900    9.9330 C.2    17  ILE17       0.2287
     11  O        -36.8470   11.4800    9.4670 O.2    17  ILE17      -0.2864
     12  CB       -34.3500   13.0540   10.7910 C.3    17  ILE17       0.0276
     13  CG1      -35.4160   14.1420   10.6240 C.3    17  ILE17       0.0022
     14  CG2      -32.9540   13.6600   10.6540 C.3    17  ILE17       0.0022
     15  CD1      -35.4900   15.0680   11.8250 C.3    17  ILE17       0.0001
     16  N        -38.8400    8.7890   11.7120 N.3    19  TYR19      -0.1241
     17  CA       -39.7740    8.8000   12.8350 C.3    19  TYR19       0.1605
     18  C        -39.5790    7.5840   13.7300 C.2    19  TYR19       0.2264
     19  O        -39.4790    6.4980   13.2560 O.2    19  TYR19      -0.2867
     20  CB       -41.1980    8.9390   12.3450 C.3    19  TYR19       0.0534
     21  CG       -42.0710    9.7150   13.2790 C.ar   19  TYR19      -0.0201
     22  CD1      -41.5800   10.7680   13.9940 C.ar   19  TYR19      -0.0009
     23  CD2      -43.3840    9.3930   13.4360 C.ar   19  TYR19      -0.0009
     24  CE1      -42.3730   11.4650   14.8470 C.ar   19  TYR19       0.0417
     25  CE2      -44.1840   10.0880   14.2840 C.ar   19  TYR19       0.0417
     26  CZ       -43.6680   11.1170   14.9840 C.ar   19  TYR19       0.1957
     27  OH       -44.4720   11.7950   15.8190 O.3    19  TYR19      -0.2866
     28  N        -36.3010   11.6280   14.0980 N.3    56  ASP56      -0.1239
     29  CA       -37.3500   12.6050   14.2880 C.3    56  ASP56       0.1674
     30  C        -38.1930   12.0850   15.4810 C.2    56  ASP56       0.2266
     31  O        -38.8690   11.0580   15.3690 O.2    56  ASP56      -0.2867
     32  CB       -38.1660   12.6630   12.9840 C.3    56  ASP56       0.1410
     33  CG       -39.2290   13.7340   12.9890 C.2    56  ASP56       0.3668
     34  OD1      -39.3690   14.4760   13.9760 O.co2  56  ASP56      -0.2456
     35  OD2      -39.9140   13.8690   11.9610 O.co2  56  ASP56      -0.2456
     36  N        -40.2960   13.9890   18.0780 N.3    58  HIS58      -0.1226
     37  CA       -41.4500   14.6610   18.6830 C.3    58  HIS58       0.1752
     38  C        -42.7770   14.2510   18.0450 C.2    58  HIS58       0.2597
     39  O        -42.8170   13.5290   17.0460 O.2    58  HIS58      -0.2718
     40  CB       -41.2580   16.1760   18.6190 C.3    58  HIS58       0.0759
     41  CG       -40.1010   16.6680   19.4290 C.ar   58  HIS58       0.0818
     42  ND1      -39.1280   17.5070   18.9270 N.ar   58  HIS58      -0.2268
     43  CD2      -39.7500   16.4150   20.7100 C.ar   58  HIS58       0.1154
     44  CE1      -38.2410   17.7590   19.8710 C.ar   58  HIS58       0.1986
     45  NE2      -38.5950   17.1030   20.9600 N.ar   58  HIS58      -0.2212
     46  N        -43.8690   14.6790   18.6670 N.am   59  GLY59      -0.1942
     47  CA       -45.1960   14.5530   18.0780 C.3    59  GLY59       0.2014
     48  C        -46.1440   13.6010   18.7650 C.2    59  GLY59       0.2639
     49  O        -45.7620   12.8100   19.6280 O.2    59  GLY59      -0.2714
     50  N        -47.3900   13.6750   18.3170 N.am   60  GLN60      -0.1963
     51  CA       -48.5040   12.9430   18.9070 C.3    60  GLN60       0.1733
     52  C        -48.3160   11.4250   18.8620 C.2    60  GLN60       0.2616
     53  O        -48.5080   10.7330   19.8680 O.2    60  GLN60      -0.2715
     54  CB       -49.7790   13.3260   18.1600 C.3    60  GLN60       0.0408
     55  CG       -51.0870   12.8590   18.7700 C.3    60  GLN60       0.0908
     56  CD       -52.2320   13.2730   17.8380 C.2    60  GLN60       0.2608
     57  OE1      -52.4250   14.4590   17.5880 O.2    60  GLN60      -0.2717
     58  NE2      -52.9250   12.3040   17.2430 N.am   60  GLN60      -0.0878
     59  N        -47.9570   10.9200   17.6810 N.am   61  LYS61      -0.1977
     60  CA       -47.8270    9.4770   17.4670 C.3    61  LYS61       0.1596
     61  C        -46.6760    8.8690   18.2680 C.2    61  LYS61       0.2287
     62  O        -46.7850    7.7260   18.7040 O.2    61  LYS61      -0.2864
     63  CB       -47.7930    9.1140   15.9880 C.3    61  LYS61       0.0298
     64  CG       -49.0490    9.4550   15.1830 C.3    61  LYS61       0.0038
     65  CD       -50.3770    8.9410   15.7540 C.3    61  LYS61       0.0206
     66  CE       -51.6520    9.3700   14.9250 C.3    61  LYS61       0.1093
     67  NZ       -51.6670   10.7530   14.3430 N.3    61  LYS61      -0.1314
     68  N        -54.6090   15.2610   12.8140 N.3   137  GLU137     -0.1245
     69  CA       -53.9520   16.5380   13.1160 C.3   137  GLU137      0.1567
     70  C        -54.1390   17.5200   11.9630 C.2   137  GLU137      0.2260
     71  O        -53.2120   18.2350   11.5970 O.2   137  GLU137     -0.2867
     72  CB       -52.4480   16.3390   13.3890 C.3   137  GLU137      0.0388
     73  CG       -52.0900   14.9770   14.0410 C.3   137  GLU137      0.1160
     74  CD       -50.6720   14.8990   14.6190 C.2   137  GLU137      0.3649
     75  OE1      -49.9930   13.8390   14.4730 O.co2 137  GLU137     -0.2457
     76  OE2      -50.2320   15.8920   15.2270 O.co2 137  GLU137     -0.2457
     77  N        -50.5520   17.4730   21.1060 N.3   222  LEU222     -0.1245
     78  CA       -49.2720   16.7560   20.9920 C.3   222  LEU222      0.1561
     79  C        -48.7950   16.0870   22.2910 C.2   222  LEU222      0.2260
     80  O        -47.6440   15.6220   22.3720 O.2   222  LEU222     -0.2867
     81  CB       -48.1990   17.7390   20.5070 C.3   222  LEU222      0.0270
     82  CG       -48.4980   18.4890   19.2050 C.3   222  LEU222      0.0019
     83  CD1      -47.3560   19.4280   18.8710 C.3   222  LEU222      0.0001
     84  CD2      -48.7280   17.5050   18.0700 C.3   222  LEU222      0.0001
     85  N        -43.2260   18.1310   22.1440 N.3   226  ALA226     -0.1245
     86  CA       -42.8280   18.9440   21.0050 C.3   226  ALA226      0.1562
     87  C        -42.0620   20.1700   21.5070 C.2   226  ALA226      0.2260
     88  O        -41.9590   20.3950   22.7180 O.2   226  ALA226     -0.2867
     89  CB       -44.0530   19.3640   20.2180 C.3   226  ALA226      0.0290
     90  N        -44.2930   23.8370   18.1170 N.3   237  VAL237     -0.1231
     91  CA       -43.8430   23.8860   16.7350 C.3   237  VAL237      0.1692
     92  C        -44.2170   22.5630   16.0980 C.2   237  VAL237      0.2592
     93  O        -43.9000   21.4880   16.6120 O.2   237  VAL237     -0.2718
     94  CB       -42.3220   24.0980   16.6210 C.3   237  VAL237      0.0266
     95  CG1      -41.8710   24.0980   15.1590 C.3   237  VAL237      0.0020
     96  CG2      -41.9270   25.3970   17.3070 C.3   237  VAL237      0.0020
     97  N        -44.9170   22.6300   14.9750 N.am  238  TYR238     -0.1962
     98  CA       -45.3350   21.3980   14.3450 C.3   238  TYR238      0.1771
     99  C        -44.1510   20.7260   13.5370 C.2   238  TYR238      0.2619
    100  O        -42.9860   21.1890   13.5560 O.2   238  TYR238     -0.2715
    101  CB       -46.6250   21.6420   13.5380 C.3   238  TYR238      0.0574
    102  CG       -47.3610   20.3830   13.0900 C.ar  238  TYR238     -0.0198
    103  CD1      -47.4660   19.2520   13.9180 C.ar  238  TYR238     -0.0009
    104  CD2      -47.9260   20.3030   11.8170 C.ar  238  TYR238     -0.0009
    105  CE1      -48.0950   18.0920   13.4870 C.ar  238  TYR238      0.0417
    106  CE2      -48.5740   19.1490   11.3780 C.ar  238  TYR238      0.0417
    107  CZ       -48.6540   18.0470   12.2110 C.ar  238  TYR238      0.1957
    108  OH       -49.2920   16.9030   11.7730 O.3   238  TYR238     -0.2866
    109  N        -44.4240   19.6090   12.8700 N.am  239  VAL239     -0.1963
    110  CA       -43.4000   18.8570   12.1400 C.3   239  VAL239      0.1727
    111  C        -42.5530   19.6710   11.1430 C.2   239  VAL239      0.2616
    112  O        -41.3680   19.3940   10.9720 O.2   239  VAL239     -0.2715
    113  CB       -44.0180   17.6180   11.4380 C.3   239  VAL239      0.0290
    114  CG1      -44.9850   18.0160   10.3270 C.3   239  VAL239      0.0023
    115  CG2      -42.9290   16.6950   10.9010 C.3   239  VAL239      0.0023
    116  N        -43.1350   20.6830   10.5080 N.am  240  TRP240     -0.1974
    117  CA       -42.4960   21.3120    9.3650 C.3   240  TRP240      0.1640
    118  C        -41.2130   22.0170    9.8000 C.2   240  TRP240      0.2290
    119  O        -40.1340   21.6700    9.3320 O.2   240  TRP240     -0.2864
    120  CB       -43.4720   22.2640    8.6610 C.3   240  TRP240      0.0576
    121  CG       -44.8170   21.6230    8.3710 C.ar  240  TRP240      0.0006
    122  CD1      -46.0510   22.0400    8.8170 C.ar  240  TRP240      0.0946
    123  CD2      -45.0470   20.4240    7.6350 C.ar  240  TRP240      0.0152
    124  NE1      -47.0290   21.1780    8.3770 N.ar  240  TRP240     -0.2442
    125  CE2      -46.4420   20.1770    7.6520 C.ar  240  TRP240      0.0810
    126  CE3      -44.2110   19.5360    6.9530 C.ar  240  TRP240      0.0012
    127  CZ2      -47.0180   19.0660    7.0100 C.ar  240  TRP240      0.0191
    128  CZ3      -44.7810   18.4330    6.3140 C.ar  240  TRP240      0.0001
    129  CH2      -46.1690   18.2060    6.3500 C.ar  240  TRP240      0.0015
    130  N        -39.7930   21.8530   12.8590 N.3   242  ASP242     -0.1225
    131  CA       -38.9250   20.9950   13.6720 C.3   242  ASP242      0.1805
    132  C        -38.0250   20.0620   12.8450 C.2   242  ASP242      0.2598
    133  O        -36.7950   20.1620   12.9440 O.2   242  ASP242     -0.2718
    134  CB       -39.7780   20.2230   14.6940 C.3   242  ASP242      0.1424
    135  CG       -38.9650   19.3320   15.6420 C.2   242  ASP242      0.3668
    136  OD1      -37.7150   19.2560   15.5480 O.co2 242  ASP242     -0.2456
    137  OD2      -39.6140   18.7220   16.5280 O.co2 242  ASP242     -0.2456
    138  N        -38.6160   19.2030   12.0140 N.am  243  ALA243     -0.1966
    139  CA       -37.8650   18.1350   11.3380 C.3   243  ALA243      0.1728
    140  C        -36.9220   18.6590   10.2360 C.2   243  ALA243      0.2616
    141  O        -35.7410   18.3120   10.2220 O.2   243  ALA243     -0.2715
    142  CB       -38.8150   17.0810   10.7660 C.3   243  ALA243      0.0334
    143  N        -37.4340   19.5020    9.3400 N.am  244  LEU244     -0.1977
    144  CA       -36.6220   20.0380    8.2250 C.3   244  LEU244      0.1596
    145  C        -35.4000   20.8150    8.7090 C.2   244  LEU244      0.2287
    146  O        -34.3220   20.7490    8.1110 O.2   244  LEU244     -0.2864
    147  CB       -37.4720   20.9150    7.3120 C.3   244  LEU244      0.0297
    148  CG       -38.5010   20.1700    6.4510 C.3   244  LEU244      0.0022
    149  CD1      -39.5310   21.1360    5.8820 C.3   244  LEU244      0.0001
    150  CD2      -37.8140   19.4090    5.3230 C.3   244  LEU244      0.0001
    151  N        -33.4130   20.1420   11.0380 N.3   246  ASN246     -0.1225
    152  CA       -32.2650   19.2910   11.3900 C.3   246  ASN246      0.1785
    153  C        -31.0560   19.4950   10.4540 C.2   246  ASN246      0.2597
    154  O        -29.9050   19.4120   10.9030 O.2   246  ASN246     -0.2718
    155  CB       -32.6510   17.8020   11.4450 C.3   246  ASN246      0.1169
    156  CG       -32.4530   17.0860   10.1100 C.2   246  ASN246      0.2627
    157  OD1      -31.3990   16.4760    9.8720 O.2   246  ASN246     -0.2716
    158  ND2      -33.4450   17.1710    9.2290 N.am  246  ASN246     -0.0877
    159  N        -31.3290   19.7680    9.1770 N.am  247  TYR247     -0.1976
    160  CA       -30.2770   20.0010    8.1890 C.3   247  TYR247      0.1639
    161  C        -29.4660   21.2560    8.5130 C.2   247  TYR247      0.2290
    162  O        -28.2420   21.2670    8.3580 O.2   247  TYR247     -0.2864
    163  CB       -30.8660   20.1230    6.7810 C.3   247  TYR247      0.0560
    164  CG       -31.6960   18.9380    6.3250 C.ar  247  TYR247     -0.0198
    165  CD1      -31.2360   17.6290    6.4780 C.ar  247  TYR247     -0.0009
    166  CD2      -32.9330   19.1270    5.7150 C.ar  247  TYR247     -0.0009
    167  CE1      -31.9890   16.5440    6.0490 C.ar  247  TYR247      0.0417
    168  CE2      -33.6910   18.0480    5.2790 C.ar  247  TYR247      0.0417
    169  CZ       -33.2160   16.7600    5.4510 C.ar  247  TYR247      0.1957
    170  OH       -33.9840   15.7050    5.0140 O.3   247  TYR247     -0.2866
    171  N        -41.9370   12.2710    0.6100 N.3   285  ILE285     -0.1245
    172  CA       -41.6820   13.5220    1.3250 C.3   285  ILE285      0.1561
    173  C        -41.1360   14.6260    0.4110 C.2   285  ILE285      0.2260
    174  O        -40.5830   15.6170    0.8890 O.2   285  ILE285     -0.2867
    175  CB       -40.7990   13.2860    2.5740 C.3   285  ILE285      0.0252
    176  CG1      -39.3930   12.8000    2.2010 C.3   285  ILE285      0.0019
    177  CG2      -41.4810   12.2750    3.4880 C.3   285  ILE285      0.0019
    178  CD1      -38.5000   12.5610    3.3960 C.3   285  ILE285      0.0001
    179  N        -42.3440   18.3720    0.8900 N.3   288  PHE288     -0.1227
    180  CA       -41.8000   19.0030    2.0940 C.3   288  PHE288      0.1736
    181  C        -40.4160   19.5650    1.8290 C.2   288  PHE288      0.2595
    182  O        -40.0990   20.6650    2.2760 O.2   288  PHE288     -0.2718
    183  CB       -41.8070   17.9930    3.2480 C.3   288  PHE288      0.0547
    184  CG       -43.1460   17.2740    3.3850 C.ar  288  PHE288     -0.0202
    185  CD1      -44.3400   17.8680    2.9550 C.ar  288  PHE288     -0.0042
    186  CD2      -43.2070   15.9900    3.8990 C.ar  288  PHE288     -0.0042
    187  CE1      -45.5540   17.2030    3.0570 C.ar  288  PHE288     -0.0003
    188  CE2      -44.4210   15.3180    4.0050 C.ar  288  PHE288     -0.0003
    189  CZ       -45.5990   15.9290    3.5880 C.ar  288  PHE288     -0.0000
    190  N        -39.6090   18.8030    1.0970 N.am  289  HIS289     -0.1975
    191  CA       -38.2400   19.1840    0.7850 C.3   289  HIS289      0.1656
    192  C        -38.0920   20.1160   -0.4100 C.2   289  HIS289      0.2291
    193  O        -37.1490   20.8980   -0.4560 O.2   289  HIS289     -0.2864
    194  CB       -37.3800   17.9370    0.5780 C.3   289  HIS289      0.0771
    195  CG       -37.0750   17.2200    1.8480 C.ar  289  HIS289      0.0820
    196  ND1      -38.0140   16.4630    2.5140 N.ar  289  HIS289     -0.2267
    197  CD2      -35.9540   17.1850    2.6060 C.ar  289  HIS289      0.1154
    198  CE1      -37.4780   15.9750    3.6200 C.ar  289  HIS289      0.1986
    199  NE2      -36.2290   16.3980    3.6980 N.ar  289  HIS289     -0.2212
@<TRIPOS>BOND
     1   193   192    2
     2   192   191    1
     3   173   174    2
     4   173   172    1
     5   194   191    1
     6   194   195    1
     7   171   172    1
     8   191   190    1
     9   179   180    1
    10   190   181   am
    11   172   175    1
    12   181   180    1
    13   181   182    2
    14   195   196   ar
    15   195   197   ar
    16   180   183    1
    17   176   175    1
    18   176   178    1
    19   196   198   ar
    20   175   177    1
    21   197   199   ar
    22   185   187   ar
    23   185   184   ar
    24   187   189   ar
    25   183   184    1
    26   184   186   ar
    27   189   188   ar
    28   198   199   ar
    29   186   188   ar
    30     6     7    1
    31     6     5    1
    32     7     1    1
    33   170   169    1
    34     1     2    1
    35   168   169   ar
    36   168   166   ar
    37   150   148    1
    38   169   167   ar
    39     5     2    1
    40   166   164   ar
    41   149   148    1
    42     2     3    1
    43   167   165   ar
    44   128   129   ar
    45   128   126   ar
    46   164   165   ar
    47   164   163    1
    48   129   127   ar
    49   148   147    1
    50   163   160    1
    51   126   123   ar
    52   127   125   ar
    53   147   144    1
    54     3     4    2
    55     3     8   am
    56   123   125   ar
    57   123   121   ar
    58   125   124   ar
    59   146   145    2
    60   160   161    1
    61   160   159    1
    62   144   145    1
    63   144   143    1
    64   162   161    2
    65     8     9    1
    66   121   120    1
    67   121   122   ar
    68   124   122   ar
    69   120   117    1
    70   159   153   am
    71   158   156   am
    72   119   118    2
    73   143   140   am
    74   117   118    1
    75   117   116    1
    76    11    10    2
    77     9    10    1
    78     9    12    1
    79   157   156    2
    80   156   155    1
    81   141   140    2
    82   140   139    1
    83   114   113    1
    84   153   154    2
    85   153   152    1
    86   116   111   am
    87    13    12    1
    88    13    15    1
    89    14    12    1
    90   142   139    1
    91   115   113    1
    92   112   111    2
    93   151   152    1
    94   111   110    1
    95   139   138    1
    96   106   104   ar
    97   106   107   ar
    98   152   155    1
    99   113   110    1
   100    71    70    2
   101    16    17    1
   102   108   107    1
   103   104   102   ar
   104    35    33   ar
   105    70    69    1
   106   138   132   am
   107   110   109    1
   108   107   105   ar
   109    20    17    1
   110    20    21    1
   111    68    69    1
   112    17    18    1
   113   132   133    2
   114   132   131    1
   115   130   131    1
   116   109    99   am
   117    32    33    1
   118    32    29    1
   119    33    34   ar
   120   102   101    1
   121   102   103   ar
   122    69    72    1
   123    19    18    2
   124    21    23   ar
   125    21    22   ar
   126    72    73    1
   127    23    25   ar
   128   105   103   ar
   129    99   100    2
   130    99    98    1
   131   101    98    1
   132   131   134    1
   133    22    24   ar
   134    73    74    1
   135    28    29    1
   136    25    26   ar
   137    29    30    1
   138    67    66    1
   139    98    97    1
   140    75    74   ar
   141    74    76   ar
   142   134   135    1
   143    24    26   ar
   144    66    65    1
   145    97    92   am
   146    26    27    1
   147    95    94    1
   148    64    65    1
   149    64    63    1
   150    31    30    2
   151   136   135   ar
   152   135   137   ar
   153    63    60    1
   154    92    93    2
   155    92    91    1
   156    94    91    1
   157    94    96    1
   158    91    90    1
   159    39    38    2
   160    58    56   am
   161    60    59    1
   162    60    61    1
   163    57    56    2
   164    59    52   am
   165    56    55    1
   166    38    46   am
   167    38    37    1
   168    84    82    1
   169    47    46    1
   170    47    48    1
   171    36    37    1
   172    54    55    1
   173    54    51    1
   174    61    62    2
   175    50    48   am
   176    50    51    1
   177    40    37    1
   178    40    41    1
   179    48    49    2
   180    52    51    1
   181    52    53    2
   182    83    82    1
   183    42    41   ar
   184    42    44   ar
   185    82    81    1
   186    41    43   ar
   187    44    45   ar
   188    89    86    1
   189    81    78    1
   190    43    45   ar
   191    78    77    1
   192    78    79    1
   193    86    87    1
   194    86    85    1
   195    87    88    2
   196    79    80    2
