@<TRIPOS>MOLECULE
tmp/5j59A00.pdb
 138 137 0 0 0
SMALL
GASTEIGER

@<TRIPOS>ATOM
      1  N         -8.8590   -9.1460  -50.9630 N.3    10  PRO10      -0.2102
      2  CA        -8.2300  -10.1450  -51.8080 C.3    10  PRO10       0.1504
      3  C         -8.6720   -9.9440  -53.2510 C.2    10  PRO10       0.2576
      4  O         -9.6850   -9.2790  -53.5070 O.2    10  PRO10      -0.2718
      5  CB        -8.7910  -11.4760  -51.2740 C.3    10  PRO10       0.0282
      6  CG        -9.4980  -11.1340  -50.0040 C.3    10  PRO10       0.0208
      7  CD        -9.9570   -9.7240  -50.1780 C.3    10  PRO10       0.0893
      8  N         -7.9020  -10.4860  -54.1830 N.am   11  ILE11      -0.1966
      9  CA        -8.3600  -10.5760  -55.5600 C.3    11  ILE11       0.1727
     10  C         -9.0120  -11.9420  -55.6930 C.2    11  ILE11       0.2616
     11  O         -8.4900  -12.9300  -55.1860 O.2    11  ILE11      -0.2715
     12  CB        -7.2500  -10.2970  -56.5920 C.3    11  ILE11       0.0290
     13  CG1       -6.0330  -11.2090  -56.4090 C.3    11  ILE11       0.0022
     14  CG2       -6.8290   -8.8370  -56.4940 C.3    11  ILE11       0.0023
     15  CD1       -5.1100  -11.2000  -57.6080 C.3    11  ILE11       0.0001
     16  N        -10.1850  -11.9730  -56.3120 N.am   12  TYR12      -0.1960
     17  CA       -11.0660  -13.1400  -56.2490 C.3    12  TYR12       0.1771
     18  C        -10.8980  -13.9970  -57.4730 C.2    12  TYR12       0.2619
     19  O        -10.7990  -13.4680  -58.5880 O.2    12  TYR12      -0.2715
     20  CB       -12.5250  -12.6940  -56.1250 C.3    12  TYR12       0.0574
     21  CG       -12.7030  -11.7230  -55.0010 C.ar   12  TYR12      -0.0198
     22  CD1      -12.5100  -12.1310  -53.6900 C.ar   12  TYR12      -0.0009
     23  CD2      -13.0050  -10.3820  -55.2450 C.ar   12  TYR12      -0.0009
     24  CE1      -12.6460  -11.2410  -52.6430 C.ar   12  TYR12       0.0417
     25  CE2      -13.1470   -9.4820  -54.2060 C.ar   12  TYR12       0.0417
     26  CZ       -12.9690   -9.9180  -52.9020 C.ar   12  TYR12       0.1957
     27  OH       -13.0930   -9.0430  -51.8620 O.3    12  TYR12      -0.2866
     28  N        -10.9100  -15.3150  -57.2770 N.am   13  TYR13      -0.1974
     29  CA       -10.8610  -16.2330  -58.4070 C.3    13  TYR13       0.1639
     30  C        -12.1130  -16.1110  -59.2220 C.2    13  TYR13       0.2290
     31  O        -13.2080  -16.0850  -58.6780 O.2    13  TYR13      -0.2864
     32  CB       -10.7900  -17.6880  -57.9920 C.3    13  TYR13       0.0560
     33  CG        -9.4620  -18.1210  -57.4450 C.ar   13  TYR13      -0.0198
     34  CD1       -8.2690  -17.8490  -58.1210 C.ar   13  TYR13      -0.0009
     35  CD2       -9.3910  -18.7920  -56.2310 C.ar   13  TYR13      -0.0009
     36  CE1       -7.0520  -18.2400  -57.5890 C.ar   13  TYR13       0.0417
     37  CE2       -8.1790  -19.1810  -55.6900 C.ar   13  TYR13       0.0417
     38  CZ        -7.0100  -18.9060  -56.3740 C.ar   13  TYR13       0.1957
     39  OH        -5.8010  -19.2880  -55.8380 O.3    13  TYR13      -0.2866
     40  N        -17.4440  -12.6210  -51.4370 N.3    22  HIS22      -0.1241
     41  CA       -16.6630  -11.5960  -52.1560 C.3    22  HIS22       0.1621
     42  C        -17.1680  -10.2000  -51.7930 C.2    22  HIS22       0.2264
     43  O        -16.3780   -9.2850  -51.5490 O.2    22  HIS22      -0.2867
     44  CB       -16.7640  -11.7840  -53.6740 C.3    22  HIS22       0.0745
     45  CG       -16.3870  -13.1530  -54.1410 C.ar   22  HIS22       0.0817
     46  ND1      -17.1460  -13.8240  -55.0640 N.ar   22  HIS22      -0.2268
     47  CD2      -15.3810  -13.9960  -53.7990 C.ar   22  HIS22       0.1154
     48  CE1      -16.6220  -15.0110  -55.2970 C.ar   22  HIS22       0.1986
     49  NE2      -15.5490  -15.1440  -54.5400 N.ar   22  HIS22      -0.2212
     50  N         -8.4520  -12.5110  -59.7630 N.3    50  ASP50      -0.1239
     51  CA        -7.3470  -13.4410  -59.9230 C.3    50  ASP50       0.1674
     52  C         -7.7560  -14.3870  -61.0610 C.2    50  ASP50       0.2266
     53  O         -8.6990  -15.1890  -60.9260 O.2    50  ASP50      -0.2867
     54  CB        -7.1760  -14.1940  -58.6000 C.3    50  ASP50       0.1410
     55  CG        -5.9460  -15.0590  -58.5460 C.2    50  ASP50       0.3668
     56  OD1       -5.2530  -15.2120  -59.5700 O.co2  50  ASP50      -0.2456
     57  OD2       -5.7080  -15.6350  -57.4600 O.co2  50  ASP50      -0.2456
     58  N         -0.2060  -18.0220  -56.8950 N.3   237  TRP237     -0.1241
     59  CA        -0.1690  -17.2130  -55.6500 C.3   237  TRP237      0.1605
     60  C          0.8990  -16.1280  -55.5700 C.2   237  TRP237      0.2264
     61  O          0.6910  -15.1050  -54.9020 O.2   237  TRP237     -0.2867
     62  CB        -0.1030  -18.0870  -54.3960 C.3   237  TRP237      0.0550
     63  CG        -1.4460  -18.4830  -53.9400 C.ar  237  TRP237      0.0003
     64  CD1       -2.0450  -19.6540  -54.1750 C.ar  237  TRP237      0.0946
     65  CD2       -2.3770  -17.6890  -53.1870 C.ar  237  TRP237      0.0152
     66  NE1       -3.2990  -19.6800  -53.6030 N.ar  237  TRP237     -0.2442
     67  CE2       -3.5250  -18.4790  -52.9810 C.ar  237  TRP237      0.0810
     68  CE3       -2.3420  -16.3970  -52.6380 C.ar  237  TRP237      0.0012
     69  CZ2       -4.6370  -18.0220  -52.2610 C.ar  237  TRP237      0.0191
     70  CZ3       -3.4480  -15.9390  -51.9270 C.ar  237  TRP237      0.0001
     71  CH2       -4.5790  -16.7540  -51.7430 C.ar  237  TRP237      0.0015
     72  N         -0.6270  -13.7780  -57.7890 N.3   240  ALA240     -0.1231
     73  CA        -1.7740  -13.1560  -57.1230 C.3   240  ALA240      0.1694
     74  C         -1.3470  -12.1390  -56.0640 C.2   240  ALA240      0.2591
     75  O         -1.8390  -11.0180  -56.0620 O.2   240  ALA240     -0.2718
     76  CB        -2.6830  -14.2090  -56.5000 C.3   240  ALA240      0.0304
     77  N         -0.4330  -12.5290  -55.1810 N.am  241  LEU241     -0.1980
     78  CA         0.0030  -11.6560  -54.0890 C.3   241  LEU241      0.1596
     79  C          0.6120  -10.3650  -54.6090 C.2   241  LEU241      0.2287
     80  O          0.4300   -9.3070  -54.0250 O.2   241  LEU241     -0.2864
     81  CB         0.9950  -12.3820  -53.1680 C.3   241  LEU241      0.0297
     82  CG         0.3880  -13.4790  -52.2860 C.3   241  LEU241      0.0022
     83  CD1        1.4740  -14.3950  -51.7210 C.3   241  LEU241      0.0001
     84  CD2       -0.4530  -12.8710  -51.1660 C.3   241  LEU241      0.0001
     85  N         -0.3270   -8.5340  -56.9530 N.3   243  ASN243     -0.1225
     86  CA        -1.3170   -7.5020  -57.3210 C.3   243  ASN243      0.1785
     87  C         -1.2530   -6.2660  -56.4140 C.2   243  ASN243      0.2597
     88  O         -1.4850   -5.1500  -56.8750 O.2   243  ASN243     -0.2718
     89  CB        -2.7540   -8.0590  -57.3480 C.3   243  ASN243      0.1169
     90  CG        -3.4770   -7.9160  -56.0120 C.2   243  ASN243      0.2627
     91  OD1       -4.2090   -6.9470  -55.7930 O.2   243  ASN243     -0.2716
     92  ND2       -3.2600   -8.8710  -55.1080 N.am  243  ASN243     -0.0877
     93  N         -0.9360   -6.4810  -55.1350 N.am  244  TYR244     -0.1976
     94  CA        -0.8270   -5.4020  -54.1640 C.3   244  TYR244      0.1639
     95  C          0.3170   -4.4560  -54.5200 C.2   244  TYR244      0.2290
     96  O          0.1800   -3.2390  -54.3890 O.2   244  TYR244     -0.2864
     97  CB        -0.6230   -5.9520  -52.7410 C.3   244  TYR244      0.0560
     98  CG        -1.7030   -6.9060  -52.2620 C.ar  244  TYR244     -0.0198
     99  CD1       -3.0550   -6.6080  -52.4120 C.ar  244  TYR244     -0.0009
    100  CD2       -1.3660   -8.1090  -51.6370 C.ar  244  TYR244     -0.0009
    101  CE1       -4.0340   -7.4780  -51.9590 C.ar  244  TYR244      0.0417
    102  CE2       -2.3350   -8.9840  -51.1750 C.ar  244  TYR244      0.0417
    103  CZ        -3.6650   -8.6670  -51.3370 C.ar  244  TYR244      0.1957
    104  OH        -4.6270   -9.5350  -50.8790 O.3   244  TYR244     -0.2866
    105  N         -7.1040  -17.7880  -46.4130 N.3   282  ILE282     -0.1245
    106  CA        -5.8830  -17.4050  -47.1320 C.3   282  ILE282      0.1561
    107  C         -4.8450  -16.7380  -46.2370 C.2   282  ILE282      0.2260
    108  O         -3.9260  -16.0690  -46.7230 O.2   282  ILE282     -0.2867
    109  CB        -6.2230  -16.5670  -48.3830 C.3   282  ILE282      0.0252
    110  CG1       -6.8800  -15.2300  -48.0140 C.3   282  ILE282      0.0019
    111  CG2       -7.1440  -17.3740  -49.2960 C.3   282  ILE282      0.0019
    112  CD1       -7.2210  -14.3760  -49.2140 C.3   282  ILE282      0.0001
    113  N         -0.8610  -14.7250  -46.9660 N.3   286  HIS286     -0.1241
    114  CA        -0.6400  -13.3150  -46.6470 C.3   286  HIS286      0.1621
    115  C          0.2610  -13.0520  -45.4510 C.2   286  HIS286      0.2264
    116  O          0.9310  -12.0170  -45.4090 O.2   286  HIS286     -0.2867
    117  CB        -1.9790  -12.6110  -46.4370 C.3   286  HIS286      0.0745
    118  CG        -2.7350  -12.4020  -47.7030 C.ar  286  HIS286      0.0817
    119  ND1       -3.4050  -13.4190  -48.3420 N.ar  286  HIS286     -0.2268
    120  CD2       -2.9140  -11.2960  -48.4610 C.ar  286  HIS286      0.1154
    121  CE1       -3.9610  -12.9520  -49.4440 C.ar  286  HIS286      0.1986
    122  NE2       -3.6830  -11.6650  -49.5370 N.ar  286  HIS286     -0.2212
    123  N        -13.6400  -17.0770  -48.2060 N.3   312  THR312     -0.1203
    124  CA       -13.5160  -16.2770  -49.4380 C.3   312  THR312      0.1994
    125  C        -13.9130  -17.1040  -50.6730 C.2   312  THR312      0.2617
    126  O        -14.6950  -16.6440  -51.5070 O.2   312  THR312     -0.2717
    127  CB       -12.0690  -15.7420  -49.6200 C.3   312  THR312      0.1784
    128  OG1      -11.7480  -14.8120  -48.5740 O.3   312  THR312     -0.2211
    129  CG2      -11.8490  -15.0550  -50.9880 C.3   312  THR312      0.0376
    130  N        -13.3560  -18.3120  -50.7830 N.am  313  LYS313     -0.1979
    131  CA       -13.5090  -19.1580  -51.9760 C.3   313  LYS313      0.1596
    132  C        -14.8710  -19.8730  -52.0170 C.2   313  LYS313      0.2287
    133  O        -15.4940  -20.1430  -50.9840 O.2   313  LYS313     -0.2864
    134  CB       -12.3690  -20.1800  -52.0640 C.3   313  LYS313      0.0298
    135  CG       -10.9650  -19.5790  -52.1410 C.3   313  LYS313      0.0038
    136  CD        -9.8920  -20.5510  -51.6500 C.3   313  LYS313      0.0206
    137  CE        -8.5190  -19.8910  -51.5870 C.3   313  LYS313      0.1093
    138  NZ        -7.3820  -20.7760  -51.1940 N.3   313  LYS313     -0.1314
@<TRIPOS>BOND
     1    52    53    2
     2    52    51    1
     3    51    50    1
     4    51    54    1
     5    56    55   ar
     6    30    31    2
     7    30    29    1
     8    54    55    1
     9    19    18    2
    10    55    57   ar
    11    29    32    1
    12    29    28    1
    13    34    36   ar
    14    34    33   ar
    15    32    33    1
    16    72    73    1
    17    15    13    1
    18    36    38   ar
    19    18    28   am
    20    18    17    1
    21    33    35   ar
    22    89    86    1
    23    89    90    1
    24    86    85    1
    25    86    87    1
    26    73    76    1
    27    73    74    1
    28    58    59    1
    29    88    87    2
    30    12    14    1
    31    12    13    1
    32    12     9    1
    33    87    93   am
    34    38    39    1
    35    38    37   ar
    36    16    17    1
    37    16    10   am
    38    17    20    1
    39    35    37   ar
    40    20    21    1
    41    74    75    2
    42    74    77   am
    43    90    91    2
    44    90    92   am
    45    10     9    1
    46    10    11    2
    47    59    60    1
    48    59    62    1
    49    60    61    2
    50     9     8    1
    51    48    46   ar
    52    48    49   ar
    53    23    21   ar
    54    23    25   ar
    55    77    78    1
    56    93    94    1
    57    46    45   ar
    58    21    22   ar
    59    79    78    1
    60    79    80    2
    61    49    47   ar
    62    95    96    2
    63    95    94    1
    64    62    63    1
    65    25    26   ar
    66     8     3   am
    67    64    63   ar
    68    64    66   ar
    69    94    97    1
    70    45    47   ar
    71    45    44    1
    72    78    81    1
    73    63    65   ar
    74    22    24   ar
    75    44    41    1
    76    66    67   ar
    77     4     3    2
    78     3     2    1
    79    65    67   ar
    80    65    68   ar
    81    81    82    1
    82    67    69   ar
    83    26    24   ar
    84    26    27    1
    85    97    98    1
    86    68    70   ar
    87    99    98   ar
    88    99   101   ar
    89    82    83    1
    90    82    84    1
    91    98   100   ar
    92    69    71   ar
    93    41    42    1
    94    41    40    1
    95   135   134    1
    96   135   136    1
    97   134   131    1
    98   132   131    1
    99   132   133    2
   100   131   130    1
   101   101   103   ar
   102    70    71   ar
   103     2     5    1
   104     2     1    1
   105    42    43    2
   106   136   137    1
   107   100   102   ar
   108   137   138    1
   109   126   125    2
   110   103   102   ar
   111   103   104    1
   112     5     6    1
   113   129   127    1
   114     1     7    1
   115   130   125   am
   116   125   124    1
   117     7     6    1
   118   127   124    1
   119   127   128    1
   120   122   121   ar
   121   122   120   ar
   122   121   119   ar
   123   124   123    1
   124   111   109    1
   125   112   110    1
   126   120   118   ar
   127   109   110    1
   128   109   106    1
   129   119   118   ar
   130   118   117    1
   131   106   105    1
   132   106   107    1
   133   113   114    1
   134   108   107    2
   135   114   117    1
   136   114   115    1
   137   115   116    2
