@<TRIPOS>MOLECULE
tmp/5j5aB00.pdb
 207 204 0 0 0
SMALL
GASTEIGER

@<TRIPOS>ATOM
      1  N         32.7980   11.4810   -5.2190 N.3    16  PRO16      -0.2102
      2  CA        33.9010   12.0090   -6.0200 C.3    16  PRO16       0.1504
      3  C         33.6700   11.5710   -7.4420 C.2    16  PRO16       0.2575
      4  O         32.9760   10.5680   -7.6570 O.2    16  PRO16      -0.2718
      5  CB        35.1340   11.3010   -5.4450 C.3    16  PRO16       0.0282
      6  CG        34.6750   10.6360   -4.1900 C.3    16  PRO16       0.0208
      7  CD        33.2300   10.3240   -4.4310 C.3    16  PRO16       0.0893
      8  N         34.2120   12.3110   -8.4010 N.am   17  ILE17      -0.1980
      9  CA        34.2370   11.8500   -9.7980 C.3    17  ILE17       0.1595
     10  C         35.5260   11.0570   -9.9910 C.2    17  ILE17       0.2287
     11  O         36.5880   11.4910   -9.5770 O.2    17  ILE17      -0.2864
     12  CB        34.0750   12.9970  -10.8200 C.3    17  ILE17       0.0276
     13  CG1       35.1070   14.1170  -10.6050 C.3    17  ILE17       0.0022
     14  CG2       32.6630   13.5620  -10.7440 C.3    17  ILE17       0.0022
     15  CD1       35.2590   15.0300  -11.7990 C.3    17  ILE17       0.0001
     16  N         38.6930    8.6910  -11.6290 N.3    19  TYR19      -0.1241
     17  CA        39.6630    8.6500  -12.7410 C.3    19  TYR19       0.1605
     18  C         39.3870    7.4110  -13.6180 C.2    19  TYR19       0.2264
     19  O         39.1090    6.3450  -13.0980 O.2    19  TYR19      -0.2867
     20  CB        41.1490    8.7520  -12.2020 C.3    19  TYR19       0.0534
     21  CG        42.0840    9.4620  -13.1590 C.ar   19  TYR19      -0.0201
     22  CD1       41.7660   10.7400  -13.6280 C.ar   19  TYR19      -0.0009
     23  CD2       43.2820    8.8790  -13.6090 C.ar   19  TYR19      -0.0009
     24  CE1       42.5860   11.4230  -14.5120 C.ar   19  TYR19       0.0417
     25  CE2       44.1240    9.5660  -14.4980 C.ar   19  TYR19       0.0417
     26  CZ        43.7730   10.8400  -14.9450 C.ar   19  TYR19       0.1957
     27  OH        44.5800   11.5300  -15.8250 O.3    19  TYR19      -0.2866
     28  N         36.2140   11.4660  -14.0430 N.3    56  ASP56      -0.1239
     29  CA        37.2260   12.4830  -14.1360 C.3    56  ASP56       0.1674
     30  C         38.1110   12.0360  -15.2930 C.2    56  ASP56       0.2266
     31  O         38.9310   11.1410  -15.1370 O.2    56  ASP56      -0.2867
     32  CB        37.9960   12.5390  -12.8080 C.3    56  ASP56       0.1410
     33  CG        39.0680   13.6070  -12.8030 C.2    56  ASP56       0.3668
     34  OD1       38.9460   14.5920  -13.5730 O.co2  56  ASP56      -0.2456
     35  OD2       40.0460   13.4540  -12.0430 O.co2  56  ASP56      -0.2456
     36  N         40.2130   13.8230  -17.8990 N.3    58  HIS58      -0.1226
     37  CA        41.3700   14.4270  -18.5270 C.3    58  HIS58       0.1752
     38  C         42.6880   14.0110  -17.9470 C.2    58  HIS58       0.2597
     39  O         42.7480   13.3040  -16.9900 O.2    58  HIS58      -0.2718
     40  CB        41.2330   15.9370  -18.5550 C.3    58  HIS58       0.0759
     41  CG        40.0780   16.4250  -19.3630 C.ar   58  HIS58       0.0818
     42  ND1       39.0810   17.2060  -18.8420 N.ar   58  HIS58      -0.2268
     43  CD2       39.7490   16.2260  -20.6490 C.ar   58  HIS58       0.1154
     44  CE1       38.1980   17.4780  -19.7680 C.ar   58  HIS58       0.1986
     45  NE2       38.5730   16.8820  -20.8720 N.ar   58  HIS58      -0.2212
     46  N         43.7540   14.4390  -18.5670 N.am   59  GLY59      -0.1942
     47  CA        45.0680   14.1620  -18.0730 C.3    59  GLY59       0.2014
     48  C         46.0190   13.3310  -18.8490 C.2    59  GLY59       0.2639
     49  O         45.6860   12.7160  -19.7980 O.2    59  GLY59      -0.2714
     50  N         47.2470   13.3780  -18.4130 N.am   60  GLN60      -0.1963
     51  CA        48.3040   12.6320  -19.0170 C.3    60  GLN60       0.1733
     52  C         48.1880   11.1250  -18.8160 C.2    60  GLN60       0.2616
     53  O         48.2890   10.4050  -19.7610 O.2    60  GLN60      -0.2715
     54  CB        49.6110   13.2400  -18.5560 C.3    60  GLN60       0.0408
     55  CG        50.7240   12.3060  -18.2440 C.3    60  GLN60       0.0908
     56  CD        51.8840   13.0620  -17.6910 C.2    60  GLN60       0.2608
     57  OE1       51.7140   14.0820  -17.0600 O.2    60  GLN60      -0.2717
     58  NE2       53.0700   12.5800  -17.9510 N.am   60  GLN60      -0.0878
     59  N         47.9100   10.6680  -17.5990 N.am   61  LYS61      -0.1977
     60  CA        47.7220    9.2380  -17.3470 C.3    61  LYS61       0.1596
     61  C         46.6170    8.5810  -18.2020 C.2    61  LYS61       0.2287
     62  O         46.8340    7.4940  -18.7340 O.2    61  LYS61      -0.2864
     63  CB        47.5240    8.9750  -15.8530 C.3    61  LYS61       0.0298
     64  CG        48.8240    9.0050  -15.0710 C.3    61  LYS61       0.0038
     65  CD        48.5720    8.6850  -13.6130 C.3    61  LYS61       0.0206
     66  CE        49.8620    8.5180  -12.8280 C.3    61  LYS61       0.1093
     67  NZ        50.6710    9.7660  -12.7260 N.3    61  LYS61      -0.1314
     68  N         54.8330   14.2460  -12.5120 N.3   137  GLU137     -0.1245
     69  CA        54.2060   15.4860  -12.9840 C.3   137  GLU137      0.1567
     70  C         54.1620   16.5470  -11.8750 C.2   137  GLU137      0.2260
     71  O         53.1280   17.1830  -11.6310 O.2   137  GLU137     -0.2867
     72  CB        52.8620   15.2010  -13.7210 C.3   137  GLU137      0.0388
     73  CG        51.8300   14.3790  -12.9790 C.3   137  GLU137      0.1160
     74  CD        50.5940   14.0910  -13.8100 C.2   137  GLU137      0.3649
     75  OE1       50.2180   12.9060  -14.0180 O.co2 137  GLU137     -0.2457
     76  OE2       50.0170   15.0740  -14.2880 O.co2 137  GLU137     -0.2457
     77  N         50.4440   17.2180  -21.1150 N.3   212  LEU212     -0.1245
     78  CA        49.1480   16.5560  -20.9590 C.3   212  LEU212      0.1561
     79  C         48.6590   15.8290  -22.2310 C.2   212  LEU212      0.2260
     80  O         47.5170   15.3490  -22.2750 O.2   212  LEU212     -0.2867
     81  CB        48.1150   17.5890  -20.4620 C.3   212  LEU212      0.0270
     82  CG        48.2010   18.0950  -19.0070 C.3   212  LEU212      0.0019
     83  CD1       47.0030   18.9030  -18.5030 C.3   212  LEU212      0.0001
     84  CD2       48.4670   16.9360  -18.0700 C.3   212  LEU212      0.0001
     85  N         42.9930   17.8640  -22.0980 N.3   216  ALA216     -0.1245
     86  CA        42.6110   18.6860  -20.9610 C.3   216  ALA216      0.1562
     87  C         41.8830   19.9290  -21.4630 C.2   216  ALA216      0.2260
     88  O         41.7650   20.1540  -22.6670 O.2   216  ALA216     -0.2867
     89  CB        43.8420   19.0670  -20.1550 C.3   216  ALA216      0.0290
     90  N         44.2560   23.5240  -18.0870 N.3   227  VAL227     -0.1231
     91  CA        43.7810   23.6210  -16.7210 C.3   227  VAL227      0.1692
     92  C         44.0910   22.3100  -16.0330 C.2   227  VAL227      0.2592
     93  O         43.7420   21.2190  -16.5180 O.2   227  VAL227     -0.2718
     94  CB        42.2720   23.8510  -16.6710 C.3   227  VAL227      0.0266
     95  CG1       41.7620   23.7980  -15.2340 C.3   227  VAL227      0.0020
     96  CG2       41.9420   25.1840  -17.3150 C.3   227  VAL227      0.0020
     97  N         44.7460   22.3520  -14.9050 N.am  228  TYR228     -0.1962
     98  CA        45.1340   21.1200  -14.2810 C.3   228  TYR228      0.1771
     99  C         44.0570   20.3930  -13.4760 C.2   228  TYR228      0.2619
    100  O         42.8900   20.6130  -13.6540 O.2   228  TYR228     -0.2715
    101  CB        46.4580   21.3000  -13.5620 C.3   228  TYR228      0.0574
    102  CG        47.1380   20.0410  -13.1800 C.ar  228  TYR228     -0.0198
    103  CD1       47.3090   19.0130  -14.0770 C.ar  228  TYR228     -0.0009
    104  CD2       47.5910   19.8670  -11.9090 C.ar  228  TYR228     -0.0009
    105  CE1       47.9150   17.8570  -13.7050 C.ar  228  TYR228      0.0417
    106  CE2       48.1990   18.7060  -11.5350 C.ar  228  TYR228      0.0417
    107  CZ        48.3480   17.7160  -12.4380 C.ar  228  TYR228      0.1957
    108  OH        48.9730   16.5870  -12.0310 O.3   228  TYR228     -0.2866
    109  N         44.4660   19.4940  -12.6170 N.am  229  VAL229     -0.1963
    110  CA        43.5450   18.6660  -11.9110 C.3   229  VAL229      0.1727
    111  C         42.4810   19.3730  -11.1140 C.2   229  VAL229      0.2616
    112  O         41.3400   19.0490  -11.1880 O.2   229  VAL229     -0.2715
    113  CB        44.3720   17.8490  -10.8820 C.3   229  VAL229      0.0290
    114  CG1       43.5280   17.0000   -9.9620 C.3   229  VAL229      0.0023
    115  CG2       45.3440   16.9480  -11.5550 C.3   229  VAL229      0.0023
    116  N         42.8880   20.3410  -10.3500 N.am  230  TRP230     -0.1974
    117  CA        42.0460   21.0210   -9.4010 C.3   230  TRP230      0.1640
    118  C         40.8910   21.8290   -9.8650 C.2   230  TRP230      0.2290
    119  O         39.7860   21.6080   -9.4660 O.2   230  TRP230     -0.2864
    120  CB        42.9470   21.9050   -8.5210 C.3   230  TRP230      0.0576
    121  CG        44.3210   21.3670   -8.3190 C.ar  230  TRP230      0.0006
    122  CD1       45.4460   21.8760   -8.7830 C.ar  230  TRP230      0.0946
    123  CD2       44.6630   20.1560   -7.6840 C.ar  230  TRP230      0.0152
    124  NE1       46.4950   21.1000   -8.4500 N.ar  230  TRP230     -0.2442
    125  CE2       46.0330   20.0260   -7.7630 C.ar  230  TRP230      0.0810
    126  CE3       43.9360   19.1690   -7.0300 C.ar  230  TRP230      0.0012
    127  CZ2       46.6900   18.9640   -7.2280 C.ar  230  TRP230      0.0191
    128  CZ3       44.5920   18.1360   -6.5100 C.ar  230  TRP230      0.0001
    129  CH2       45.9490   18.0320   -6.6010 C.ar  230  TRP230      0.0015
    130  N         39.6320   21.7340  -12.9140 N.3   232  ASP232     -0.1225
    131  CA        38.7530   20.8680  -13.6830 C.3   232  ASP232      0.1805
    132  C         37.8590   19.9600  -12.8170 C.2   232  ASP232      0.2598
    133  O         36.6320   20.1330  -12.8040 O.2   232  ASP232     -0.2718
    134  CB        39.5800   20.0640  -14.7040 C.3   232  ASP232      0.1424
    135  CG        38.7400   19.1360  -15.5710 C.2   232  ASP232      0.3668
    136  OD1       37.4870   19.2380  -15.5550 O.co2 232  ASP232     -0.2456
    137  OD2       39.3490   18.3010  -16.2830 O.co2 232  ASP232     -0.2456
    138  N         38.4690   18.9950  -12.1310 N.am  233  ALA233     -0.1966
    139  CA        37.7220   17.9350  -11.4530 C.3   233  ALA233      0.1728
    140  C         36.7930   18.4450  -10.3550 C.2   233  ALA233      0.2616
    141  O         35.5920   18.1580  -10.3740 O.2   233  ALA233     -0.2715
    142  CB        38.6610   16.8730  -10.8890 C.3   233  ALA233      0.0334
    143  N         37.3330   19.2420   -9.4300 N.am  234  LEU234     -0.1977
    144  CA        36.5300   19.7790   -8.3300 C.3   234  LEU234      0.1596
    145  C         35.3270   20.5720   -8.8310 C.2   234  LEU234      0.2287
    146  O         34.2490   20.5420   -8.2310 O.2   234  LEU234     -0.2864
    147  CB        37.3680   20.6590   -7.4060 C.3   234  LEU234      0.0297
    148  CG        38.4480   19.9610   -6.5710 C.3   234  LEU234      0.0022
    149  CD1       39.4470   20.9820   -6.0180 C.3   234  LEU234      0.0001
    150  CD2       37.8210   19.1250   -5.4560 C.3   234  LEU234      0.0001
    151  N         33.2850   19.9930  -11.0940 N.3   236  ASN236     -0.1225
    152  CA        32.1220   19.1620  -11.4420 C.3   236  ASN236      0.1785
    153  C         30.9390   19.3990  -10.5110 C.2   236  ASN236      0.2597
    154  O         29.7840   19.3620  -10.9600 O.2   236  ASN236     -0.2718
    155  CB        32.4500   17.6580  -11.4700 C.3   236  ASN236      0.1169
    156  CG        32.2100   16.9760  -10.1340 C.2   236  ASN236      0.2627
    157  OD1       31.1170   16.4960   -9.8590 O.2   236  ASN236     -0.2716
    158  ND2       33.2180   16.9760   -9.2880 N.am  236  ASN236     -0.0877
    159  N         31.2360   19.6580   -9.2350 N.am  237  TYR237     -0.1976
    160  CA        30.1940   19.9080   -8.2560 C.3   237  TYR237      0.1639
    161  C         29.3980   21.1730   -8.5890 C.2   237  TYR237      0.2290
    162  O         28.1550   21.1690   -8.5320 O.2   237  TYR237     -0.2864
    163  CB        30.7760   20.0130   -6.8490 C.3   237  TYR237      0.0560
    164  CG        31.5840   18.8170   -6.4090 C.ar  237  TYR237     -0.0198
    165  CD1       31.1240   17.5220   -6.6180 C.ar  237  TYR237     -0.0009
    166  CD2       32.8100   18.9860   -5.7580 C.ar  237  TYR237     -0.0009
    167  CE1       31.8720   16.4270   -6.2060 C.ar  237  TYR237      0.0417
    168  CE2       33.5570   17.9010   -5.3460 C.ar  237  TYR237      0.0417
    169  CZ        33.0920   16.6240   -5.5740 C.ar  237  TYR237      0.1957
    170  OH        33.8330   15.5630   -5.1530 O.3   237  TYR237     -0.2866
    171  N         41.9730    9.7080    0.7990 N.3   274  ASP274     -0.1225
    172  CA        42.9850   10.0650   -0.2140 C.3   274  ASP274      0.1805
    173  C         42.8680   11.4660   -0.8410 C.2   274  ASP274      0.2597
    174  O         43.8790   12.0060   -1.2770 O.2   274  ASP274     -0.2718
    175  CB        43.0540    8.9830   -1.3240 C.3   274  ASP274      0.1424
    176  CG        41.6810    8.6940   -1.9990 C.2   274  ASP274      0.3668
    177  OD1       40.7060    8.3640   -1.3010 O.co2 274  ASP274     -0.2456
    178  OD2       41.5960    8.7420   -3.2450 O.co2 274  ASP274     -0.2456
    179  N         41.6720   12.0570   -0.8720 N.am  275  ILE275     -0.1980
    180  CA        41.4780   13.3500   -1.5540 C.3   275  ILE275      0.1595
    181  C         40.9720   14.4640   -0.6330 C.2   275  ILE275      0.2287
    182  O         40.3620   15.4390   -1.0800 O.2   275  ILE275     -0.2864
    183  CB        40.5820   13.1930   -2.8100 C.3   275  ILE275      0.0276
    184  CG1       39.1330   12.7960   -2.4370 C.3   275  ILE275      0.0022
    185  CG2       41.2110   12.1720   -3.7560 C.3   275  ILE275      0.0022
    186  CD1       38.2470   12.5100   -3.6290 C.3   275  ILE275      0.0001
    187  N         42.3050   18.2470   -1.0830 N.3   278  PHE278     -0.1227
    188  CA        41.7410   18.8580   -2.2870 C.3   278  PHE278      0.1736
    189  C         40.3480   19.4140   -2.0290 C.2   278  PHE278      0.2595
    190  O         40.0180   20.5010   -2.4910 O.2   278  PHE278     -0.2718
    191  CB        41.7390   17.8370   -3.4160 C.3   278  PHE278      0.0547
    192  CG        43.0550   17.0600   -3.4980 C.ar  278  PHE278     -0.0202
    193  CD1       44.2730   17.6800   -3.1990 C.ar  278  PHE278     -0.0042
    194  CD2       43.0810   15.7110   -3.7860 C.ar  278  PHE278     -0.0042
    195  CE1       45.4800   16.9860   -3.2340 C.ar  278  PHE278     -0.0003
    196  CE2       44.2890   15.0100   -3.8240 C.ar  278  PHE278     -0.0003
    197  CZ        45.4870   15.6520   -3.5550 C.ar  278  PHE278     -0.0000
    198  N         39.5510   18.6660   -1.2640 N.am  279  HIS279     -0.1975
    199  CA        38.1780   19.0530   -0.9210 C.3   279  HIS279      0.1656
    200  C         38.0520   20.0050    0.2700 C.2   279  HIS279      0.2291
    201  O         37.1190   20.7920    0.3200 O.2   279  HIS279     -0.2864
    202  CB        37.3320   17.8010   -0.6990 C.3   279  HIS279      0.0771
    203  CG        37.0240   17.0760   -1.9690 C.ar  279  HIS279      0.0820
    204  ND1       37.9170   16.2200   -2.5700 N.ar  279  HIS279     -0.2267
    205  CD2       35.9400   17.1190   -2.7770 C.ar  279  HIS279      0.1154
    206  CE1       37.3850   15.7470   -3.6810 C.ar  279  HIS279      0.1986
    207  NE2       36.1850   16.2750   -3.8280 N.ar  279  HIS279     -0.2212
@<TRIPOS>BOND
     1    88    87    2
     2    80    79    2
     3    79    78    1
     4    85    86    1
     5    87    86    1
     6    77    78    1
     7    86    89    1
     8    78    81    1
     9    45    43   ar
    10    45    44   ar
    11    43    41   ar
    12    81    82    1
    13    49    48    2
    14    44    42   ar
    15    53    52    2
    16    41    42   ar
    17    41    40    1
    18    51    52    1
    19    51    54    1
    20    51    50    1
    21    82    83    1
    22    82    84    1
    23    48    50   am
    24    48    47    1
    25    52    59   am
    26    62    61    2
    27    46    47    1
    28    46    38   am
    29    54    55    1
    30    40    37    1
    31    37    38    1
    32    37    36    1
    33    55    56    1
    34    61    60    1
    35    90    91    1
    36    58    56   am
    37    38    39    2
    38    56    57    2
    39    59    60    1
    40    60    63    1
    41    96    94    1
    42    91    94    1
    43    91    92    1
    44    94    95    1
    45    93    92    2
    46   137   135   ar
    47    92    97   am
    48    63    64    1
    49    27    26    1
    50   135   136   ar
    51   135   134    1
    52    30    31    2
    53    30    29    1
    54    64    65    1
    55    26    24   ar
    56    26    25   ar
    57    97    98    1
    58   134   131    1
    59    24    22   ar
    60    25    23   ar
    61    76    74   ar
    62    98   101    1
    63    98    99    1
    64    29    28    1
    65    29    32    1
    66   103   105   ar
    67   103   102   ar
    68    75    74   ar
    69    74    73    1
    70    72    69    1
    71    72    73    1
    72   105   107   ar
    73   131   130    1
    74   131   132    1
    75   100    99    2
    76    22    21   ar
    77    18    19    2
    78    18    17    1
    79    65    66    1
    80    23    21   ar
    81    34    33   ar
    82   101   102    1
    83    99   109   am
    84   102   104   ar
    85    21    20    1
    86    69    68    1
    87    69    70    1
    88    66    67    1
    89   132   133    2
    90   132   138   am
    91    32    33    1
    92    33    35   ar
    93    17    20    1
    94    17    16    1
    95   109   110    1
    96   107   108    1
    97   107   106   ar
    98   138   139    1
    99   110   111    1
   100   110   113    1
   101   104   106   ar
   102    70    71    2
   103    15    13    1
   104   115   113    1
   105   155   152    1
   106   155   156    1
   107   139   142    1
   108   139   140    1
   109   152   151    1
   110   152   153    1
   111   112   111    2
   112   111   116   am
   113   154   153    2
   114   113   114    1
   115    12    14    1
   116    12    13    1
   117    12     9    1
   118   153   159   am
   119   141   140    2
   120   140   143   am
   121   116   117    1
   122   156   157    2
   123   156   158   am
   124    10     9    1
   125    10    11    2
   126   118   119    2
   127   118   117    1
   128     9     8    1
   129   143   144    1
   130   117   120    1
   131   159   160    1
   132   145   144    1
   133   145   146    2
   134   122   124   ar
   135   122   121   ar
   136   161   162    2
   137   161   160    1
   138   120   121    1
   139   124   125   ar
   140     8     3   am
   141   144   147    1
   142   121   123   ar
   143   160   163    1
   144   125   123   ar
   145   125   127   ar
   146   123   126   ar
   147     4     3    2
   148     3     2    1
   149   147   148    1
   150   127   129   ar
   151   126   128   ar
   152   163   164    1
   153   165   164   ar
   154   165   167   ar
   155   129   128   ar
   156   148   149    1
   157   148   150    1
   158   164   166   ar
   159   167   169   ar
   160     2     5    1
   161     2     1    1
   162   166   168   ar
   163   169   168   ar
   164   169   170    1
   165     5     6    1
   166     1     7    1
   167     7     6    1
   168   207   206   ar
   169   207   205   ar
   170   196   194   ar
   171   196   197   ar
   172   194   192   ar
   173   185   183    1
   174   206   204   ar
   175   186   184    1
   176   197   195   ar
   177   192   191    1
   178   192   193   ar
   179   191   188    1
   180   178   176   ar
   181   195   193   ar
   182   183   184    1
   183   183   180    1
   184   205   203   ar
   185   204   203   ar
   186   190   189    2
   187   188   189    1
   188   188   187    1
   189   189   198   am
   190   176   175    1
   191   176   177   ar
   192   203   202    1
   193   180   179    1
   194   180   181    1
   195   175   172    1
   196   174   173    2
   197   198   199    1
   198   182   181    2
   199   199   202    1
   200   199   200    1
   201   179   173   am
   202   173   172    1
   203   172   171    1
   204   200   201    2
