@<TRIPOS>MOLECULE
tmp/5j5cA00.pdb
 148 143 0 0 0
SMALL
GASTEIGER

@<TRIPOS>ATOM
      1  N        -49.4180   31.5590   -6.4750 N.3    10  ASP10      -0.1225
      2  CA       -49.9340   32.9240   -6.4140 C.3    10  ASP10       0.1805
      3  C        -49.7590   33.4900   -5.0130 C.2    10  ASP10       0.2598
      4  O        -49.9640   32.7870   -4.0200 O.2    10  ASP10      -0.2718
      5  CB       -51.4010   33.0020   -6.8560 C.3    10  ASP10       0.1424
      6  CG       -52.3130   32.0860   -6.0550 C.2    10  ASP10       0.3668
      7  OD1      -52.2180   30.8470   -6.2120 O.co2  10  ASP10      -0.2456
      8  OD2      -53.1410   32.6110   -5.2800 O.co2  10  ASP10      -0.2456
      9  N        -49.3400   34.7500   -4.9490 N.am   11  GLY11      -0.1942
     10  CA       -49.1880   35.4600   -3.6810 C.3    11  GLY11       0.2014
     11  C        -47.8710   35.2490   -2.9540 C.2    11  GLY11       0.2639
     12  O        -47.6770   35.7910   -1.8630 O.2    11  GLY11      -0.2714
     13  N        -46.9640   34.4770   -3.5500 N.am   12  ALA12      -0.1963
     14  CA       -45.6890   34.1420   -2.9050 C.3    12  ALA12       0.1728
     15  C        -44.7410   35.3360   -2.7450 C.2    12  ALA12       0.2617
     16  O        -44.0050   35.4160   -1.7610 O.2    12  ALA12      -0.2715
     17  CB       -45.0000   33.0000   -3.6390 C.3    12  ALA12       0.0334
     18  N        -44.7690   36.2600   -3.7040 N.am   13  GLY13      -0.1940
     19  CA       -43.9070   37.4430   -3.6680 C.3    13  GLY13       0.2014
     20  C        -43.0130   37.5890   -4.8860 C.2    13  GLY13       0.2639
     21  O        -42.0990   38.4150   -4.8930 O.2    13  GLY13      -0.2714
     22  N        -43.2980   36.7950   -5.9190 N.am   14  LYS14      -0.1963
     23  CA       -42.4730   36.7120   -7.1270 C.3    14  LYS14       0.1728
     24  C        -42.2640   38.0660   -7.7940 C.2    14  LYS14       0.2617
     25  O        -41.1320   38.4730   -8.0580 O.2    14  LYS14      -0.2715
     26  CB       -43.1110   35.7510   -8.1340 C.3    14  LYS14       0.0311
     27  CG       -43.2910   34.3250   -7.6330 C.3    14  LYS14       0.0038
     28  CD       -43.8690   33.4250   -8.7160 C.3    14  LYS14       0.0206
     29  CE       -45.2710   33.8440   -9.1330 C.3    14  LYS14       0.1093
     30  NZ       -46.2870   33.5090   -8.0950 N.3    14  LYS14      -0.1314
     31  N        -43.3710   38.7510   -8.0590 N.am   15  THR15      -0.1937
     32  CA       -43.3560   40.0430   -8.7290 C.3    15  THR15       0.2028
     33  C        -42.6160   41.0790   -7.8900 C.2    15  THR15       0.2642
     34  O        -41.7980   41.8420   -8.4150 O.2    15  THR15      -0.2714
     35  CB       -44.7880   40.5300   -9.0170 C.3    15  THR15       0.1808
     36  OG1      -45.5440   39.4690   -9.6220 O.3    15  THR15      -0.2208
     37  CG2      -44.7760   41.7300   -9.9520 C.3    15  THR15       0.0379
     38  N        -42.9020   41.0830   -6.5870 N.am   16  THR16      -0.1950
     39  CA       -42.2670   42.0000   -5.6420 C.3    16  THR16       0.1897
     40  C        -40.7540   41.8550   -5.7300 C.2    16  THR16       0.2313
     41  O        -40.0260   42.8520   -5.7350 O.2    16  THR16      -0.2863
     42  CB       -42.7360   41.7440   -4.1910 C.3    16  THR16       0.1794
     43  OG1      -44.1610   41.5960   -4.1560 O.3    16  THR16      -0.2208
     44  CG2      -42.3460   42.9020   -3.2840 C.3    16  THR16       0.0378
     45  N        -48.3280   45.6000   -6.3450 N.3    29  THR29      -0.1203
     46  CA       -48.5380   44.6320   -7.4320 C.3    29  THR29       0.1994
     47  C        -49.9790   44.1450   -7.5960 C.2    29  THR29       0.2618
     48  O        -50.7810   44.2210   -6.6630 O.2    29  THR29      -0.2717
     49  CB       -47.6670   43.3630   -7.2470 C.3    29  THR29       0.1784
     50  OG1      -48.1920   42.5610   -6.1800 O.3    29  THR29      -0.2211
     51  CG2      -46.2100   43.7110   -6.9560 C.3    29  THR29       0.0376
     52  N        -50.2880   43.6360   -8.7900 N.am   30  ILE30      -0.1966
     53  CA       -51.4710   42.7920   -8.9990 C.3    30  ILE30       0.1712
     54  C        -51.0640   41.3510   -9.3380 C.2    30  ILE30       0.2458
     55  O        -49.9060   41.1020   -9.7080 O.2    30  ILE30      -0.2730
     56  CB       -52.4220   43.3250  -10.0990 C.3    30  ILE30       0.0289
     57  CG1      -51.7390   43.3370  -11.4750 C.3    30  ILE30       0.0022
     58  CG2      -52.9730   44.6870   -9.7080 C.3    30  ILE30       0.0023
     59  CD1      -52.6940   43.1390  -12.6360 C.3    30  ILE30       0.0001
     60  N        -52.0090   40.3980   -9.1960 N.am   31  PRO31      -0.2716
     61  CA       -51.7940   39.0470   -9.6900 C.3    31  PRO31       0.1536
     62  C        -51.3770   39.0820  -11.1470 C.2    31  PRO31       0.2599
     63  O        -52.0840   39.6420  -11.9900 O.2    31  PRO31      -0.2715
     64  CB       -53.1690   38.4030   -9.5470 C.3    31  PRO31       0.0310
     65  CG       -53.7510   39.0820   -8.3660 C.3    31  PRO31       0.0237
     66  CD       -53.2710   40.5030   -8.4410 C.3    31  PRO31       0.0939
     67  N        -50.2110   38.5180  -11.4230 N.am   32  THR32      -0.1951
     68  CA       -49.6850   38.4920  -12.7670 C.3    32  THR32       0.1897
     69  C        -50.4760   37.4450  -13.5450 C.2    32  THR32       0.2313
     70  O        -50.3920   36.2560  -13.2570 O.2    32  THR32      -0.2863
     71  CB       -48.1770   38.1590  -12.7700 C.3    32  THR32       0.1794
     72  OG1      -47.5120   38.9140  -11.7460 O.3    32  THR32      -0.2208
     73  CG2      -47.5540   38.4730  -14.1220 C.3    32  THR32       0.0378
     74  N        -43.9370   35.0260  -14.0060 N.3    52  LEU52      -0.1231
     75  CA       -45.2130   34.5160  -14.4890 C.3    52  LEU52       0.1693
     76  C        -46.1590   34.3930  -13.3090 C.2    52  LEU52       0.2593
     77  O        -45.7240   34.2110  -12.1710 O.2    52  LEU52      -0.2718
     78  CB       -45.0460   33.1570  -15.1740 C.3    52  LEU52       0.0284
     79  CG       -43.6930   32.7370  -15.7610 C.3    52  LEU52       0.0019
     80  CD1      -43.8650   31.4040  -16.4720 C.3    52  LEU52       0.0001
     81  CD2      -43.1130   33.7670  -16.7250 C.3    52  LEU52       0.0001
     82  N        -47.4540   34.5040  -13.5770 N.am   53  GLY53      -0.1942
     83  CA       -48.4480   34.3960  -12.5180 C.3    53  GLY53       0.2014
     84  C        -48.5300   32.9980  -11.9430 C.2    53  GLY53       0.2639
     85  O        -48.2690   32.0140  -12.6350 O.2    53  GLY53      -0.2714
     86  N        -48.9010   32.9170  -10.6690 N.am   54  GLY54      -0.1939
     87  CA       -48.9540   31.6440   -9.9610 C.3    54  GLY54       0.2014
     88  C        -50.3530   31.1040   -9.7400 C.2    54  GLY54       0.2638
     89  O        -50.5160   30.0120   -9.1910 O.2    54  GLY54      -0.2714
     90  N        -51.3590   31.8680  -10.1670 N.am   55  LEU55      -0.1977
     91  CA       -52.7670   31.4850  -10.0300 C.3    55  LEU55       0.1596
     92  C        -52.9780   30.0350  -10.4290 C.2    55  LEU55       0.2287
     93  O        -52.3750   29.5440  -11.3900 O.2    55  LEU55      -0.2864
     94  CB       -53.6750   32.3950  -10.8730 C.3    55  LEU55       0.0297
     95  CG       -53.8110   33.8920  -10.5510 C.3    55  LEU55       0.0022
     96  CD1      -54.5420   34.1080   -9.2280 C.3    55  LEU55       0.0001
     97  CD2      -52.4740   34.6400  -10.5830 C.3    55  LEU55       0.0001
     98  N        -39.5570   32.9280    1.3180 N.3   110  ASN110     -0.1225
     99  CA       -39.8800   34.3420    1.3740 C.3   110  ASN110      0.1785
    100  C        -40.8030   34.6980    2.5170 C.2   110  ASN110      0.2597
    101  O        -41.4590   33.8290    3.0950 O.2   110  ASN110     -0.2718
    102  CB       -40.4830   34.8150    0.0510 C.3   110  ASN110      0.1169
    103  CG       -40.4200   36.3250   -0.1100 C.2   110  ASN110      0.2627
    104  OD1      -39.4270   36.9610    0.2530 O.2   110  ASN110     -0.2716
    105  ND2      -41.4840   36.9070   -0.6510 N.am  110  ASN110     -0.0877
    106  N        -40.8450   35.9920    2.8250 N.am  111  LYS111     -0.1980
    107  CA       -41.6740   36.5290    3.8950 C.3   111  LYS111      0.1596
    108  C        -41.0940   36.1670    5.2510 C.2   111  LYS111      0.2287
    109  O        -41.8280   36.0580    6.2340 O.2   111  LYS111     -0.2864
    110  CB       -43.1300   36.0510    3.7580 C.3   111  LYS111      0.0298
    111  CG       -43.8540   36.6460    2.5580 C.3   111  LYS111      0.0038
    112  CD       -45.1530   35.9180    2.2610 C.3   111  LYS111      0.0206
    113  CE       -46.0530   36.7450    1.3520 C.3   111  LYS111      0.1093
    114  NZ       -47.4010   36.1300    1.2120 N.3   111  LYS111     -0.1314
    115  N        -39.4620   37.8350    7.3250 N.3   113  ASP113     -0.1225
    116  CA       -39.6800   38.8880    8.3050 C.3   113  ASP113      0.1805
    117  C        -40.8850   38.6050    9.2050 C.2   113  ASP113      0.2597
    118  O        -40.9200   39.0310   10.3640 O.2   113  ASP113     -0.2718
    119  CB       -39.8520   40.2340    7.6020 C.3   113  ASP113      0.1424
    120  CG       -41.1740   40.3450    6.8760 C.2   113  ASP113      0.3668
    121  OD1      -41.1670   40.2500    5.6320 O.co2 113  ASP113     -0.2456
    122  OD2      -42.2120   40.5180    7.5480 O.co2 113  ASP113     -0.2456
    123  N        -41.8660   37.8870    8.6610 N.am  114  MET114     -0.1979
    124  CA       -43.1270   37.6440    9.3530 C.3   114  MET114      0.1605
    125  C        -43.0410   36.6400   10.4900 C.2   114  MET114      0.2287
    126  O        -42.3300   35.6380   10.4050 O.2   114  MET114     -0.2864
    127  CB       -44.2230   37.2450    8.3680 C.3   114  MET114      0.0413
    128  CG       -44.7160   38.3980    7.5120 C.3   114  MET114      0.0598
    129  SD       -45.6980   39.6310    8.3990 S.3   114  MET114     -0.1393
    130  CE       -44.4970   40.5590    9.3610 C.3   114  MET114      0.0692
    131  N        -36.8320   38.4850    2.5390 N.3   143  SER143     -0.1202
    132  CA       -37.9340   39.4330    2.6350 C.3   143  SER143      0.2020
    133  C        -37.8360   40.4370    1.4910 C.2   143  SER143      0.2619
    134  O        -36.9330   41.2760    1.4690 O.2   143  SER143     -0.2717
    135  CB       -37.9330   40.1450    3.9900 C.3   143  SER143      0.2103
    136  OG       -38.9700   41.1090    4.0720 O.3   143  SER143     -0.2182
    137  N        -38.7650   40.3300    0.5410 N.am  144  ALA144     -0.1965
    138  CA       -38.8240   41.2180   -0.6240 C.3   144  ALA144      0.1728
    139  C        -39.2120   42.6370   -0.2140 C.2   144  ALA144      0.2616
    140  O        -38.7500   43.6250   -0.7920 O.2   144  ALA144     -0.2715
    141  CB       -39.8150   40.6740   -1.6400 C.3   144  ALA144      0.0334
    142  N        -40.0720   42.7040    0.7960 N.am  145  THR145     -0.1951
    143  CA       -40.5440   43.9510    1.3810 C.3   145  THR145      0.1897
    144  C        -39.4250   44.7220    2.0740 C.2   145  THR145      0.2313
    145  O        -39.2410   45.9210    1.8430 O.2   145  THR145     -0.2863
    146  CB       -41.6150   43.6690    2.4450 C.3   145  THR145      0.1794
    147  OG1      -41.0810   42.7740    3.4350 O.3   145  THR145     -0.2208
    148  CG2      -42.8520   43.0670    1.8230 C.3   145  THR145      0.0378
@<TRIPOS>BOND
     1    81    79    1
     2    80    79    1
     3    79    78    1
     4    78    75    1
     5    75    74    1
     6    75    76    1
     7    73    71    1
     8    82    76   am
     9    82    83    1
    10    69    70    2
    11    69    68    1
    12    76    77    2
    13    71    68    1
    14    71    72    1
    15    68    67    1
    16    59    57    1
    17    85    84    2
    18    83    84    1
    19    63    62    2
    20    84    86   am
    21    57    56    1
    22    67    62   am
    23    93    92    2
    24    62    61    1
    25    94    95    1
    26    94    91    1
    27    86    87    1
    28    97    95    1
    29    95    96    1
    30    92    91    1
    31    90    91    1
    32    90    88   am
    33    56    58    1
    34    56    53    1
    35    87    88    1
    36    37    35    1
    37    88    89    2
    38    55    54    2
    39    61    64    1
    40    61    60    1
    41    36    35    1
    42    64    65    1
    43    54    60   am
    44    54    53    1
    45    60    66    1
    46    29    28    1
    47    29    30    1
    48    35    32    1
    49    53    52    1
    50    52    47   am
    51    32    31    1
    52    32    33    1
    53    28    27    1
    54    66    65    1
    55    34    33    2
    56    26    27    1
    57    26    23    1
    58    31    24   am
    59    25    24    2
    60    33    38   am
    61    24    23    1
    62    47    46    1
    63    47    48    2
    64    46    49    1
    65    46    45    1
    66    49    51    1
    67    49    50    1
    68    23    22    1
    69     5     2    1
    70     5     6    1
    71    38    39    1
    72     1     2    1
    73     2     3    1
    74     7     6   ar
    75     6     8   ar
    76    22    20   am
    77    41    40    2
    78    40    39    1
    79    39    42    1
    80     3     9   am
    81     3     4    2
    82     9    10    1
    83    21    20    2
    84    20    19    1
    85    42    43    1
    86    42    44    1
    87    18    19    1
    88    18    15   am
    89    10    11    1
    90    17    14    1
    91    13    11   am
    92    13    14    1
    93    11    12    2
    94    14    15    1
    95    15    16    2
    96   141   138    1
    97   140   139    2
    98   105   103   am
    99   138   139    1
   100   138   137    1
   101   139   142   am
   102   103   102    1
   103   103   104    2
   104   102    99    1
   105   137   133   am
   106   142   143    1
   107   114   113    1
   108    98    99    1
   109   113   112    1
   110    99   100    1
   111   143   144    1
   112   143   146    1
   113   134   133    2
   114   133   132    1
   115   148   146    1
   116   145   144    2
   117   112   111    1
   118   146   147    1
   119   100   106   am
   120   100   101    2
   121   131   132    1
   122   111   110    1
   123   132   135    1
   124   106   107    1
   125   110   107    1
   126   107   108    1
   127   135   136    1
   128   108   109    2
   129   121   120   ar
   130   120   122   ar
   131   120   119    1
   132   115   116    1
   133   128   127    1
   134   128   129    1
   135   119   116    1
   136   116   117    1
   137   127   124    1
   138   129   130    1
   139   123   117   am
   140   123   124    1
   141   117   118    2
   142   124   125    1
   143   126   125    2
