@<TRIPOS>MOLECULE
tmp/5j5dA00.pdb
 115 103 0 0 0
SMALL
GASTEIGER

@<TRIPOS>ATOM
      1  N         93.8800  102.1530  106.1030 N.3    15  ALA15      -0.1245
      2  CA        93.0990  101.1290  105.4180 C.3    15  ALA15       0.1562
      3  C         91.9140  101.7780  104.7050 C.2    15  ALA15       0.2260
      4  O         90.8240  101.9050  105.2750 O.2    15  ALA15      -0.2867
      5  CB        92.6250  100.0590  106.4050 C.3    15  ALA15       0.0290
      6  N         91.4470   96.3580  102.2210 N.3    50  GLY50      -0.1210
      7  CA        91.5530   95.7650  103.5340 C.3    50  GLY50       0.1956
      8  C         90.1720   95.4500  104.0700 C.2    50  GLY50       0.2613
      9  O         89.1880   95.3980  103.3300 O.2    50  GLY50      -0.2717
     10  N         90.1010   95.2350  105.3840 N.am   51  THR51      -0.1938
     11  CA        88.8040   95.0240  106.0190 C.3    51  THR51       0.2028
     12  C         87.9000   96.2330  105.8140 C.2    51  THR51       0.2642
     13  O         86.7640   96.1040  105.3430 O.2    51  THR51      -0.2714
     14  CB        88.9900   94.7360  107.5080 C.3    51  THR51       0.1808
     15  OG1       89.9500   93.6860  107.6750 O.3    51  THR51      -0.2208
     16  CG2       87.6620   94.3320  108.1550 C.3    51  THR51       0.0379
     17  N         88.4040   97.4260  106.1400 N.am   52  THR52      -0.1950
     18  CA        87.6200   98.6470  106.0060 C.3    52  THR52       0.1897
     19  C         87.3520   99.0100  104.5480 C.2    52  THR52       0.2313
     20  O         86.4160   99.7650  104.2710 O.2    52  THR52      -0.2863
     21  CB        88.3410   99.7920  106.7140 C.3    52  THR52       0.1794
     22  OG1       88.9880   99.2770  107.8820 O.3    52  THR52      -0.2208
     23  CG2       87.3600  100.8730  107.1310 C.3    52  THR52       0.0378
     24  N         99.0460   92.6950  102.1760 N.3   108  LEU108     -0.1245
     25  CA        98.4450   92.5070  103.4950 C.3   108  LEU108      0.1561
     26  C         97.5590   91.2640  103.4450 C.2   108  LEU108      0.2260
     27  O         96.5250   91.2600  102.7670 O.2   108  LEU108     -0.2867
     28  CB        97.6410   93.7360  103.9140 C.3   108  LEU108      0.0270
     29  CG        97.0040   93.6670  105.3040 C.3   108  LEU108      0.0019
     30  CD1       98.0510   93.8560  106.3880 C.3   108  LEU108      0.0001
     31  CD2       95.8910   94.6890  105.4470 C.3   108  LEU108      0.0001
     32  N         98.3120   89.7140  109.1570 N.3   140  TYR140     -0.1241
     33  CA        97.1600   90.4650  109.6460 C.3   140  TYR140      0.1605
     34  C         96.3960   89.5240  110.5750 C.2   140  TYR140      0.2264
     35  O         95.7050   88.6080  110.1190 O.2   140  TYR140     -0.2867
     36  CB        96.3080   90.9700  108.4760 C.3   140  TYR140      0.0534
     37  CG        95.1350   91.8640  108.8380 C.ar  140  TYR140     -0.0201
     38  CD1       94.9400   92.3270  110.1350 C.ar  140  TYR140     -0.0009
     39  CD2       94.2140   92.2330  107.8700 C.ar  140  TYR140     -0.0009
     40  CE1       93.8600   93.1320  110.4520 C.ar  140  TYR140      0.0417
     41  CE2       93.1360   93.0320  108.1730 C.ar  140  TYR140      0.0417
     42  CZ        92.9590   93.4820  109.4600 C.ar  140  TYR140      0.1957
     43  OH        91.8690   94.2810  109.7350 O.3   140  TYR140     -0.2866
     44  N         93.7070   89.0750  113.3060 N.3   142  ILE142     -0.1245
     45  CA        92.4990   89.6800  113.8610 C.3   142  ILE142      0.1561
     46  C         91.5410   88.5560  114.2680 C.2   142  ILE142      0.2260
     47  O         90.5310   88.3150  113.5920 O.2   142  ILE142     -0.2867
     48  CB        91.9090   90.7060  112.8620 C.3   142  ILE142      0.0252
     49  CG1       90.6200   91.3540  113.3830 C.3   142  ILE142      0.0019
     50  CG2       91.7520   90.1280  111.4410 C.3   142  ILE142      0.0019
     51  CD1       90.2890   92.6740  112.7100 C.3   142  ILE142      0.0001
     52  N         87.6090   88.6930  114.3050 N.3   145  ARG145     -0.1245
     53  CA        86.8830   88.6080  113.0400 C.3   145  ARG145      0.1563
     54  C         87.0450   87.2610  112.3530 C.2   145  ARG145      0.2260
     55  O         86.0700   86.7170  111.8160 O.2   145  ARG145     -0.2867
     56  CB        87.3500   89.7120  112.0890 C.3   145  ARG145      0.0307
     57  CG        86.8360   91.1000  112.4380 C.3   145  ARG145      0.0489
     58  CD        87.1260   92.0480  111.2950 C.3   145  ARG145      0.2205
     59  NE        86.7430   93.4360  111.5380 N.pl3 145  ARG145     -0.0865
     60  CZ        85.5250   93.9180  111.2990 C.cat 145  ARG145      0.5346
     61  NH1       84.5760   93.1100  110.8450 N.pl3 145  ARG145      0.1354
     62  NH2       85.2500   95.1960  111.5220 N.pl3 145  ARG145      0.1354
     63  N        100.3080   93.2140  111.1790 N.3   168  LYS168     -0.1245
     64  CA        99.2470   94.1530  111.5270 C.3   168  LYS168      0.1561
     65  C         98.3820   93.4820  112.5870 C.2   168  LYS168      0.2260
     66  O         97.6080   92.5700  112.2800 O.2   168  LYS168     -0.2867
     67  CB        98.4050   94.5320  110.3140 C.3   168  LYS168      0.0271
     68  CG        97.2220   95.4100  110.6760 C.3   168  LYS168      0.0035
     69  CD        96.2980   95.5610  109.5090 C.3   168  LYS168      0.0206
     70  CE        95.1240   96.4500  109.8150 C.3   168  LYS168      0.1093
     71  NZ        94.2910   96.5260  108.5930 N.3   168  LYS168     -0.1314
     72  N         95.5050   93.1010  115.2080 N.3   170  ALA170     -0.1245
     73  CA        94.2230   93.4060  115.8350 C.3   170  ALA170      0.1562
     74  C         93.8660   92.3390  116.8680 C.2   170  ALA170      0.2260
     75  O         92.7040   91.9580  117.0090 O.2   170  ALA170     -0.2867
     76  CB        93.1180   93.5490  114.7890 C.3   170  ALA170      0.0290
     77  N         96.6680   97.5860  114.4510 N.3   191  GLY191     -0.1210
     78  CA        95.4250   97.3950  113.7320 C.3   191  GLY191      0.1956
     79  C         94.2410   97.7320  114.6140 C.2   191  GLY191      0.2611
     80  O         93.1150   97.2870  114.3760 O.2   191  GLY191     -0.2717
     81  N         94.5020   98.5300  115.6480 N.am  192  ASP192     -0.1973
     82  CA        93.4840   98.8930  116.6260 C.3   192  ASP192      0.1709
     83  C         93.7910  100.3140  117.0940 C.2   192  ASP192      0.2293
     84  O         94.6530  100.5090  117.9580 O.2   192  ASP192     -0.2864
     85  CB        93.4750   97.9020  117.7800 C.3   192  ASP192      0.1436
     86  CG        92.3370   98.1350  118.7350 C.2   192  ASP192      0.3671
     87  OD1       91.6530   99.1690  118.6010 O.co2 192  ASP192     -0.2456
     88  OD2       92.1330   97.2910  119.6320 O.co2 192  ASP192     -0.2456
     89  N         98.1530  101.1150  110.9520 N.3   208  ILE208     -0.1245
     90  CA        97.2910  100.8750  109.8050 C.3   208  ILE208      0.1561
     91  C         95.8790  101.2090  110.2670 C.2   208  ILE208      0.2260
     92  O         95.1010  100.3270  110.6440 O.2   208  ILE208     -0.2867
     93  CB        97.4230   99.4440  109.2670 C.3   208  ILE208      0.0252
     94  CG1       98.8840   99.1520  108.9300 C.3   208  ILE208      0.0019
     95  CG2       96.5870   99.2770  108.0150 C.3   208  ILE208      0.0019
     96  CD1       99.0890   97.7990  108.3000 C.3   208  ILE208      0.0001
     97  N         92.0860  103.4000  110.9400 N.3   210  VAL210     -0.1245
     98  CA        90.7620  103.6330  110.3780 C.3   210  VAL210      0.1561
     99  C         90.3130  105.0700  110.6080 C.2   210  VAL210      0.2260
    100  O         89.8080  105.7240  109.6950 O.2   210  VAL210     -0.2867
    101  CB        89.7300  102.6370  110.9570 C.3   210  VAL210      0.0252
    102  CG1       88.3720  102.8390  110.3110 C.3   210  VAL210      0.0019
    103  CG2       90.2020  101.2070  110.7750 C.3   210  VAL210      0.0019
    104  N         83.8610  104.4630  116.4480 N.3   248  MET248     -0.1245
    105  CA        84.1880  103.2270  115.7420 C.3   248  MET248      0.1570
    106  C         83.6880  102.0080  116.5070 C.2   248  MET248      0.2261
    107  O         83.2790  101.0140  115.8930 O.2   248  MET248     -0.2867
    108  CB        85.6980  103.1170  115.5080 C.3   248  MET248      0.0387
    109  CG        86.0860  102.4920  114.1620 C.3   248  MET248      0.0595
    110  SD        87.6470  101.5640  114.1590 S.3   248  MET248     -0.1393
    111  CE        88.6740  102.6540  115.1330 C.3   248  MET248      0.0692
    112  N         84.2220  100.0950  111.4000 N.3   253  GLY253     -0.1225
    113  CA        85.0810  100.9460  110.5860 C.3   253  GLY253      0.1811
    114  C         84.4680  101.3600  109.2590 C.2   253  GLY253      0.2280
    115  O         84.6660  102.4890  108.8060 O.2   253  GLY253     -0.2866
@<TRIPOS>BOND
     1    24    25    1
     2     6     7    1
     3    27    26    2
     4     9     8    2
     5    26    25    1
     6    25    28    1
     7     7     8    1
     8    28    29    1
     9     8    10   am
    10    20    19    2
    11    19    18    1
    12     3     4    2
    13     3     2    1
    14    29    31    1
    15    29    30    1
    16    13    12    2
    17    10    11    1
    18     2     1    1
    19     2     5    1
    20    12    11    1
    21    12    17   am
    22    18    17    1
    23    18    21    1
    24    11    14    1
    25    21    23    1
    26    21    22    1
    27    14    15    1
    28    14    16    1
    29    39    41   ar
    30    39    37   ar
    31    95    93    1
    32    41    42   ar
    33    96    94    1
    34    36    37    1
    35    36    33    1
    36    71    70    1
    37   115   114    2
    38    37    38   ar
    39    94    93    1
    40    32    33    1
    41   114   113    1
    42    93    90    1
    43    42    43    1
    44    42    40   ar
    45    69    70    1
    46    69    68    1
    47    33    34    1
    48   100    99    2
    49    90    91    1
    50    90    89    1
    51    35    34    2
    52    38    40   ar
    53    91    92    2
    54   102   101    1
    55    67    68    1
    56    67    64    1
    57    98    99    1
    58    98    97    1
    59    98   101    1
    60   113   112    1
    61   103   101    1
    62    61    60    1
    63    63    64    1
    64    58    59    1
    65    58    57    1
    66    60    62    1
    67    60    59    2
    68    50    48    1
    69    64    65    1
    70    55    54    2
    71    56    57    1
    72    56    53    1
    73    66    65    2
    74    54    53    1
    75    51    49    1
    76    48    49    1
    77    48    45    1
    78    53    52    1
    79    44    45    1
    80    47    46    2
    81    78    77    1
    82    78    79    1
    83    45    46    1
    84   110   109    1
    85   110   111    1
    86   109   108    1
    87    80    79    2
    88    79    81   am
    89    76    73    1
    90    72    73    1
    91   108   105    1
    92    81    82    1
    93   105   104    1
    94   105   106    1
    95    73    74    1
    96   107   106    2
    97    82    83    1
    98    82    85    1
    99    74    75    2
   100    83    84    2
   101    85    86    1
   102    87    86   ar
   103    86    88   ar
