@<TRIPOS>MOLECULE
tmp/5j5fD00.pdb
 108 106 0 0 0
SMALL
GASTEIGER

@<TRIPOS>ATOM
      1  N         76.0410  -33.1580  103.1320 N.3    61  TRP61      -0.1241
      2  CA        76.9150  -33.4080  104.2630 C.3    61  TRP61       0.1605
      3  C         78.1340  -32.5070  104.1050 C.2    61  TRP61       0.2264
      4  O         78.8540  -32.5860  103.1080 O.2    61  TRP61      -0.2867
      5  CB        77.3420  -34.8740  104.3430 C.3    61  TRP61       0.0550
      6  CG        76.2120  -35.8370  104.5640 C.ar   61  TRP61       0.0003
      7  CD1       74.8870  -35.5350  104.7150 C.ar   61  TRP61       0.0946
      8  CD2       76.3130  -37.2590  104.6720 C.ar   61  TRP61       0.0152
      9  NE1       74.1660  -36.6810  104.9240 N.ar   61  TRP61      -0.2442
     10  CE2       75.0160  -37.7540  104.8920 C.ar   61  TRP61       0.0810
     11  CE3       77.3820  -38.1640  104.6180 C.ar   61  TRP61       0.0012
     12  CZ2       74.7520  -39.1120  105.0470 C.ar   61  TRP61       0.0191
     13  CZ3       77.1150  -39.5120  104.7620 C.ar   61  TRP61       0.0001
     14  CH2       75.8130  -39.9720  104.9810 C.ar   61  TRP61       0.0015
     15  N         81.5050  -31.9600  104.9990 N.3    63  GLN63      -0.1231
     16  CA        82.7100  -32.5310  105.5580 C.3    63  GLN63       0.1698
     17  C         83.6510  -31.3890  105.9250 C.2    63  GLN63       0.2593
     18  O         84.0660  -30.6160  105.0610 O.2    63  GLN63      -0.2718
     19  CB        83.3760  -33.4870  104.5680 C.3    63  GLN63       0.0381
     20  CG        82.5190  -34.6880  104.1620 C.3    63  GLN63       0.0905
     21  CD        83.2770  -35.6280  103.2500 C.2    63  GLN63       0.2608
     22  OE1       83.3200  -36.8370  103.4750 O.2    63  GLN63      -0.2717
     23  NE2       83.8850  -35.0720  102.2080 N.am   63  GLN63      -0.0878
     24  N         83.9740  -31.2790  107.2060 N.am   64  THR64      -0.1939
     25  CA        84.7610  -30.1510  107.6980 C.3    64  THR64       0.2028
     26  C         85.8740  -30.6700  108.5830 C.2    64  THR64       0.2642
     27  O         85.6310  -31.4990  109.4660 O.2    64  THR64      -0.2714
     28  CB        83.8780  -29.1690  108.4980 C.3    64  THR64       0.1808
     29  OG1       82.5930  -29.0880  107.8840 O.3    64  THR64      -0.2208
     30  CG2       84.4890  -27.7900  108.5590 C.3    64  THR64       0.0379
     31  N         87.1020  -30.2120  108.3450 N.am   65  THR65      -0.1950
     32  CA        88.2060  -30.5550  109.2310 C.3    65  THR65       0.1897
     33  C         89.1010  -29.3400  109.4910 C.2    65  THR65       0.2313
     34  O         89.2180  -28.4270  108.6740 O.2    65  THR65      -0.2863
     35  CB        89.0810  -31.7140  108.6690 C.3    65  THR65       0.1794
     36  OG1       89.8340  -31.2530  107.5430 O.3    65  THR65      -0.2208
     37  CG2       88.2210  -32.8980  108.2330 C.3    65  THR65       0.0378
     38  N         77.6670  -33.3340  117.0350 N.3   110  LEU110     -0.1231
     39  CA        78.8880  -33.8840  117.6010 C.3   110  LEU110      0.1693
     40  C         80.0060  -33.8140  116.5680 C.2   110  LEU110      0.2592
     41  O         79.7560  -33.9190  115.3690 O.2   110  LEU110     -0.2718
     42  CB        78.6920  -35.3390  118.0300 C.3   110  LEU110      0.0284
     43  CG        77.5310  -35.6860  118.9570 C.3   110  LEU110      0.0019
     44  CD1       77.4830  -37.1970  119.1780 C.3   110  LEU110      0.0001
     45  CD2       77.7010  -34.9720  120.2820 C.3   110  LEU110      0.0001
     46  N         81.2310  -33.6330  117.0370 N.am  111  ALA111     -0.1966
     47  CA        82.4150  -33.7440  116.1830 C.3   111  ALA111      0.1728
     48  C         83.2840  -34.8660  116.7160 C.2   111  ALA111      0.2616
     49  O         83.1160  -35.2890  117.8540 O.2   111  ALA111     -0.2715
     50  CB        83.1990  -32.4310  116.1550 C.3   111  ALA111      0.0334
     51  N         84.2140  -35.3510  115.9050 N.am  112  ARG112     -0.1977
     52  CA        85.2240  -36.2750  116.4020 C.3   112  ARG112      0.1597
     53  C         86.5080  -35.4960  116.6500 C.2   112  ARG112      0.2287
     54  O         86.9160  -34.6850  115.8190 O.2   112  ARG112     -0.2864
     55  CB        85.4790  -37.4080  115.4050 C.3   112  ARG112      0.0334
     56  CG        84.2870  -38.3290  115.1700 C.3   112  ARG112      0.0492
     57  CD        84.1080  -39.3010  116.3160 C.3   112  ARG112      0.2205
     58  NE        85.0510  -40.4190  116.2680 N.pl3 112  ARG112     -0.0865
     59  CZ        84.9370  -41.5200  117.0140 C.cat 112  ARG112      0.5346
     60  NH1       83.9290  -41.6400  117.8740 N.pl3 112  ARG112      0.1354
     61  NH2       85.8210  -42.5080  116.9010 N.pl3 112  ARG112      0.1354
     62  N         87.0570  -33.4560  113.2710 N.3   120  LEU120     -0.1231
     63  CA        86.2030  -33.7900  112.1200 C.3   120  LEU120      0.1693
     64  C         84.7640  -33.4640  112.4560 C.2   120  LEU120      0.2592
     65  O         84.2530  -33.9240  113.4750 O.2   120  LEU120     -0.2718
     66  CB        86.3150  -35.2740  111.7620 C.3   120  LEU120      0.0284
     67  CG        87.7220  -35.8530  111.9720 C.3   120  LEU120      0.0019
     68  CD1       87.6990  -37.3760  111.9050 C.3   120  LEU120      0.0001
     69  CD2       88.6470  -35.3020  110.9220 C.3   120  LEU120      0.0001
     70  N         84.1100  -32.6890  111.5970 N.am  121  TYR121     -0.1962
     71  CA        82.7450  -32.2370  111.8320 C.3   121  TYR121      0.1771
     72  C         81.9840  -32.3540  110.5200 C.2   121  TYR121      0.2619
     73  O         82.4310  -31.8410  109.4920 O.2   121  TYR121     -0.2715
     74  CB        82.7400  -30.7990  112.3670 C.3   121  TYR121      0.0574
     75  CG        81.3790  -30.1620  112.5130 C.ar  121  TYR121     -0.0198
     76  CD1       80.3790  -30.7710  113.2650 C.ar  121  TYR121     -0.0009
     77  CD2       81.1060  -28.9340  111.9260 C.ar  121  TYR121     -0.0009
     78  CE1       79.1410  -30.1900  113.4100 C.ar  121  TYR121      0.0417
     79  CE2       79.8670  -28.3380  112.0680 C.ar  121  TYR121      0.0417
     80  CZ        78.8870  -28.9720  112.8100 C.ar  121  TYR121      0.1957
     81  OH        77.6480  -28.3940  112.9470 O.3   121  TYR121     -0.2866
     82  N         80.8630  -33.0630  110.5340 N.am  122  MET122     -0.1977
     83  CA        80.0960  -33.2370  109.2970 C.3   122  MET122      0.1605
     84  C         78.6050  -33.2330  109.5750 C.2   122  MET122      0.2287
     85  O         77.9790  -34.2900  109.7260 O.2   122  MET122     -0.2864
     86  CB        80.4990  -34.5290  108.5850 C.3   122  MET122      0.0413
     87  CG        79.8090  -34.7500  107.2180 C.3   122  MET122      0.0598
     88  SD        80.3350  -36.3090  106.4450 S.3   122  MET122     -0.1393
     89  CE        79.4000  -37.4910  107.4090 C.3   122  MET122      0.0692
     90  N         88.8400  -29.6210   99.7320 N.3   163  THR163     -0.1218
     91  CA        89.5940  -30.8660   99.8350 C.3   163  THR163      0.1862
     92  C         89.5860  -31.6410   98.5190 C.2   163  THR163      0.2287
     93  O         89.5520  -31.0530   97.4370 O.2   163  THR163     -0.2866
     94  CB        89.0260  -31.7580  100.9470 C.3   163  THR163      0.1770
     95  OG1       87.9450  -32.5430  100.4260 O.3   163  THR163     -0.2211
     96  CG2       88.5200  -30.9010  102.0930 C.3   163  THR163      0.0375
     97  N         77.2420  -40.7700   97.7990 N.3   170  TYR170     -0.1241
     98  CA        76.4050  -39.9850   98.7030 C.3   170  TYR170      0.1605
     99  C         75.0400  -39.6070   98.1320 C.2   170  TYR170      0.2264
    100  O         74.0400  -39.6340   98.8500 O.2   170  TYR170     -0.2867
    101  CB        77.1450  -38.7080   99.1220 C.3   170  TYR170      0.0534
    102  CG        78.4540  -38.9600   99.8510 C.ar  170  TYR170     -0.0201
    103  CD1       78.4990  -39.0610  101.2380 C.ar  170  TYR170     -0.0009
    104  CD2       79.6390  -39.1110   99.1490 C.ar  170  TYR170     -0.0009
    105  CE1       79.6940  -39.2930  101.8960 C.ar  170  TYR170      0.0417
    106  CE2       80.8250  -39.3470   99.7930 C.ar  170  TYR170      0.0417
    107  CZ        80.8510  -39.4340  101.1650 C.ar  170  TYR170      0.1957
    108  OH        82.0430  -39.6660  101.7960 O.3   170  TYR170     -0.2866
@<TRIPOS>BOND
     1    93    92    2
     2    97    98    1
     3    99    98    1
     4    99   100    2
     5    92    91    1
     6    98   101    1
     7   101   102    1
     8   104   106   ar
     9   104   102   ar
    10    90    91    1
    11   106   107   ar
    12    91    94    1
    13   102   103   ar
    14    95    94    1
    15    94    96    1
    16   107   108    1
    17   107   105   ar
    18   103   105   ar
    19    23    21   am
    20     4     3    2
    21     1     2    1
    22    21    22    2
    23    21    20    1
    24     3     2    1
    25    20    19    1
    26     2     5    1
    27     5     6    1
    28     6     8   ar
    29     6     7   ar
    30    19    16    1
    31    11     8   ar
    32    11    13   ar
    33     8    10   ar
    34     7     9   ar
    35    13    14   ar
    36    10     9   ar
    37    10    12   ar
    38    14    12   ar
    39    15    16    1
    40    18    17    2
    41    16    17    1
    42    17    24   am
    43    88    87    1
    44    88    89    1
    45    24    25    1
    46    87    86    1
    47    36    35    1
    48    25    28    1
    49    25    26    1
    50    29    28    1
    51    37    35    1
    52    31    26   am
    53    31    32    1
    54    28    30    1
    55    26    27    2
    56    86    83    1
    57    35    32    1
    58    34    33    2
    59    32    33    1
    60    83    84    1
    61    83    82    1
    62    73    72    2
    63    84    85    2
    64    72    82   am
    65    72    71    1
    66    69    67    1
    67    70    71    1
    68    70    64   am
    69    66    67    1
    70    66    63    1
    71    71    74    1
    72    68    67    1
    73    77    79   ar
    74    77    75   ar
    75    79    80   ar
    76    63    64    1
    77    63    62    1
    78    74    75    1
    79    64    65    2
    80    75    76   ar
    81    80    81    1
    82    80    78   ar
    83    76    78   ar
    84    56    55    1
    85    56    57    1
    86    41    40    2
    87    55    52    1
    88    54    53    2
    89    51    52    1
    90    51    48   am
    91    50    47    1
    92    47    48    1
    93    47    46    1
    94    58    57    1
    95    58    59    2
    96    52    53    1
    97    40    46   am
    98    40    39    1
    99    48    49    2
   100    61    59    1
   101    59    60    1
   102    38    39    1
   103    39    42    1
   104    42    43    1
   105    43    44    1
   106    43    45    1
