@<TRIPOS>MOLECULE
tmp/5j5gC00.pdb
 120 116 0 0 0
SMALL
GASTEIGER

@<TRIPOS>ATOM
      1  N        168.3370   45.7260  112.0760 N.3    38  SER38      -0.1217
      2  CA       168.2530   45.8140  110.6260 C.3    38  SER38       0.1889
      3  C        167.6350   44.5430  110.0840 C.2    38  SER38       0.2288
      4  O        168.0390   43.4340  110.4590 O.2    38  SER38      -0.2866
      5  CB       169.6330   46.0510  110.0070 C.3    38  SER38       0.2089
      6  OG       170.2140   47.2210  110.5530 O.3    38  SER38      -0.2183
      7  N        165.9530   42.6950  106.4010 N.3    40  SER40      -0.1217
      8  CA       165.7610   42.7360  104.9600 C.3    40  SER40       0.1889
      9  C        165.2520   41.3870  104.4690 C.2    40  SER40       0.2288
     10  O        165.9270   40.3760  104.6240 O.2    40  SER40      -0.2866
     11  CB       167.0650   43.0930  104.2480 C.3    40  SER40       0.2089
     12  OG       166.8990   43.0040  102.8460 O.3    40  SER40      -0.2183
     13  N        164.0500   34.5650  103.0240 N.3    61  TRP61      -0.1241
     14  CA       165.1050   34.5940  104.0300 C.3    61  TRP61       0.1605
     15  C        165.0110   35.9410  104.7430 C.2    61  TRP61       0.2264
     16  O        165.1160   37.0010  104.1120 O.2    61  TRP61      -0.2867
     17  CB       166.4780   34.3980  103.3920 C.3    61  TRP61       0.0550
     18  CG       166.6320   33.0610  102.7180 C.ar   61  TRP61       0.0003
     19  CD1      165.7210   32.0280  102.6920 C.ar   61  TRP61       0.0946
     20  CD2      167.7660   32.6120  101.9800 C.ar   61  TRP61       0.0152
     21  NE1      166.2300   30.9690  101.9780 N.ar   61  TRP61      -0.2442
     22  CE2      167.4800   31.3040  101.5280 C.ar   61  TRP61       0.0810
     23  CE3      168.9930   33.1910  101.6450 C.ar   61  TRP61       0.0012
     24  CZ2      168.3860   30.5700  100.7620 C.ar   61  TRP61       0.0191
     25  CZ3      169.8870   32.4540  100.8870 C.ar   61  TRP61       0.0001
     26  CH2      169.5840   31.1600  100.4650 C.ar   61  TRP61       0.0015
     27  N        166.7880   38.2200  106.5560 N.3    63  GLN63      -0.1231
     28  CA       168.0950   38.7310  106.9290 C.3    63  GLN63       0.1698
     29  C        167.9700   39.7130  108.0880 C.2    63  GLN63       0.2593
     30  O        167.3780   40.7740  107.9400 O.2    63  GLN63      -0.2718
     31  CB       168.7520   39.4080  105.7270 C.3    63  GLN63       0.0381
     32  CG       169.0520   38.4530  104.5870 C.3    63  GLN63       0.0905
     33  CD       169.7180   39.1380  103.4090 C.2    63  GLN63       0.2608
     34  OE1      170.7220   38.6470  102.8820 O.2    63  GLN63      -0.2717
     35  NE2      169.1520   40.2700  102.9760 N.am   63  GLN63      -0.0878
     36  N        168.5050   39.3440  109.2440 N.am   64  THR64      -0.1939
     37  CA       168.3390   40.1500  110.4460 C.3    64  THR64       0.2028
     38  C        169.6740   40.3520  111.1410 C.2    64  THR64       0.2642
     39  O        170.4520   39.4100  111.2760 O.2    64  THR64      -0.2714
     40  CB       167.3390   39.4830  111.4310 C.3    64  THR64       0.1808
     41  OG1      166.2830   38.8600  110.6910 O.3    64  THR64      -0.2208
     42  CG2      166.7510   40.4960  112.3990 C.3    64  THR64       0.0379
     43  N        169.9530   41.5820  111.5720 N.am   65  THR65      -0.1950
     44  CA       171.1500   41.8210  112.3610 C.3    65  THR65       0.1897
     45  C        170.9530   42.9330  113.3940 C.2    65  THR65       0.2313
     46  O        170.1130   43.8130  113.2490 O.2    65  THR65      -0.2863
     47  CB       172.3670   42.1580  111.4660 C.3    65  THR65       0.1794
     48  OG1      173.5760   42.0200  112.2310 O.3    65  THR65      -0.2208
     49  CG2      172.2650   43.5750  110.9170 C.3    65  THR65       0.0378
     50  N        170.0790   28.6760  114.1680 N.3   110  LEU110     -0.1231
     51  CA       171.3810   29.1520  114.6130 C.3   110  LEU110      0.1693
     52  C        171.5990   30.5820  114.1480 C.2   110  LEU110      0.2592
     53  O        171.1140   30.9800  113.0890 O.2   110  LEU110     -0.2718
     54  CB       172.5130   28.2800  114.0650 C.3   110  LEU110      0.0284
     55  CG       172.4350   26.7780  114.2840 C.3   110  LEU110      0.0019
     56  CD1      173.6040   26.1260  113.5810 C.3   110  LEU110      0.0001
     57  CD2      172.4900   26.4930  115.7820 C.3   110  LEU110      0.0001
     58  N        172.3500   31.3420  114.9320 N.am  111  ALA111     -0.1966
     59  CA       172.7540   32.6750  114.5200 C.3   111  ALA111      0.1728
     60  C        174.2680   32.7100  114.4520 C.2   111  ALA111      0.2616
     61  O        174.9400   31.8310  114.9960 O.2   111  ALA111     -0.2715
     62  CB       172.2280   33.7280  115.4870 C.3   111  ALA111      0.0334
     63  N        174.8050   33.7260  113.7920 N.am  112  ARG112     -0.1977
     64  CA       176.2400   33.9730  113.8450 C.3   112  ARG112      0.1597
     65  C        176.5200   35.1080  114.8160 C.2   112  ARG112      0.2287
     66  O        175.8700   36.1480  114.7590 O.2   112  ARG112     -0.2864
     67  CB       176.7910   34.3060  112.4500 C.3   112  ARG112      0.0334
     68  CG       176.8150   33.1110  111.5050 C.3   112  ARG112      0.0492
     69  CD       177.8400   32.0610  111.9590 C.3   112  ARG112      0.2205
     70  NE       179.1970   32.3700  111.4940 N.pl3 112  ARG112     -0.0865
     71  CZ       180.2050   31.5000  111.4950 C.cat 112  ARG112      0.5346
     72  NH1      180.0180   30.2620  111.9450 N.pl3 112  ARG112      0.1354
     73  NH2      181.4000   31.8610  111.0340 N.pl3 112  ARG112      0.1354
     74  N        174.0780   37.9730  113.6020 N.3   120  LEU120     -0.1231
     75  CA       173.3710   37.7790  112.3310 C.3   120  LEU120      0.1693
     76  C        172.4720   36.5610  112.4110 C.2   120  LEU120      0.2592
     77  O        172.9200   35.4840  112.7910 O.2   120  LEU120     -0.2718
     78  CB       174.3530   37.6220  111.1660 C.3   120  LEU120      0.0284
     79  CG       175.2910   38.8180  110.9490 C.3   120  LEU120      0.0019
     80  CD1      176.6010   38.5660  111.6190 C.3   120  LEU120      0.0001
     81  CD2      175.5060   39.0830  109.4720 C.3   120  LEU120      0.0001
     82  N        171.2110   36.7440  112.0290 N.am  121  TYR121     -0.1962
     83  CA       170.2060   35.7000  112.1030 C.3   121  TYR121      0.1771
     84  C        169.4010   35.7300  110.8000 C.2   121  TYR121      0.2619
     85  O        168.9030   36.7760  110.4050 O.2   121  TYR121     -0.2715
     86  CB       169.3130   35.9250  113.3310 C.3   121  TYR121      0.0574
     87  CG       168.1190   34.9940  113.4570 C.ar  121  TYR121     -0.0198
     88  CD1      168.2750   33.6120  113.4120 C.ar  121  TYR121     -0.0009
     89  CD2      166.8420   35.5050  113.6570 C.ar  121  TYR121     -0.0009
     90  CE1      167.1900   32.7660  113.5410 C.ar  121  TYR121      0.0417
     91  CE2      165.7530   34.6720  113.7880 C.ar  121  TYR121      0.0417
     92  CZ       165.9350   33.3030  113.7320 C.ar  121  TYR121      0.1957
     93  OH       164.8540   32.4700  113.8690 O.3   121  TYR121     -0.2866
     94  N        169.3150   34.6020  110.1070 N.am  122  MET122     -0.1977
     95  CA       168.6310   34.5860  108.8150 C.3   122  MET122      0.1605
     96  C        167.8670   33.2850  108.6380 C.2   122  MET122      0.2287
     97  O        168.3540   32.3530  107.9980 O.2   122  MET122     -0.2864
     98  CB       169.6210   34.7780  107.6590 C.3   122  MET122      0.0413
     99  CG       168.9250   34.9740  106.2750 C.3   122  MET122      0.0598
    100  SD       170.0690   35.1690  104.8800 S.3   122  MET122     -0.1393
    101  CE       170.7360   33.5190  104.7310 C.3   122  MET122      0.0692
    102  N        167.5320   47.4070  105.2650 N.3   163  THR163     -0.1218
    103  CA       168.8900   47.5990  104.7630 C.3   163  THR163      0.1862
    104  C        168.8200   48.1710  103.3520 C.2   163  THR163      0.2287
    105  O        168.9440   49.3770  103.1410 O.2   163  THR163     -0.2866
    106  CB       169.6980   46.2810  104.7410 C.3   163  THR163      0.1770
    107  OG1      169.4710   45.5440  105.9480 O.3   163  THR163     -0.2211
    108  CG2      171.1840   46.5670  104.5970 C.3   163  THR163      0.0375
    109  N        168.4070   35.6210   94.7370 N.3   172  TYR172     -0.1241
    110  CA       167.6730   34.8190   95.7080 C.3   172  TYR172      0.1605
    111  C        166.4190   34.1610   95.1450 C.2   172  TYR172      0.2264
    112  O        166.1350   33.0070   95.4490 O.2   172  TYR172     -0.2867
    113  CB       167.2980   35.6900   96.9100 C.3   172  TYR172      0.0534
    114  CG       168.4980   36.2220   97.6620 C.ar  172  TYR172     -0.0201
    115  CD1      169.0520   37.4560   97.3420 C.ar  172  TYR172     -0.0009
    116  CD2      169.0680   35.4960   98.6970 C.ar  172  TYR172     -0.0009
    117  CE1      170.1540   37.9450   98.0250 C.ar  172  TYR172      0.0417
    118  CE2      170.1710   35.9780   99.3950 C.ar  172  TYR172      0.0417
    119  CZ       170.7050   37.2070   99.0530 C.ar  172  TYR172      0.1957
    120  OH       171.7950   37.6910   99.7390 O.3   172  TYR172     -0.2866
@<TRIPOS>BOND
     1   109   110    1
     2   111   112    2
     3   111   110    1
     4   110   113    1
     5   113   114    1
     6   115   114   ar
     7   115   117   ar
     8   114   116   ar
     9   117   119   ar
    10   116   118   ar
    11   119   118   ar
    12   119   120    1
    13    26    24   ar
    14    26    25   ar
    15    24    22   ar
    16    25    23   ar
    17    22    21   ar
    18    22    20   ar
    19    23    20   ar
    20    21    19   ar
    21    20    18   ar
    22    19    18   ar
    23    18    17    1
    24    12    11    1
    25    34    33    2
    26    35    33   am
    27    13    14    1
    28   105   104    2
    29   104   103    1
    30    17    14    1
    31    33    32    1
    32    14    15    1
    33    16    15    2
    34    11     8    1
    35     9    10    2
    36     9     8    1
    37    32    31    1
    38   108   106    1
    39   101   100    1
    40   106   103    1
    41   106   107    1
    42   103   102    1
    43   100    99    1
    44     8     7    1
    45    31    28    1
    46    99    98    1
    47    27    28    1
    48    28    29    1
    49    98    95    1
    50    30    29    2
    51    97    96    2
    52    29    36   am
    53    96    95    1
    54    95    94    1
    55    36    37    1
    56    81    79    1
    57     5     6    1
    58     5     2    1
    59     3     4    2
    60     3     2    1
    61    94    84   am
    62    85    84    2
    63    37    38    1
    64    37    40    1
    65     2     1    1
    66    41    40    1
    67    84    83    1
    68    49    47    1
    69    79    78    1
    70    79    80    1
    71    73    71    1
    72    38    39    2
    73    38    43   am
    74    78    75    1
    75    40    42    1
    76    47    48    1
    77    47    44    1
    78    70    71    2
    79    70    69    1
    80    71    72    1
    81    68    69    1
    82    68    67    1
    83    43    44    1
    84    82    83    1
    85    82    76   am
    86    83    86    1
    87    75    76    1
    88    75    74    1
    89    44    45    1
    90    76    77    2
    91    67    64    1
    92    53    52    2
    93    46    45    2
    94    86    87    1
    95    88    87   ar
    96    88    90   ar
    97    87    89   ar
    98    90    92   ar
    99    56    55    1
   100    89    91   ar
   101    92    91   ar
   102    92    93    1
   103    63    64    1
   104    63    60   am
   105    64    65    1
   106    54    55    1
   107    54    51    1
   108    52    51    1
   109    52    58   am
   110    50    51    1
   111    55    57    1
   112    60    59    1
   113    60    61    2
   114    59    58    1
   115    59    62    1
   116    66    65    2
