@<TRIPOS>MOLECULE
tmp/5j5hD00.pdb
 107 105 0 0 0
SMALL
GASTEIGER

@<TRIPOS>ATOM
      1  N        -21.6720   -9.6030   18.7690 N.3    35  SER35      -0.1217
      2  CA       -22.5100   -9.2220   19.9030 C.3    35  SER35       0.1889
      3  C        -23.9080   -9.0370   19.3700 C.2    35  SER35       0.2288
      4  O        -24.1190   -8.2800   18.4160 O.2    35  SER35      -0.2866
      5  CB       -22.0400   -7.9260   20.5720 C.3    35  SER35       0.2089
      6  OG       -21.0480   -8.1780   21.5350 O.3    35  SER35      -0.2183
      7  N        -29.7580   -6.4630   16.8810 N.3    56  TRP56      -0.1241
      8  CA       -28.6510   -5.7700   16.2210 C.3    56  TRP56       0.1605
      9  C        -27.3790   -6.6190   16.2710 C.2    56  TRP56       0.2264
     10  O        -26.7710   -6.7550   17.3310 O.2    56  TRP56      -0.2867
     11  CB       -28.3960   -4.4100   16.8800 C.3    56  TRP56       0.0550
     12  CG       -29.4480   -3.3720   16.5950 C.ar   56  TRP56       0.0003
     13  CD1      -30.5870   -3.5360   15.8630 C.ar   56  TRP56       0.0946
     14  CD2      -29.4350   -1.9970   17.0140 C.ar   56  TRP56       0.0152
     15  NE1      -31.2830   -2.3500   15.8000 N.ar   56  TRP56      -0.2442
     16  CE2      -30.5960   -1.3910   16.4960 C.ar   56  TRP56       0.0810
     17  CE3      -28.5480   -1.2220   17.7630 C.ar   56  TRP56       0.0012
     18  CZ2      -30.9090   -0.0430   16.7290 C.ar   56  TRP56       0.0191
     19  CZ3      -28.8600    0.1180   17.9910 C.ar   56  TRP56       0.0001
     20  CH2      -30.0320    0.6920   17.4760 C.ar   56  TRP56       0.0015
     21  N        -24.0660   -6.8190   16.2760 N.3    58  GLN58      -0.1231
     22  CA       -22.7810   -6.1380   16.3540 C.3    58  GLN58       0.1698
     23  C        -21.6320   -7.0450   15.9430 C.2    58  GLN58       0.2593
     24  O        -21.2830   -7.9970   16.6470 O.2    58  GLN58      -0.2718
     25  CB       -22.5430   -5.5940   17.7510 C.3    58  GLN58       0.0381
     26  CG       -23.1120   -4.1890   17.9900 C.3    58  GLN58       0.0905
     27  CD       -23.2620   -3.8610   19.4650 C.2    58  GLN58       0.2608
     28  OE1      -22.8630   -4.6540   20.3250 O.2    58  GLN58      -0.2717
     29  NE2      -23.7480   -2.6510   19.7650 N.am   58  GLN58      -0.0878
     30  N        -21.0440   -6.7220   14.7930 N.am   59  THR59      -0.1939
     31  CA       -19.9840   -7.5330   14.2320 C.3    59  THR59       0.2028
     32  C        -18.7770   -6.6920   13.9220 C.2    59  THR59       0.2642
     33  O        -18.8900   -5.6110   13.3310 O.2    59  THR59      -0.2714
     34  CB       -20.4330   -8.2310   12.9740 C.3    59  THR59       0.1808
     35  OG1      -21.7700   -8.7060   13.1730 O.3    59  THR59      -0.2208
     36  CG2      -19.5220   -9.3960   12.7110 C.3    59  THR59       0.0379
     37  N        -17.6190   -7.1880   14.3270 N.am   60  THR60      -0.1950
     38  CA       -16.3910   -6.4860   14.0400 C.3    60  THR60       0.1897
     39  C        -15.2630   -7.4570   13.7980 C.2    60  THR60       0.2313
     40  O        -15.1570   -8.5130   14.4220 O.2    60  THR60      -0.2863
     41  CB       -15.9970   -5.5110   15.1810 C.3    60  THR60       0.1794
     42  OG1      -14.6430   -5.0730   15.0070 O.3    60  THR60      -0.2208
     43  CG2      -16.0860   -6.1880   16.4940 C.3    60  THR60       0.0378
     44  N        -24.5710   -1.3720    4.9310 N.3   105  LEU105     -0.1231
     45  CA       -23.3060   -0.6540    4.9090 C.3   105  LEU105      0.1693
     46  C        -22.4960   -0.9730    6.1400 C.2   105  LEU105      0.2592
     47  O        -23.0420   -1.3610    7.1920 O.2   105  LEU105     -0.2718
     48  CB       -23.5160    0.8460    4.8510 C.3   105  LEU105      0.0284
     49  CG       -24.4190    1.4500    3.7970 C.3   105  LEU105      0.0019
     50  CD1      -24.6370    2.9140    4.2170 C.3   105  LEU105      0.0001
     51  CD2      -23.7350    1.3440    2.4540 C.3   105  LEU105      0.0001
     52  N        -21.1890   -0.7940    6.0050 N.am  106  ALA106     -0.1966
     53  CA       -20.2920   -0.9910    7.1200 C.3   106  ALA106      0.1728
     54  C        -19.4060    0.2520    7.2960 C.2   106  ALA106      0.2616
     55  O        -19.3890    1.1650    6.4540 O.2   106  ALA106     -0.2715
     56  CB       -19.4550   -2.2310    6.9160 C.3   106  ALA106      0.0334
     57  N        -18.6970    0.2900    8.4160 N.am  107  ARG107     -0.1977
     58  CA       -17.7550    1.3480    8.6750 C.3   107  ARG107      0.1597
     59  C        -16.3650    0.7590    8.6920 C.2   107  ARG107      0.2287
     60  O        -16.0560   -0.1470    9.4770 O.2   107  ARG107     -0.2864
     61  CB       -18.0770    2.0370    9.9950 C.3   107  ARG107      0.0334
     62  CG       -19.4220    2.7320    9.9920 C.3   107  ARG107      0.0492
     63  CD       -19.3880    3.9660    9.1220 C.3   107  ARG107      0.2205
     64  NE       -18.6150    5.0050    9.7850 N.pl3 107  ARG107     -0.0865
     65  CZ       -18.6150    6.2850    9.4400 C.cat 107  ARG107      0.5346
     66  NH1      -19.3400    6.7040    8.4100 N.pl3 107  ARG107      0.1354
     67  NH2      -17.8710    7.1360   10.1190 N.pl3 107  ARG107      0.1354
     68  N        -16.5990   -2.3800   11.0160 N.3   115  LEU115     -0.1231
     69  CA       -17.6770   -2.2530   11.9470 C.3   115  LEU115      0.1693
     70  C        -18.9990   -2.4630   11.2280 C.2   115  LEU115      0.2592
     71  O        -19.4210   -1.6050   10.4440 O.2   115  LEU115     -0.2718
     72  CB       -17.6200   -0.8710   12.5980 C.3   115  LEU115      0.0284
     73  CG       -16.6470   -0.7630   13.7710 C.3   115  LEU115      0.0019
     74  CD1      -16.3690    0.6890   14.1150 C.3   115  LEU115      0.0001
     75  CD2      -17.2810   -1.4640   14.9420 C.3   115  LEU115      0.0001
     76  N        -19.6550   -3.5940   11.4880 N.am  116  TYR116     -0.1962
     77  CA       -20.8720   -3.9300   10.7560 C.3   116  TYR116      0.1771
     78  C        -21.9540   -4.4240   11.7060 C.2   116  TYR116      0.2619
     79  O        -21.7200   -5.2720   12.5410 O.2   116  TYR116     -0.2715
     80  CB       -20.5550   -4.9650    9.6590 C.3   116  TYR116      0.0574
     81  CG       -21.7570   -5.5590    8.9320 C.ar  116  TYR116     -0.0198
     82  CD1      -22.5910   -4.7670    8.1530 C.ar  116  TYR116     -0.0009
     83  CD2      -22.0430   -6.9270    9.0410 C.ar  116  TYR116     -0.0009
     84  CE1      -23.6760   -5.3080    7.5120 C.ar  116  TYR116      0.0417
     85  CE2      -23.1250   -7.4880    8.4070 C.ar  116  TYR116      0.0417
     86  CZ       -23.9450   -6.6860    7.6380 C.ar  116  TYR116      0.1957
     87  OH       -25.0280   -7.2580    6.9920 O.3   116  TYR116     -0.2866
     88  N        -23.1440   -3.8630   11.5930 N.am  117  MET117     -0.1977
     89  CA       -24.1860   -4.0970   12.5890 C.3   117  MET117      0.1605
     90  C        -25.5380   -4.1130   11.9020 C.2   117  MET117      0.2287
     91  O        -26.2150   -3.0980   11.8260 O.2   117  MET117     -0.2864
     92  CB       -24.1490   -3.0290   13.6900 C.3   117  MET117      0.0413
     93  CG       -25.1280   -3.2640   14.8220 C.3   117  MET117      0.0598
     94  SD       -25.0760   -2.0300   16.1560 S.3   117  MET117     -0.1393
     95  CE       -25.8940   -0.6090   15.4070 C.3   117  MET117      0.0692
     96  N        -31.3200   -0.6760   24.2070 N.3   167  TYR167     -0.1241
     97  CA       -31.6260   -1.2890   22.9330 C.3   167  TYR167      0.1605
     98  C        -33.0120   -1.8600   22.9060 C.2   167  TYR167      0.2264
     99  O        -33.6850   -1.8000   21.8850 O.2   167  TYR167     -0.2867
    100  CB       -30.6220   -2.3880   22.6250 C.3   167  TYR167      0.0534
    101  CG       -29.2020   -1.9110   22.5150 C.ar  167  TYR167     -0.0201
    102  CD1      -28.6610   -1.5990   21.2870 C.ar  167  TYR167     -0.0009
    103  CD2      -28.3940   -1.7830   23.6360 C.ar  167  TYR167     -0.0009
    104  CE1      -27.3650   -1.1820   21.1670 C.ar  167  TYR167      0.0417
    105  CE2      -27.0900   -1.3580   23.5290 C.ar  167  TYR167      0.0417
    106  CZ       -26.5830   -1.0590   22.2810 C.ar  167  TYR167      0.1957
    107  OH       -25.2870   -0.6290   22.1220 O.3   167  TYR167     -0.2866
@<TRIPOS>BOND
     1    51    49    1
     2    49    50    1
     3    49    48    1
     4    48    45    1
     5    45    44    1
     6    45    46    1
     7    52    46   am
     8    52    53    1
     9    46    47    2
    10    55    54    2
    11    56    53    1
    12    87    86    1
    13    53    54    1
    14    54    57   am
    15    84    86   ar
    16    84    82   ar
    17    86    85   ar
    18    82    81   ar
    19    85    83   ar
    20    66    65    1
    21    57    58    1
    22    58    59    1
    23    58    61    1
    24    59    60    2
    25    81    83   ar
    26    81    80    1
    27    63    64    1
    28    63    62    1
    29    65    64    2
    30    65    67    1
    31    80    77    1
    32    62    61    1
    33    71    70    2
    34    77    76    1
    35    77    78    1
    36    68    69    1
    37    70    76   am
    38    70    69    1
    39    88    78   am
    40    88    89    1
    41    78    79    2
    42    91    90    2
    43    90    89    1
    44    69    72    1
    45    89    92    1
    46    72    73    1
    47    36    34    1
    48    34    35    1
    49    34    31    1
    50    33    32    2
    51    92    93    1
    52    73    74    1
    53    73    75    1
    54    39    38    1
    55    39    40    2
    56    32    31    1
    57    32    37   am
    58    38    37    1
    59    38    41    1
    60    31    30    1
    61    30    23   am
    62    93    94    1
    63    42    41    1
    64    41    43    1
    65    95    94    1
    66    15    13   ar
    67    15    16   ar
    68    13    12   ar
    69    23    22    1
    70    23    24    2
    71     8     9    1
    72     8    11    1
    73     8     7    1
    74     9    10    2
    75    21    22    1
    76    22    25    1
    77    16    18   ar
    78    16    14   ar
    79    12    11    1
    80    12    14   ar
    81    18    20   ar
    82    14    17   ar
    83    20    19   ar
    84    25    26    1
    85    17    19   ar
    86    26    27    1
    87     4     3    2
    88     1     2    1
    89     3     2    1
    90    27    29   am
    91    27    28    2
    92     2     5    1
    93     5     6    1
    94   104   102   ar
    95   104   106   ar
    96   102   101   ar
    97    99    98    2
    98   107   106    1
    99   106   105   ar
   100   101   100    1
   101   101   103   ar
   102   100    97    1
   103    98    97    1
   104    97    96    1
   105   105   103   ar
