@<TRIPOS>MOLECULE
tmp/5j5kA01.pdb
 199 181 0 0 0
SMALL
GASTEIGER

@<TRIPOS>ATOM
      1  N         10.3040   81.6430   19.3000 N.3    12  ILE12      -0.1245
      2  CA         8.8620   81.8690   19.4130 C.3    12  ILE12       0.1561
      3  C          8.1180   81.3360   18.1700 C.2    12  ILE12       0.2260
      4  O          7.0900   80.6430   18.2870 O.2    12  ILE12      -0.2867
      5  CB         8.5470   83.3510   19.6570 C.3    12  ILE12       0.0252
      6  CG1        8.9930   83.7580   21.0670 C.3    12  ILE12       0.0019
      7  CG2        7.0260   83.6410   19.4960 C.3    12  ILE12       0.0019
      8  CD1        8.9450   85.2930   21.3070 C.3    12  ILE12       0.0001
      9  N          5.2580   78.3410   18.0560 N.3    16  ILE16      -0.1245
     10  CA         3.9260   78.5380   17.4790 C.3    16  ILE16       0.1561
     11  C          3.5980   77.4610   16.4380 C.2    16  ILE16       0.2260
     12  O          2.5080   76.8920   16.4390 O.2    16  ILE16      -0.2867
     13  CB         3.7870   79.9250   16.8310 C.3    16  ILE16       0.0252
     14  CG1        3.8270   81.0210   17.9010 C.3    16  ILE16       0.0019
     15  CG2        2.4650   80.0420   16.0400 C.3    16  ILE16       0.0019
     16  CD1        4.1290   82.4000   17.3370 C.3    16  ILE16       0.0001
     17  N          2.9610   74.2020   18.0450 N.3    19  LEU19      -0.1245
     18  CA         1.6400   74.2260   18.6550 C.3    19  LEU19       0.1561
     19  C          0.5370   73.9960   17.6060 C.2    19  LEU19       0.2260
     20  O         -0.4210   73.2600   17.8480 O.2    19  LEU19      -0.2867
     21  CB         1.4270   75.5430   19.4040 C.3    19  LEU19       0.0270
     22  CG         0.3180   75.6580   20.4360 C.3    19  LEU19       0.0019
     23  CD1        0.4640   74.6370   21.5610 C.3    19  LEU19       0.0001
     24  CD2        0.2980   77.0980   21.0010 C.3    19  LEU19       0.0001
     25  N         -2.5080   71.1960   17.3960 N.3    23  PHE23      -0.1241
     26  CA        -3.9110   71.5010   17.1300 C.3    23  PHE23       0.1605
     27  C         -4.4670   70.6880   15.9590 C.2    23  PHE23       0.2264
     28  O         -5.5560   70.1330   16.0420 O.2    23  PHE23      -0.2867
     29  CB        -4.1060   72.9810   16.8030 C.3    23  PHE23       0.0534
     30  CG        -3.7150   73.9170   17.9130 C.ar   23  PHE23      -0.0203
     31  CD1       -3.7560   73.5190   19.2540 C.ar   23  PHE23      -0.0042
     32  CD2       -3.3410   75.2150   17.6190 C.ar   23  PHE23      -0.0042
     33  CE1       -3.4010   74.3930   20.2600 C.ar   23  PHE23      -0.0003
     34  CE2       -2.9950   76.0960   18.6290 C.ar   23  PHE23      -0.0003
     35  CZ        -3.0260   75.6780   19.9530 C.ar   23  PHE23      -0.0000
     36  N         -5.2080   67.1670   17.0010 N.3    26  PHE26      -0.1241
     37  CA        -6.0760   66.9930   18.1750 C.3    26  PHE26       0.1605
     38  C         -7.4030   66.3110   17.8050 C.2    26  PHE26       0.2264
     39  O         -8.1020   66.7500   16.8870 O.2    26  PHE26      -0.2867
     40  CB        -6.3150   68.3620   18.8260 C.3    26  PHE26       0.0534
     41  CG        -7.0810   68.3200   20.1270 C.ar   26  PHE26      -0.0203
     42  CD1       -6.6680   67.5140   21.1780 C.ar   26  PHE26      -0.0042
     43  CD2       -8.2000   69.1320   20.3110 C.ar   26  PHE26      -0.0042
     44  CE1       -7.3620   67.5030   22.3810 C.ar   26  PHE26      -0.0003
     45  CE2       -8.9020   69.1190   21.5060 C.ar   26  PHE26      -0.0003
     46  CZ        -8.4830   68.2980   22.5440 C.ar   26  PHE26      -0.0000
     47  N         -4.2280   67.0770   24.7500 N.3    33  ALA33      -0.1245
     48  CA        -4.3470   68.4140   25.3380 C.3    33  ALA33       0.1562
     49  C         -3.1780   68.7350   26.2690 C.2    33  ALA33       0.2260
     50  O         -2.6540   69.8560   26.2410 O.2    33  ALA33      -0.2867
     51  CB        -5.6620   68.5530   26.0900 C.3    33  ALA33       0.0290
     52  N         -0.0330   69.3680   24.1930 N.3    36  ALA36      -0.1231
     53  CA        -0.1470   70.6860   23.5920 C.3    36  ALA36       0.1694
     54  C          0.0990   71.7890   24.6250 C.2    36  ALA36       0.2591
     55  O          0.7530   72.8020   24.3380 O.2    36  ALA36      -0.2718
     56  CB        -1.5360   70.8660   22.9200 C.3    36  ALA36       0.0304
     57  N         -0.4180   71.5900   25.8270 N.am   37  GLN37      -0.1979
     58  CA        -0.2440   72.5590   26.8930 C.3    37  GLN37       0.1601
     59  C          1.2280   72.7360   27.2930 C.2    37  GLN37       0.2287
     60  O          1.6430   73.8410   27.6520 O.2    37  GLN37      -0.2864
     61  CB        -1.0830   72.1830   28.1060 C.3    37  GLN37       0.0394
     62  CG        -1.0090   73.2090   29.2540 C.3    37  GLN37       0.0908
     63  CD        -1.6210   74.5460   28.8910 C.2    37  GLN37       0.2608
     64  OE1       -2.3020   74.6740   27.8710 O.2    37  GLN37      -0.2717
     65  NE2       -1.4040   75.5490   29.7410 N.am   37  GLN37      -0.0878
     66  N          2.5340   75.0520   24.7580 N.3    40  GLU40      -0.1245
     67  CA         1.9890   76.3650   25.0720 C.3    40  GLU40       0.1567
     68  C          2.7220   77.0430   26.2340 C.2    40  GLU40       0.2260
     69  O          2.9630   78.2520   26.1810 O.2    40  GLU40      -0.2867
     70  CB         0.4870   76.2770   25.3520 C.3    40  GLU40       0.0388
     71  CG        -0.2130   77.6390   25.5020 C.3    40  GLU40       0.1160
     72  CD        -0.0370   78.3050   26.8680 C.2    40  GLU40       0.3649
     73  OE1        0.3580   77.6320   27.8440 O.co2  40  GLU40      -0.2457
     74  OE2       -0.3340   79.5100   26.9730 O.co2  40  GLU40      -0.2457
     75  N          6.0050   78.2070   25.0700 N.3    43  LEU43      -0.1245
     76  CA         5.7710   79.4130   24.2780 C.3    43  LEU43       0.1561
     77  C          5.6330   80.6350   25.1860 C.2    43  LEU43       0.2260
     78  O          6.2590   81.6650   24.9250 O.2    43  LEU43      -0.2867
     79  CB         4.5310   79.2660   23.3940 C.3    43  LEU43       0.0270
     80  CG         4.0340   80.4970   22.6370 C.3    43  LEU43       0.0019
     81  CD1        5.1590   81.0750   21.7340 C.3    43  LEU43       0.0001
     82  CD2        2.7840   80.1580   21.8270 C.3    43  LEU43       0.0001
     83  N          8.2200   83.8180   25.0580 N.3    47  ILE47      -0.1245
     84  CA         7.7660   85.1950   24.8510 C.3    47  ILE47       0.1561
     85  C          8.3030   86.0850   25.9740 C.2    47  ILE47       0.2260
     86  O          8.8590   87.1550   25.7190 O.2    47  ILE47      -0.2867
     87  CB         6.2500   85.2780   24.7870 C.3    47  ILE47       0.0252
     88  CG1        5.7440   84.5550   23.5340 C.3    47  ILE47       0.0019
     89  CG2        5.7710   86.7480   24.7590 C.3    47  ILE47       0.0019
     90  CD1        4.2690   84.2630   23.5710 C.3    47  ILE47       0.0001
     91  N          5.9520   86.9000   12.3670 N.3    75  LEU75      -0.1245
     92  CA         5.1450   86.0310   13.2210 C.3    75  LEU75       0.1561
     93  C          3.6590   86.0880   12.8840 C.2    75  LEU75       0.2260
     94  O          2.9450   85.1140   13.1290 O.2    75  LEU75      -0.2867
     95  CB         5.3000   86.3660   14.7200 C.3    75  LEU75       0.0270
     96  CG         6.6770   86.1870   15.3870 C.3    75  LEU75       0.0019
     97  CD1        6.6250   86.5850   16.8590 C.3    75  LEU75       0.0001
     98  CD2        7.1690   84.7520   15.2360 C.3    75  LEU75       0.0001
     99  N          0.8150   83.2030   13.6390 N.3    79  ILE79      -0.1245
    100  CA        -0.0910   83.4000   14.7630 C.3    79  ILE79       0.1561
    101  C         -1.5350   83.1870   14.3210 C.2    79  ILE79       0.2260
    102  O         -2.2860   82.4350   14.9560 O.2    79  ILE79      -0.2867
    103  CB         0.0580   84.8140   15.3860 C.3    79  ILE79       0.0252
    104  CG1        1.4030   84.9300   16.1100 C.3    79  ILE79       0.0019
    105  CG2       -1.1200   85.1250   16.3480 C.3    79  ILE79       0.0019
    106  CD1        1.8100   86.3550   16.4750 C.3    79  ILE79       0.0001
    107  N         -2.1730   79.5530   13.6420 N.3    82  SER82      -0.1202
    108  CA        -2.2690   78.8150   14.8970 C.3    82  SER82       0.2020
    109  C         -3.6320   79.0280   15.5740 C.2    82  SER82       0.2618
    110  O         -4.2850   78.0540   15.9650 O.2    82  SER82      -0.2717
    111  CB        -1.1100   79.1930   15.8300 C.3    82  SER82       0.2103
    112  OG        -0.9370   78.2420   16.8800 O.3    82  SER82      -0.2182
    113  N         -4.0650   80.2830   15.6940 N.am   83  LEU83      -0.1979
    114  CA        -5.3890   80.5920   16.2520 C.3    83  LEU83       0.1596
    115  C         -6.5120   79.9520   15.4450 C.2    83  LEU83       0.2287
    116  O         -7.4510   79.3780   16.0100 O.2    83  LEU83      -0.2864
    117  CB        -5.6060   82.0960   16.3280 C.3    83  LEU83       0.0297
    118  CG        -4.6690   82.8030   17.3170 C.3    83  LEU83       0.0022
    119  CD1       -4.7120   84.2930   17.0600 C.3    83  LEU83       0.0001
    120  CD2       -5.0170   82.4510   18.8010 C.3    83  LEU83       0.0001
    121  N         -6.6570   76.1020   16.3320 N.3    86  ILE86      -0.1245
    122  CA        -7.3740   75.7920   17.5920 C.3    86  ILE86       0.1561
    123  C         -8.8780   76.1490   17.4950 C.2    86  ILE86       0.2260
    124  O         -9.7260   75.3880   17.9800 O.2    86  ILE86      -0.2867
    125  CB        -6.6970   76.3970   18.8600 C.3    86  ILE86       0.0252
    126  CG1       -7.3150   75.8170   20.1450 C.3    86  ILE86       0.0019
    127  CG2       -6.7420   77.9290   18.8560 C.3    86  ILE86       0.0019
    128  CD1       -7.2910   74.2630   20.2100 C.3    86  ILE86       0.0001
    129  N        -12.2900   70.4580   21.5360 N.3    93  VAL93      -0.1245
    130  CA       -12.0280   71.1410   22.8040 C.3    93  VAL93       0.1561
    131  C        -13.2010   70.9790   23.7560 C.2    93  VAL93       0.2260
    132  O        -13.0170   70.6570   24.9350 O.2    93  VAL93      -0.2867
    133  CB       -11.7430   72.6440   22.5950 C.3    93  VAL93       0.0252
    134  CG1      -11.7860   73.4130   23.9310 C.3    93  VAL93       0.0019
    135  CG2      -10.4010   72.8420   21.8890 C.3    93  VAL93       0.0019
    136  N        -11.9980   71.1080   27.8210 N.3    98  VAL98      -0.1245
    137  CA       -10.8490   71.9760   28.1230 C.3    98  VAL98       0.1561
    138  C        -10.9400   73.4000   27.5760 C.2    98  VAL98       0.2260
    139  O         -9.9150   74.0840   27.4420 O.2    98  VAL98      -0.2867
    140  CB        -9.5090   71.3070   27.7060 C.3    98  VAL98       0.0252
    141  CG1       -9.3270   69.9980   28.5030 C.3    98  VAL98       0.0019
    142  CG2       -9.4700   71.0470   26.2060 C.3    98  VAL98       0.0019
    143  N         -9.1780   76.0330   29.6830 N.3   101  LEU101     -0.1231
    144  CA        -7.7160   75.9780   29.5310 C.3   101  LEU101      0.1693
    145  C         -7.2660   76.7520   28.2830 C.2   101  LEU101      0.2591
    146  O         -6.3430   77.5640   28.3430 O.2   101  LEU101     -0.2718
    147  CB        -7.2300   74.5340   29.4530 C.3   101  LEU101      0.0284
    148  CG        -5.6990   74.3630   29.4010 C.3   101  LEU101      0.0019
    149  CD1       -5.0500   74.8820   30.6670 C.3   101  LEU101      0.0001
    150  CD2       -5.3680   72.8910   29.1570 C.3   101  LEU101      0.0001
    151  N         -7.9660   76.5300   27.1800 N.am  102  VAL102     -0.1980
    152  CA        -7.7140   77.2630   25.9460 C.3   102  VAL102      0.1595
    153  C         -7.8950   78.7610   26.1790 C.2   102  VAL102      0.2287
    154  O         -7.0420   79.5590   25.7950 O.2   102  VAL102     -0.2864
    155  CB        -8.6140   76.7640   24.8000 C.3   102  VAL102      0.0276
    156  CG1       -8.4820   77.6670   23.5540 C.3   102  VAL102      0.0022
    157  CG2       -8.2580   75.3400   24.4580 C.3   102  VAL102      0.0022
    158  N         -5.1060   80.2000   28.3560 N.3   105  ASP105     -0.1225
    159  CA        -3.9160   80.3170   27.5170 C.3   105  ASP105      0.1805
    160  C         -3.9810   81.5140   26.5550 C.2   105  ASP105      0.2597
    161  O         -2.9960   82.2270   26.3990 O.2   105  ASP105     -0.2718
    162  CB        -3.7190   79.0500   26.6790 C.3   105  ASP105      0.1424
    163  CG        -3.3270   77.8360   27.4950 C.2   105  ASP105      0.3668
    164  OD1       -3.0350   77.9480   28.7130 O.co2 105  ASP105     -0.2456
    165  OD2       -3.2950   76.7400   26.8750 O.co2 105  ASP105     -0.2456
    166  N         -5.1260   81.7050   25.8950 N.am  106  LEU106     -0.1979
    167  CA        -5.3200   82.8270   24.9640 C.3   106  LEU106      0.1596
    168  C         -5.1130   84.1720   25.6630 C.2   106  LEU106      0.2287
    169  O         -4.3890   85.0420   25.1470 O.2   106  LEU106     -0.2864
    170  CB        -6.7080   82.7900   24.3050 C.3   106  LEU106      0.0297
    171  CG        -6.8690   81.7280   23.2100 C.3   106  LEU106      0.0022
    172  CD1       -8.3360   81.5020   22.8540 C.3   106  LEU106      0.0001
    173  CD2       -6.0840   82.0930   21.9700 C.3   106  LEU106      0.0001
    174  N         -1.3510   84.4940   26.6820 N.3   109  LEU109     -0.1245
    175  CA        -0.5480   84.7350   25.4850 C.3   109  LEU109      0.1561
    176  C         -0.7630   86.1340   24.9050 C.2   109  LEU109      0.2260
    177  O          0.1920   86.7670   24.4620 O.2   109  LEU109     -0.2867
    178  CB        -0.8140   83.6660   24.4260 C.3   109  LEU109      0.0270
    179  CG        -0.2440   82.2870   24.7810 C.3   109  LEU109      0.0019
    180  CD1       -0.8020   81.2460   23.8340 C.3   109  LEU109      0.0001
    181  CD2        1.2870   82.2940   24.7720 C.3   109  LEU109      0.0001
    182  N          2.2940   88.6910   24.6940 N.3   113  THR113     -0.1218
    183  CA         2.6140   89.1770   23.3520 C.3   113  THR113      0.1862
    184  C          2.5380   90.7130   23.3120 C.2   113  THR113      0.2287
    185  O          3.4050   91.3650   22.7440 O.2   113  THR113     -0.2866
    186  CB         1.6820   88.5640   22.2910 C.3   113  THR113      0.1770
    187  OG1        1.8310   87.1320   22.2860 O.3   113  THR113     -0.2211
    188  CG2        1.9980   89.1380   20.9050 C.3   113  THR113      0.0375
    189  N         -6.3340   87.4910   18.3290 N.3   143  PHE143     -0.1241
    190  CA        -6.5460   86.9790   19.6900 C.3   143  PHE143      0.1605
    191  C         -7.9810   87.2220   20.1480 C.2   143  PHE143      0.2264
    192  O         -8.6130   86.3200   20.6950 O.2   143  PHE143     -0.2867
    193  CB        -5.5900   87.6340   20.7040 C.3   143  PHE143      0.0534
    194  CG        -4.2900   86.9220   20.8480 C.ar  143  PHE143     -0.0203
    195  CD1       -4.2360   85.6760   21.4580 C.ar  143  PHE143     -0.0042
    196  CD2       -3.1160   87.4920   20.3920 C.ar  143  PHE143     -0.0042
    197  CE1       -3.0360   84.9870   21.5920 C.ar  143  PHE143     -0.0003
    198  CE2       -1.8930   86.8060   20.5250 C.ar  143  PHE143     -0.0003
    199  CZ        -1.8550   85.5600   21.1240 C.ar  143  PHE143     -0.0000
@<TRIPOS>BOND
     1    91    92    1
     2    93    94    2
     3    93    92    1
     4    92    95    1
     5    99   100    1
     6   107   108    1
     7   101   100    1
     8   101   102    2
     9    95    96    1
    10   100   103    1
    11   108   109    1
    12   108   111    1
    13    98    96    1
    14   103   104    1
    15   103   105    1
    16    96    97    1
    17   115   116    2
    18   115   114    1
    19   109   113   am
    20   109   110    2
    21   113   114    1
    22   111   112    1
    23    27    28    2
    24    27    26    1
    25    15    13    1
    26   104   106    1
    27   114   117    1
    28   117   118    1
    29   121   122    1
    30    11    12    2
    31    11    10    1
    32    29    26    1
    33    29    30    1
    34    13    10    1
    35    13    14    1
    36    39    38    2
    37    36    37    1
    38   119   118    1
    39    26    25    1
    40   118   120    1
    41    16    14    1
    42    10     9    1
    43   123   122    1
    44   123   124    2
    45   122   125    1
    46    19    20    2
    47    19    18    1
    48    32    30   ar
    49    32    34   ar
    50    38    37    1
    51    30    31   ar
    52    17    18    1
    53     3     4    2
    54     3     2    1
    55    37    40    1
    56   189   190    1
    57    34    35   ar
    58    18    21    1
    59    40    41    1
    60   127   125    1
    61   125   126    1
    62    31    33   ar
    63     1     2    1
    64    21    22    1
    65     2     5    1
    66     7     5    1
    67     5     6    1
    68   190   191    1
    69   190   193    1
    70    35    33   ar
    71    41    43   ar
    72    41    42   ar
    73   126   128    1
    74   191   192    2
    75    43    45   ar
    76   196   198   ar
    77   196   194   ar
    78    22    24    1
    79    22    23    1
    80   198   199   ar
    81   193   194    1
    82   194   195   ar
    83   188   186    1
    84     6     8    1
    85   199   197   ar
    86    42    44   ar
    87   195   197   ar
    88    45    46   ar
    89   129   130    1
    90    81    80    1
    91    82    80    1
    92   135   133    1
    93   173   171    1
    94   187   186    1
    95   186   183    1
    96    44    46   ar
    97   133   130    1
    98   133   134    1
    99    80    79    1
   100   185   184    2
   101   130   131    1
   102   172   171    1
   103    56    53    1
   104   171   170    1
   105   184   183    1
   106   183   182    1
   107    79    76    1
   108    88    90    1
   109    88    87    1
   110   156   155    1
   111    53    52    1
   112    53    54    1
   113   131   132    2
   114   180   179    1
   115    76    75    1
   116    76    77    1
   117   170   167    1
   118    55    54    2
   119   178   179    1
   120   178   175    1
   121   157   155    1
   122   177   176    2
   123    54    57   am
   124    47    48    1
   125    66    67    1
   126    89    87    1
   127   181   179    1
   128    87    84    1
   129   155   152    1
   130    84    83    1
   131    84    85    1
   132   176   175    1
   133    78    77    2
   134   167   168    1
   135   167   166    1
   136    67    70    1
   137    67    68    1
   138   169   168    2
   139    48    51    1
   140    48    49    1
   141    70    71    1
   142   175   174    1
   143    71    72    1
   144    86    85    2
   145   154   153    2
   146    57    58    1
   147   166   160   am
   148   152   153    1
   149   152   151    1
   150    69    68    2
   151   142   140    1
   152    50    49    2
   153   161   160    2
   154   160   159    1
   155   162   163    1
   156   162   159    1
   157    72    74   ar
   158    72    73   ar
   159   165   163   ar
   160    58    59    1
   161    58    61    1
   162   151   145   am
   163    59    60    2
   164   139   138    2
   165   163   164   ar
   166   159   158    1
   167   138   137    1
   168   140   137    1
   169   140   141    1
   170   136   137    1
   171    64    63    2
   172    61    62    1
   173   145   146    2
   174   145   144    1
   175    63    62    1
   176    63    65   am
   177   150   148    1
   178   148   147    1
   179   148   149    1
   180   147   144    1
   181   144   143    1
