@<TRIPOS>MOLECULE
tmp/5j5lA00.pdb
 210 194 0 0 0
SMALL
GASTEIGER

@<TRIPOS>ATOM
      1  N         10.0620   81.6020   19.4320 N.3    13  ILE13      -0.1245
      2  CA         8.6120   81.8080   19.4850 C.3    13  ILE13       0.1561
      3  C          7.9360   81.2730   18.2090 C.2    13  ILE13       0.2260
      4  O          6.9270   80.5520   18.2860 O.2    13  ILE13      -0.2867
      5  CB         8.2680   83.2930   19.7320 C.3    13  ILE13       0.0252
      6  CG1        8.7030   83.6910   21.1510 C.3    13  ILE13       0.0019
      7  CG2        6.7850   83.5560   19.5150 C.3    13  ILE13       0.0019
      8  CD1        8.8630   85.1840   21.3590 C.3    13  ILE13       0.0001
      9  N          5.0770   78.3090   18.0260 N.3    17  ILE17      -0.1245
     10  CA         3.7610   78.5040   17.4290 C.3    17  ILE17       0.1561
     11  C          3.4850   77.4210   16.3900 C.2    17  ILE17       0.2260
     12  O          2.3970   76.8400   16.3700 O.2    17  ILE17      -0.2867
     13  CB         3.6060   79.9000   16.7950 C.3    17  ILE17       0.0252
     14  CG1        3.6190   80.9920   17.8810 C.3    17  ILE17       0.0019
     15  CG2        2.3090   79.9990   15.9990 C.3    17  ILE17       0.0019
     16  CD1        3.9640   82.3780   17.3600 C.3    17  ILE17       0.0001
     17  N          2.7310   74.1600   18.0330 N.3    20  LEU20      -0.1245
     18  CA         1.3540   74.1560   18.5330 C.3    20  LEU20       0.1561
     19  C          0.3180   73.8860   17.4460 C.2    20  LEU20       0.2260
     20  O         -0.6220   73.1220   17.6430 O.2    20  LEU20      -0.2867
     21  CB         1.0150   75.4940   19.1950 C.3    20  LEU20       0.0270
     22  CG         1.3750   75.6200   20.6560 C.3    20  LEU20       0.0019
     23  CD1        1.0770   77.0380   21.1140 C.3    20  LEU20       0.0001
     24  CD2        0.5990   74.6320   21.5200 C.3    20  LEU20       0.0001
     25  N          0.0290   70.3480   16.7100 N.3    23  HIS23      -0.1226
     26  CA        -0.7960   69.7100   17.7360 C.3    23  HIS23       0.1752
     27  C         -2.2760   69.9180   17.4560 C.2    23  HIS23       0.2596
     28  O         -3.0550   68.9560   17.4880 O.2    23  HIS23      -0.2718
     29  CB        -0.4700   70.2180   19.1400 C.3    23  HIS23       0.0759
     30  CG         0.7720   69.6210   19.7150 C.ar   23  HIS23       0.0818
     31  ND1        0.7540   68.5010   20.5120 N.ar   23  HIS23      -0.2268
     32  CD2        2.0700   69.9880   19.6100 C.ar   23  HIS23       0.1154
     33  CE1        1.9900   68.1870   20.8560 C.ar   23  HIS23       0.1986
     34  NE2        2.8080   69.0850   20.3340 N.ar   23  HIS23      -0.2212
     35  N         -2.6610   71.1620   17.1740 N.am   24  PHE24      -0.1976
     36  CA        -4.0760   71.4760   16.9410 C.3    24  PHE24       0.1639
     37  C         -4.6580   70.6650   15.8020 C.2    24  PHE24       0.2290
     38  O         -5.7420   70.1030   15.9310 O.2    24  PHE24      -0.2864
     39  CB        -4.3170   72.9570   16.6520 C.3    24  PHE24       0.0560
     40  CG        -3.8470   73.8900   17.7410 C.ar   24  PHE24      -0.0200
     41  CD1       -3.7710   73.4820   19.0600 C.ar   24  PHE24      -0.0042
     42  CD2       -3.4920   75.1760   17.4240 C.ar   24  PHE24      -0.0042
     43  CE1       -3.3370   74.3440   20.0550 C.ar   24  PHE24      -0.0003
     44  CE2       -3.0650   76.0450   18.4060 C.ar   24  PHE24      -0.0003
     45  CZ        -2.9750   75.6260   19.7200 C.ar   24  PHE24      -0.0000
     46  N         -5.5550   67.1630   16.8350 N.3    27  PHE27      -0.1241
     47  CA        -6.3770   66.9970   18.0310 C.3    27  PHE27       0.1605
     48  C         -7.6720   66.2490   17.7350 C.2    27  PHE27       0.2264
     49  O         -8.4150   66.6160   16.8060 O.2    27  PHE27      -0.2867
     50  CB        -6.6920   68.3610   18.6400 C.3    27  PHE27       0.0534
     51  CG        -7.4040   68.3090   19.9740 C.ar   27  PHE27      -0.0203
     52  CD1       -6.9540   67.5080   21.0030 C.ar   27  PHE27      -0.0042
     53  CD2       -8.4820   69.1640   20.2230 C.ar   27  PHE27      -0.0042
     54  CE1       -7.6000   67.4950   22.2240 C.ar   27  PHE27      -0.0003
     55  CE2       -9.1360   69.1470   21.4460 C.ar   27  PHE27      -0.0003
     56  CZ        -8.6920   68.3090   22.4480 C.ar   27  PHE27      -0.0000
     57  N         -3.5400   64.3000   24.5020 N.3    33  GLN33      -0.1231
     58  CA        -3.1770   65.2360   23.4440 C.3    33  GLN33       0.1698
     59  C         -3.2190   66.6450   23.9680 C.2    33  GLN33       0.2592
     60  O         -2.3100   67.4330   23.7100 O.2    33  GLN33      -0.2718
     61  CB        -4.1280   65.1460   22.2700 C.3    33  GLN33       0.0381
     62  CG        -3.9920   63.8850   21.4480 C.3    33  GLN33       0.0905
     63  CD        -4.8550   63.9840   20.2180 C.2    33  GLN33       0.2608
     64  OE1       -6.0660   64.1930   20.3170 O.2    33  GLN33      -0.2717
     65  NE2       -4.2340   63.8730   19.0480 N.am   33  GLN33      -0.0878
     66  N         -4.2910   66.9630   24.6930 N.am   34  ALA34      -0.1980
     67  CA        -4.4480   68.2850   25.3070 C.3    34  ALA34       0.1597
     68  C         -3.3050   68.6240   26.2570 C.2    34  ALA34       0.2287
     69  O         -2.8010   69.7540   26.2490 O.2    34  ALA34      -0.2864
     70  CB        -5.7790   68.3810   26.0390 C.3    34  ALA34       0.0319
     71  N         -0.1650   69.4110   24.1820 N.3    37  ALA37      -0.1231
     72  CA        -0.2590   70.7350   23.5850 C.3    37  ALA37       0.1694
     73  C         -0.1020   71.8220   24.6530 C.2    37  ALA37       0.2591
     74  O          0.5600   72.8260   24.4160 O.2    37  ALA37      -0.2718
     75  CB        -1.5660   70.8840   22.8350 C.3    37  ALA37       0.0304
     76  N         -0.6780   71.6170   25.8380 N.am   38  GLN38      -0.1979
     77  CA        -0.5670   72.6240   26.9060 C.3    38  GLN38       0.1601
     78  C          0.8890   72.8290   27.3350 C.2    38  GLN38       0.2287
     79  O          1.2800   73.9570   27.6610 O.2    38  GLN38      -0.2864
     80  CB        -1.4380   72.2790   28.1210 C.3    38  GLN38       0.0394
     81  CG        -1.3490   73.2690   29.2760 C.3    38  GLN38       0.0908
     82  CD        -1.9200   74.6470   28.9590 C.2    38  GLN38       0.2608
     83  OE1       -1.7650   75.5930   29.7470 O.2    38  GLN38      -0.2717
     84  NE2       -2.6000   74.7600   27.8320 N.am   38  GLN38      -0.0878
     85  N          2.2590   75.0700   24.8530 N.3    41  GLU41      -0.1245
     86  CA         1.6880   76.3910   25.0800 C.3    41  GLU41       0.1567
     87  C          2.3790   77.1130   26.2330 C.2    41  GLU41       0.2260
     88  O          2.5960   78.3240   26.1640 O.2    41  GLU41      -0.2867
     89  CB         0.1980   76.2950   25.3220 C.3    41  GLU41       0.0388
     90  CG        -0.5070   77.6430   25.3870 C.3    41  GLU41       0.1160
     91  CD        -0.3830   78.3490   26.7180 C.2    41  GLU41       0.3649
     92  OE1       -0.0630   77.6970   27.7440 O.co2  41  GLU41      -0.2457
     93  OE2       -0.6580   79.5810   26.7430 O.co2  41  GLU41      -0.2457
     94  N          5.6820   78.2740   25.1370 N.3    44  LEU44      -0.1245
     95  CA         5.4550   79.4740   24.3360 C.3    44  LEU44       0.1561
     96  C          5.3110   80.7020   25.2340 C.2    44  LEU44       0.2260
     97  O          5.9460   81.7300   24.9910 O.2    44  LEU44      -0.2867
     98  CB         4.2260   79.3150   23.4320 C.3    44  LEU44       0.0270
     99  CG         3.7350   80.5300   22.6390 C.3    44  LEU44       0.0019
    100  CD1        4.8520   81.1390   21.8080 C.3    44  LEU44       0.0001
    101  CD2        2.5480   80.1650   21.7670 C.3    44  LEU44       0.0001
    102  N          7.8520   83.9160   25.1520 N.3    48  ILE48      -0.1245
    103  CA         7.4000   85.2840   24.8900 C.3    48  ILE48       0.1561
    104  C          7.9020   86.1880   26.0190 C.2    48  ILE48       0.2260
    105  O          8.4370   87.2630   25.7660 O.2    48  ILE48      -0.2867
    106  CB         5.8580   85.3760   24.7650 C.3    48  ILE48       0.0252
    107  CG1        5.3640   84.6550   23.4900 C.3    48  ILE48       0.0019
    108  CG2        5.4040   86.8350   24.7460 C.3    48  ILE48       0.0019
    109  CD1        3.8930   84.3560   23.4630 C.3    48  ILE48       0.0001
    110  N          0.6110   83.2650   13.6650 N.3    80  ILE80      -0.1245
    111  CA        -0.3420   83.4060   14.7560 C.3    80  ILE80       0.1561
    112  C         -1.7680   83.2120   14.2570 C.2    80  ILE80       0.2260
    113  O         -2.5500   82.4600   14.8550 O.2    80  ILE80      -0.2867
    114  CB        -0.1630   84.7770   15.4540 C.3    80  ILE80       0.0252
    115  CG1        1.1770   84.8100   16.1780 C.3    80  ILE80       0.0019
    116  CG2       -1.3250   85.0780   16.4080 C.3    80  ILE80       0.0019
    117  CD1        1.6130   86.2090   16.5720 C.3    80  ILE80       0.0001
    118  N         -2.3520   79.6050   13.4880 N.3    83  SER83      -0.1202
    119  CA        -2.4480   78.8160   14.7160 C.3    83  SER83       0.2020
    120  C         -3.7950   79.0080   15.3870 C.2    83  SER83       0.2618
    121  O         -4.4550   78.0270   15.7980 O.2    83  SER83      -0.2717
    122  CB        -1.2900   79.1700   15.6700 C.3    83  SER83       0.2103
    123  OG        -1.1450   78.2160   16.6990 O.3    83  SER83      -0.2182
    124  N         -4.2310   80.2590   15.4760 N.am   84  LEU84      -0.1979
    125  CA        -5.5340   80.5700   16.0410 C.3    84  LEU84       0.1596
    126  C         -6.6600   79.9420   15.2120 C.2    84  LEU84       0.2287
    127  O         -7.6010   79.3720   15.7790 O.2    84  LEU84      -0.2864
    128  CB        -5.7170   82.0720   16.1500 C.3    84  LEU84       0.0297
    129  CG        -4.8430   82.7380   17.2270 C.3    84  LEU84       0.0022
    130  CD1       -4.9050   84.2390   17.1070 C.3    84  LEU84       0.0001
    131  CD2       -5.2730   82.2780   18.6130 C.3    84  LEU84       0.0001
    132  N         -6.8580   76.0710   16.1210 N.3    87  ILE87      -0.1245
    133  CA        -7.5520   75.7280   17.3700 C.3    87  ILE87       0.1561
    134  C         -9.0520   76.0310   17.2840 C.2    87  ILE87       0.2260
    135  O         -9.8840   75.2340   17.7480 O.2    87  ILE87      -0.2867
    136  CB        -6.8880   76.3470   18.6250 C.3    87  ILE87       0.0252
    137  CG1       -7.5640   75.8260   19.9060 C.3    87  ILE87       0.0019
    138  CG2       -6.9110   77.8550   18.6250 C.3    87  ILE87       0.0019
    139  CD1       -7.4050   74.3440   20.1160 C.3    87  ILE87       0.0001
    140  N        -12.5410   70.4470   21.3720 N.3    94  VAL94      -0.1245
    141  CA       -12.3090   71.1160   22.6300 C.3    94  VAL94       0.1561
    142  C        -13.5410   70.9760   23.5380 C.2    94  VAL94       0.2260
    143  O        -13.4100   70.7020   24.7170 O.2    94  VAL94      -0.2867
    144  CB       -11.9940   72.6090   22.3920 C.3    94  VAL94       0.0252
    145  CG1      -12.0070   73.3920   23.7020 C.3    94  VAL94       0.0019
    146  CG2      -10.6480   72.7580   21.7000 C.3    94  VAL94       0.0019
    147  N        -12.4420   71.1640   27.7150 N.3    99  VAL99      -0.1245
    148  CA       -11.2930   72.0110   28.0740 C.3    99  VAL99       0.1561
    149  C        -11.3420   73.4270   27.5040 C.2    99  VAL99       0.2260
    150  O        -10.3090   74.0720   27.3490 O.2    99  VAL99      -0.2867
    151  CB        -9.9270   71.3500   27.7580 C.3    99  VAL99       0.0252
    152  CG1       -9.7780   70.0550   28.5530 C.3    99  VAL99       0.0019
    153  CG2       -9.7300   71.1430   26.2520 C.3    99  VAL99       0.0019
    154  N         -9.5530   76.1080   29.5850 N.3   102  LEU102     -0.1231
    155  CA        -8.1060   76.0770   29.4290 C.3   102  LEU102      0.1693
    156  C         -7.6310   76.8210   28.1680 C.2   102  LEU102      0.2591
    157  O         -6.6880   77.6100   28.2110 O.2   102  LEU102     -0.2718
    158  CB        -7.6180   74.6180   29.4360 C.3   102  LEU102      0.0284
    159  CG        -6.1000   74.4230   29.3470 C.3   102  LEU102      0.0019
    160  CD1       -5.3900   75.1290   30.4940 C.3   102  LEU102      0.0001
    161  CD2       -5.7900   72.9260   29.3620 C.3   102  LEU102      0.0001
    162  N         -8.2960   76.5830   27.0480 N.am  103  VAL103     -0.1980
    163  CA        -8.0310   77.3210   25.8350 C.3   103  VAL103      0.1595
    164  C         -8.2170   78.8230   26.0790 C.2   103  VAL103      0.2287
    165  O         -7.3370   79.6270   25.7190 O.2   103  VAL103     -0.2864
    166  CB        -8.9040   76.8360   24.6630 C.3   103  VAL103      0.0276
    167  CG1       -8.7040   77.7120   23.4380 C.3   103  VAL103      0.0022
    168  CG2       -8.5760   75.3760   24.3380 C.3   103  VAL103      0.0022
    169  N         -5.4770   80.2870   28.2530 N.3   106  ASP106     -0.1225
    170  CA        -4.2800   80.3650   27.4470 C.3   106  ASP106      0.1805
    171  C         -4.3410   81.5500   26.4800 C.2   106  ASP106      0.2597
    172  O         -3.3770   82.3120   26.3690 O.2   106  ASP106     -0.2718
    173  CB        -4.0740   79.0830   26.6220 C.3   106  ASP106      0.1424
    174  CG        -3.6210   77.8890   27.4510 C.2   106  ASP106      0.3668
    175  OD1       -3.3560   78.0010   28.6700 O.co2 106  ASP106     -0.2456
    176  OD2       -3.5250   76.7950   26.8330 O.co2 106  ASP106     -0.2456
    177  N         -5.4690   81.7240   25.8060 N.am  107  LEU107     -0.1979
    178  CA        -5.6110   82.8350   24.8490 C.3   107  LEU107      0.1596
    179  C         -5.4220   84.1870   25.5330 C.2   107  LEU107      0.2287
    180  O         -4.7080   85.0470   25.0080 O.2   107  LEU107     -0.2864
    181  CB        -6.9590   82.7950   24.1550 C.3   107  LEU107      0.0297
    182  CG        -7.1360   81.6990   23.1010 C.3   107  LEU107      0.0022
    183  CD1       -8.6070   81.6100   22.7350 C.3   107  LEU107      0.0001
    184  CD2       -6.2810   81.9770   21.8660 C.3   107  LEU107      0.0001
    185  N         -1.7010   84.5840   26.5130 N.3   110  LEU110     -0.1245
    186  CA        -0.8800   84.8140   25.3340 C.3   110  LEU110      0.1561
    187  C         -1.0740   86.2030   24.7420 C.2   110  LEU110      0.2260
    188  O         -0.0920   86.8410   24.3260 O.2   110  LEU110     -0.2867
    189  CB        -1.1710   83.7480   24.2850 C.3   110  LEU110      0.0270
    190  CG        -0.5990   82.3620   24.6280 C.3   110  LEU110      0.0019
    191  CD1       -1.2930   81.3060   23.7730 C.3   110  LEU110      0.0001
    192  CD2        0.9160   82.2940   24.4600 C.3   110  LEU110      0.0001
    193  N          1.9560   88.7190   24.6200 N.3   114  THR114     -0.1218
    194  CA         2.3290   89.1920   23.2750 C.3   114  THR114      0.1862
    195  C          2.2270   90.7280   23.1980 C.2   114  THR114      0.2287
    196  O          3.0940   91.3980   22.6160 O.2   114  THR114     -0.2866
    197  CB         1.4400   88.5600   22.2020 C.3   114  THR114      0.1770
    198  OG1        1.5840   87.1360   22.2670 O.3   114  THR114     -0.2211
    199  CG2        1.8280   89.0570   20.7870 C.3   114  THR114      0.0375
    200  N         -6.6070   87.4800   18.1370 N.3   144  PHE144     -0.1241
    201  CA        -6.8340   86.9850   19.4900 C.3   144  PHE144      0.1605
    202  C         -8.2820   87.2430   19.9260 C.2   144  PHE144      0.2264
    203  O         -8.9340   86.3590   20.4860 O.2   144  PHE144     -0.2867
    204  CB        -5.8830   87.6590   20.4990 C.3   144  PHE144      0.0534
    205  CG        -4.5560   86.9710   20.6590 C.ar  144  PHE144     -0.0203
    206  CD1       -4.4700   85.6930   21.2020 C.ar  144  PHE144     -0.0042
    207  CD2       -3.3850   87.6390   20.3330 C.ar  144  PHE144     -0.0042
    208  CE1       -3.2400   85.0870   21.3720 C.ar  144  PHE144     -0.0003
    209  CE2       -2.1500   87.0280   20.4990 C.ar  144  PHE144     -0.0003
    210  CZ        -2.0830   85.7550   21.0090 C.ar  144  PHE144     -0.0000
@<TRIPOS>BOND
     1   118   119    1
     2   110   111    1
     3   112   111    1
     4   112   113    2
     5   119   120    1
     6   119   122    1
     7   111   114    1
     8   126   127    2
     9   126   125    1
    10   120   124   am
    11   120   121    2
    12   114   115    1
    13   114   116    1
    14   124   125    1
    15   122   123    1
    16    37    38    2
    17    37    36    1
    18    15    13    1
    19   125   128    1
    20   132   133    1
    21   128   129    1
    22   115   117    1
    23    12    11    2
    24    11    10    1
    25    39    36    1
    26    39    40    1
    27    25    26    1
    28    13    10    1
    29    13    14    1
    30    49    48    2
    31    46    47    1
    32    36    35    1
    33   130   129    1
    34    35    27   am
    35   129   131    1
    36   134   133    1
    37   134   135    2
    38    16    14    1
    39   133   136    1
    40    42    40   ar
    41    42    44   ar
    42    10     9    1
    43    19    20    2
    44    19    18    1
    45    27    28    2
    46    27    26    1
    47    48    47    1
    48    26    29    1
    49    40    41   ar
    50    47    50    1
    51    17    18    1
    52   200   201    1
    53     3     4    2
    54     3     2    1
    55    44    45   ar
    56    18    21    1
    57   136   138    1
    58   136   137    1
    59    50    51    1
    60    65    63   am
    61    41    43   ar
    62    29    30    1
    63    21    22    1
    64     1     2    1
    65     2     5    1
    66   201   202    1
    67   201   204    1
    68     7     5    1
    69    32    30   ar
    70    32    34   ar
    71    30    31   ar
    72    45    43   ar
    73     5     6    1
    74   137   139    1
    75   202   203    2
    76    51    53   ar
    77    51    52   ar
    78    63    64    2
    79    63    62    1
    80    53    55   ar
    81   207   209   ar
    82   207   205   ar
    83    34    33   ar
    84   209   210   ar
    85   204   205    1
    86    31    33   ar
    87    22    23    1
    88    22    24    1
    89   205   206   ar
    90   199   197    1
    91    52    54   ar
    92   210   208   ar
    93     6     8    1
    94   206   208   ar
    95   140   141    1
    96    55    56   ar
    97    62    61    1
    98   146   144    1
    99   101    99    1
   100   100    99    1
   101   184   182    1
   102   197   198    1
   103   197   194    1
   104    54    56   ar
   105    61    58    1
   106   144   141    1
   107   144   145    1
   108   196   195    2
   109   141   142    1
   110    99    98    1
   111   183   182    1
   112    75    72    1
   113   182   181    1
   114   195   194    1
   115   194   193    1
   116    98    95    1
   117   167   166    1
   118    58    59    1
   119    58    57    1
   120   109   107    1
   121   107   106    1
   122   142   143    2
   123    72    71    1
   124    72    73    1
   125    60    59    2
   126   191   190    1
   127    59    66   am
   128   181   178    1
   129   189   190    1
   130   189   186    1
   131   188   187    2
   132    95    94    1
   133    95    96    1
   134   168   166    1
   135    74    73    2
   136   192   190    1
   137    73    76   am
   138   166   163    1
   139    66    67    1
   140   187   186    1
   141   108   106    1
   142   106   103    1
   143   178   179    1
   144   178   177    1
   145    85    86    1
   146   103   102    1
   147   103   104    1
   148    97    96    2
   149   180   179    2
   150    86    89    1
   151    86    87    1
   152    67    70    1
   153    67    68    1
   154    89    90    1
   155   186   185    1
   156    90    91    1
   157   165   164    2
   158   105   104    2
   159   177   171   am
   160   163   164    1
   161   163   162    1
   162    76    77    1
   163    88    87    2
   164    69    68    2
   165   153   151    1
   166   172   171    2
   167   171   170    1
   168   173   170    1
   169   173   174    1
   170    91    93   ar
   171    91    92   ar
   172   176   174   ar
   173    77    78    1
   174    77    80    1
   175   162   156   am
   176    78    79    2
   177   150   149    2
   178   170   169    1
   179   174   175   ar
   180   149   148    1
   181   147   148    1
   182   151   148    1
   183   151   152    1
   184    84    82   am
   185    80    81    1
   186   156   157    2
   187   156   155    1
   188    82    81    1
   189    82    83    2
   190   159   161    1
   191   159   158    1
   192   159   160    1
   193   155   158    1
   194   155   154    1
