@<TRIPOS>MOLECULE
tmp/5j5oA00.pdb
 164 159 0 0 0
SMALL
GASTEIGER

@<TRIPOS>ATOM
      1  N        -70.0200   68.3620   -9.7980 N.3    18  PHE18      -0.1241
      2  CA       -71.3590   68.2750  -10.3650 C.3    18  PHE18       0.1605
      3  C        -72.0630   67.0720   -9.7550 C.2    18  PHE18       0.2264
      4  O        -71.5130   65.9620   -9.7400 O.2    18  PHE18      -0.2867
      5  CB       -71.2840   68.1330  -11.8850 C.3    18  PHE18       0.0534
      6  CG       -72.6310   67.9860  -12.5480 C.ar   18  PHE18      -0.0203
      7  CD1      -73.2310   69.0670  -13.1630 C.ar   18  PHE18      -0.0042
      8  CD2      -73.2890   66.7770  -12.5570 C.ar   18  PHE18      -0.0042
      9  CE1      -74.4670   68.9300  -13.7770 C.ar   18  PHE18      -0.0003
     10  CE2      -74.5210   66.6420  -13.1590 C.ar   18  PHE18      -0.0003
     11  CZ       -75.1100   67.7080  -13.7640 C.ar   18  PHE18      -0.0000
     12  N        -75.7230   65.0390  -10.2550 N.3    20  ASN20      -0.1240
     13  CA       -76.9570   64.9330  -11.0210 C.3    20  ASN20       0.1653
     14  C        -78.1300   64.9960  -10.0620 C.2    20  ASN20       0.2266
     15  O        -78.3560   64.0730   -9.2730 O.2    20  ASN20      -0.2867
     16  CB       -76.9870   63.6360  -11.8290 C.3    20  ASN20       0.1155
     17  CG       -77.8420   63.7410  -13.0710 C.2    20  ASN20       0.2627
     18  OD1      -78.9630   64.2610  -13.0340 O.2    20  ASN20      -0.2716
     19  ND2      -77.3150   63.2490  -14.1910 N.am   20  ASN20      -0.0877
     20  N        -78.8810   71.6990  -15.4780 N.3    26  TRP26      -0.1227
     21  CA       -77.4970   71.2430  -15.4810 C.3    26  TRP26       0.1737
     22  C        -76.5710   72.3170  -14.9200 C.2    26  TRP26       0.2595
     23  O        -75.7040   72.0260  -14.0880 O.2    26  TRP26      -0.2718
     24  CB       -77.0720   70.8420  -16.8960 C.3    26  TRP26       0.0564
     25  CG       -75.6350   70.4700  -16.9840 C.ar   26  TRP26       0.0003
     26  CD1      -75.1010   69.2170  -16.8730 C.ar   26  TRP26       0.0946
     27  CD2      -74.5260   71.3690  -17.1840 C.ar   26  TRP26       0.0152
     28  NE1      -73.7290   69.2770  -16.9920 N.ar   26  TRP26      -0.2442
     29  CE2      -73.3530   70.5910  -17.1760 C.ar   26  TRP26       0.0810
     30  CE3      -74.4180   72.7560  -17.3680 C.ar   26  TRP26       0.0012
     31  CZ2      -72.0830   71.1580  -17.3520 C.ar   26  TRP26       0.0191
     32  CZ3      -73.1730   73.3130  -17.5360 C.ar   26  TRP26       0.0001
     33  CH2      -72.0170   72.5190  -17.5240 C.ar   26  TRP26       0.0015
     34  N        -76.7680   73.5750  -15.3360 N.am   27  GLN27      -0.1979
     35  CA       -75.9190   74.6500  -14.8410 C.3    27  GLN27       0.1601
     36  C        -76.0550   74.7940  -13.3260 C.2    27  GLN27       0.2287
     37  O        -75.0620   75.0180  -12.6300 O.2    27  GLN27      -0.2864
     38  CB       -76.2640   75.9600  -15.5620 C.3    27  GLN27       0.0394
     39  CG       -76.5960   75.8140  -17.0760 C.3    27  GLN27       0.0908
     40  CD       -78.0350   75.3440  -17.3540 C.2    27  GLN27       0.2608
     41  OE1      -79.0020   76.1020  -17.1720 O.2    27  GLN27      -0.2717
     42  NE2      -78.1760   74.0960  -17.7970 N.am   27  GLN27      -0.0878
     43  N        -69.6220   64.6280  -11.5440 N.3    60  ASP60      -0.1239
     44  CA       -68.3760   65.0180  -12.1940 C.3    60  ASP60       0.1674
     45  C        -67.4850   65.7430  -11.1980 C.2    60  ASP60       0.2266
     46  O        -67.9560   66.3320  -10.2220 O.2    60  ASP60      -0.2867
     47  CB       -68.5280   65.9820  -13.3990 C.3    60  ASP60       0.1410
     48  CG       -69.6900   65.6620  -14.3040 C.2    60  ASP60       0.3668
     49  OD1      -70.2770   66.6490  -14.8150 O.co2  60  ASP60      -0.2456
     50  OD2      -70.0050   64.4670  -14.5520 O.co2  60  ASP60      -0.2456
     51  N        -66.3900   75.5060  -16.2640 N.3    70  PRO70      -0.2102
     52  CA       -66.2900   74.2090  -16.9530 C.3    70  PRO70       0.1504
     53  C        -67.5320   73.8930  -17.7830 C.2    70  PRO70       0.2576
     54  O        -68.2070   72.8540  -17.5950 O.2    70  PRO70      -0.2718
     55  CB       -66.0790   73.2360  -15.7870 C.3    70  PRO70       0.0282
     56  CG       -66.8240   73.8490  -14.6530 C.3    70  PRO70       0.0208
     57  CD       -66.7430   75.3560  -14.8350 C.3    70  PRO70       0.0893
     58  N        -67.8410   74.7880  -18.7320 N.am   71  MET71      -0.1966
     59  CA       -69.0030   74.6020  -19.5980 C.3    71  MET71       0.1736
     60  C        -68.6870   75.1250  -20.9920 C.2    71  MET71       0.2616
     61  O        -67.8490   76.0150  -21.1710 O.2    71  MET71      -0.2715
     62  CB       -70.2740   75.2910  -19.0290 C.3    71  MET71       0.0427
     63  CG       -70.1050   76.7700  -18.7020 C.3    71  MET71       0.0599
     64  SD       -71.5840   77.6000  -18.0320 S.3    71  MET71      -0.1393
     65  CE       -71.3850   77.3190  -16.2750 C.3    71  MET71       0.0692
     66  N        -69.3450   74.5230  -21.9830 N.am   72  TRP72      -0.1960
     67  CA       -69.1790   74.9170  -23.3860 C.3    72  TRP72       0.1771
     68  C        -69.3970   76.3950  -23.6100 C.2    72  TRP72       0.2619
     69  O        -68.8480   76.9590  -24.5580 O.2    72  TRP72      -0.2715
     70  CB       -70.1890   74.2030  -24.2830 C.3    72  TRP72       0.0590
     71  CG       -70.2160   72.7400  -24.1400 C.ar   72  TRP72       0.0006
     72  CD1      -69.1370   71.9090  -23.9630 C.ar   72  TRP72       0.0946
     73  CD2      -71.3700   71.9040  -24.1750 C.ar   72  TRP72       0.0152
     74  NE1      -69.5610   70.5990  -23.8920 N.ar   72  TRP72      -0.2442
     75  CE2      -70.9270   70.5700  -24.0190 C.ar   72  TRP72       0.0810
     76  CE3      -72.7340   72.1470  -24.3200 C.ar   72  TRP72       0.0012
     77  CZ2      -71.8080   69.4890  -24.0060 C.ar   72  TRP72       0.0191
     78  CZ3      -73.6070   71.0690  -24.3110 C.ar   72  TRP72       0.0001
     79  CH2      -73.1340   69.7570  -24.1550 C.ar   72  TRP72       0.0015
     80  N        -70.2940   77.0000  -22.8340 N.am   73  GLU73      -0.1977
     81  CA       -70.7170   78.3750  -23.0580 C.3    73  GLU73       0.1602
     82  C        -69.6450   79.3950  -22.7060 C.2    73  GLU73       0.2287
     83  O        -69.7950   80.5660  -23.0630 O.2    73  GLU73      -0.2864
     84  CB       -71.9910   78.6710  -22.2670 C.3    73  GLU73       0.0415
     85  CG       -73.2250   77.8880  -22.7390 C.3    73  GLU73       0.1163
     86  CD       -73.4160   76.5260  -22.0650 C.2    73  GLU73       0.3649
     87  OE1      -74.5920   76.0390  -22.1060 O.co2  73  GLU73      -0.2457
     88  OE2      -72.4470   75.9440  -21.5480 O.co2  73  GLU73      -0.2457
     89  N        -62.4080   68.7100  -26.9170 N.3    82  ARG82      -0.1245
     90  CA       -61.8310   67.9320  -25.8330 C.3    82  ARG82       0.1563
     91  C        -61.1520   66.6830  -26.3530 C.2    82  ARG82       0.2260
     92  O        -61.6240   66.0650  -27.3120 O.2    82  ARG82      -0.2867
     93  CB       -62.8870   67.5220  -24.8180 C.3    82  ARG82       0.0307
     94  CG       -63.9920   66.6450  -25.4270 C.3    82  ARG82       0.0489
     95  CD       -64.9700   66.1700  -24.3880 C.3    82  ARG82       0.2205
     96  NE       -65.9910   65.2990  -24.9850 N.pl3  82  ARG82      -0.0865
     97  CZ       -66.9880   64.7140  -24.3370 C.cat  82  ARG82       0.5346
     98  NH1      -67.8550   63.9790  -25.0180 N.pl3  82  ARG82       0.1354
     99  NH2      -67.0840   64.8300  -23.0250 N.pl3  82  ARG82       0.1354
    100  N        -62.1880   67.2930  -17.1670 N.3   123  VAL123     -0.1245
    101  CA       -63.4410   66.8310  -16.5950 C.3   123  VAL123      0.1561
    102  C        -63.3620   65.3200  -16.4660 C.2   123  VAL123      0.2260
    103  O        -62.9590   64.6310  -17.4110 O.2   123  VAL123     -0.2867
    104  CB       -64.6500   67.2480  -17.4710 C.3   123  VAL123      0.0252
    105  CG1      -65.9450   66.7490  -16.9110 C.3   123  VAL123      0.0019
    106  CG2      -64.6800   68.8110  -17.6900 C.3   123  VAL123      0.0019
    107  N        -66.2050   62.3370  -15.8380 N.3   125  ASN125     -0.1240
    108  CA       -67.6010   61.9330  -15.7010 C.3   125  ASN125      0.1653
    109  C        -67.6580   60.5210  -15.1270 C.2   125  ASN125      0.2266
    110  O        -67.1790   59.5780  -15.7490 O.2   125  ASN125     -0.2867
    111  CB       -68.3350   61.9490  -17.0460 C.3   125  ASN125      0.1155
    112  CG       -68.1830   63.2700  -17.8000 C.2   125  ASN125      0.2627
    113  OD1      -67.6750   63.2970  -18.9200 O.2   125  ASN125     -0.2716
    114  ND2      -68.6640   64.3570  -17.2090 N.am  125  ASN125     -0.0877
    115  N        -69.9550   57.5930  -14.6580 N.3   127  ARG127     -0.1245
    116  CA       -71.2310   57.1860  -15.2340 C.3   127  ARG127      0.1563
    117  C        -71.3200   55.6720  -15.1950 C.2   127  ARG127      0.2260
    118  O        -70.3390   54.9870  -15.5000 O.2   127  ARG127     -0.2867
    119  CB       -71.4000   57.6540  -16.6840 C.3   127  ARG127      0.0307
    120  CG       -71.3640   59.1530  -16.8970 C.3   127  ARG127      0.0489
    121  CD       -72.5490   59.8300  -16.2240 C.3   127  ARG127      0.2205
    122  NE       -72.6090   61.2610  -16.5550 N.pl3 127  ARG127     -0.0865
    123  CZ       -72.0150   62.2170  -15.8430 C.cat 127  ARG127      0.5346
    124  NH1      -71.3080   61.8960  -14.7690 N.pl3 127  ARG127      0.1354
    125  NH2      -72.1370   63.4870  -16.1920 N.pl3 127  ARG127      0.1354
    126  N        -72.7470   53.8900  -17.2730 N.3   129  LYS129     -0.1245
    127  CA       -72.5700   53.3860  -18.6310 C.3   129  LYS129      0.1561
    128  C        -71.0960   53.2430  -19.0050 C.2   129  LYS129      0.2260
    129  O        -70.7610   52.4660  -19.9090 O.2   129  LYS129     -0.2867
    130  CB       -73.3150   54.3100  -19.6050 C.3   129  LYS129      0.0271
    131  CG       -72.9620   54.2090  -21.0790 C.3   129  LYS129      0.0035
    132  CD       -73.9580   55.0060  -21.9410 C.3   129  LYS129      0.0206
    133  CE       -75.3920   54.4470  -21.8520 C.3   129  LYS129      0.1093
    134  NZ       -76.2330   54.7300  -23.0620 N.3   129  LYS129     -0.1314
    135  N        -65.7260   58.6820  -18.1830 N.3   132  LYS132     -0.1245
    136  CA       -64.9890   59.4710  -19.1610 C.3   132  LYS132      0.1561
    137  C        -64.0800   60.4680  -18.4520 C.2   132  LYS132      0.2260
    138  O        -64.4370   61.0310  -17.4110 O.2   132  LYS132     -0.2867
    139  CB       -65.9360   60.2480  -20.0940 C.3   132  LYS132      0.0271
    140  CG       -66.8370   59.4030  -20.9860 C.3   132  LYS132      0.0035
    141  CD       -67.8390   60.3120  -21.7350 C.3   132  LYS132      0.0206
    142  CE       -69.1300   60.4940  -20.9310 C.3   132  LYS132      0.1093
    143  NZ       -70.1960   61.2090  -21.7310 N.3   132  LYS132     -0.1314
    144  N        -59.9760   69.6570  -21.9650 N.3   136  TRP136     -0.1241
    145  CA       -60.6450   70.6510  -22.7750 C.3   136  TRP136      0.1605
    146  C        -59.6270   71.6990  -23.1980 C.2   136  TRP136      0.2264
    147  O        -58.9030   72.2170  -22.3550 O.2   136  TRP136     -0.2867
    148  CB       -61.7500   71.3280  -21.9650 C.3   136  TRP136      0.0550
    149  CG       -62.9500   70.4950  -21.6970 C.ar  136  TRP136      0.0003
    150  CD1      -63.0140   69.1150  -21.5360 C.ar  136  TRP136      0.0946
    151  CD2      -64.2890   70.9760  -21.5600 C.ar  136  TRP136      0.0152
    152  NE1      -64.3230   68.7350  -21.3140 N.ar  136  TRP136     -0.2442
    153  CE2      -65.1200   69.8560  -21.3220 C.ar  136  TRP136      0.0810
    154  CE3      -64.8700   72.2470  -21.6240 C.ar  136  TRP136      0.0012
    155  CZ2      -66.5070   69.9800  -21.1330 C.ar  136  TRP136      0.0191
    156  CZ3      -66.2450   72.3610  -21.4300 C.ar  136  TRP136      0.0001
    157  CH2      -67.0430   71.2380  -21.1980 C.ar  136  TRP136      0.0015
    158  N        -70.4390   68.4670  -29.9900 N.3   173  THR173     -0.1218
    159  CA       -71.0530   67.7810  -28.8560 C.3   173  THR173      0.1862
    160  C        -72.3870   68.4140  -28.4840 C.2   173  THR173      0.2287
    161  O        -73.3660   67.7020  -28.2260 O.2   173  THR173     -0.2866
    162  CB       -70.1170   67.7940  -27.6440 C.3   173  THR173      0.1770
    163  OG1      -68.8410   67.2530  -28.0020 O.3   173  THR173     -0.2211
    164  CG2      -70.6910   66.9470  -26.5240 C.3   173  THR173      0.0375
@<TRIPOS>BOND
     1   158   159    1
     2   159   160    1
     3   159   162    1
     4   160   161    2
     5   163   162    1
     6   162   164    1
     7    92    91    2
     8    89    90    1
     9    91    90    1
    10    90    93    1
    11    94    93    1
    12    94    95    1
    13    98    97    1
    14    96    95    1
    15    96    97    2
    16    69    68    2
    17    97    99    1
    18    76    78   ar
    19    76    73   ar
    20    78    79   ar
    21    70    71    1
    22    70    67    1
    23    73    71   ar
    24    73    75   ar
    25    79    77   ar
    26    71    72   ar
    27    75    77   ar
    28    75    74   ar
    29    72    74   ar
    30    68    67    1
    31    68    80   am
    32    67    66    1
    33   146   145    1
    34   146   147    2
    35    83    82    2
    36   134   133    1
    37    81    80    1
    38    81    82    1
    39    81    84    1
    40   145   144    1
    41   145   148    1
    42    85    84    1
    43    85    86    1
    44    87    86   ar
    45    86    88   ar
    46    66    60   am
    47   148   149    1
    48   132   133    1
    49   132   131    1
    50   141   140    1
    51   141   142    1
    52   143   142    1
    53   149   151   ar
    54   149   150   ar
    55   154   151   ar
    56   154   156   ar
    57   151   153   ar
    58   150   152   ar
    59   156   157   ar
    60   153   152   ar
    61   153   155   ar
    62   157   155   ar
    63    61    60    2
    64   131   130    1
    65    60    59    1
    66   140   139    1
    67   139   136    1
    68   129   128    2
    69   130   127    1
    70    59    62    1
    71    59    58    1
    72   136   137    1
    73   136   135    1
    74    62    63    1
    75   128   127    1
    76   113   112    2
    77    58    53   am
    78    63    64    1
    79   127   126    1
    80   137   138    2
    81    64    65    1
    82   112   114   am
    83   112   111    1
    84    42    40   am
    85    53    54    2
    86    53    52    1
    87   106   104    1
    88    32    33   ar
    89    32    30   ar
    90    33    31   ar
    91   104   105    1
    92   104   101    1
    93   103   102    2
    94    30    27   ar
    95    40    41    2
    96    40    39    1
    97    31    29   ar
    98    27    29   ar
    99    27    25   ar
   100    29    28   ar
   101   100   101    1
   102    39    38    1
   103   111   108    1
   104    28    26   ar
   105    25    24    1
   106    25    26   ar
   107    52    51    1
   108    52    55    1
   109   120   119    1
   110   120   121    1
   111    24    21    1
   112   119   116    1
   113   101   102    1
   114   122   121    1
   115   122   123    2
   116    51    57    1
   117   125   123    1
   118   123   124    1
   119   107   108    1
   120    55    56    1
   121   110   109    2
   122   108   109    1
   123    38    35    1
   124   118   117    2
   125    21    20    1
   126    21    22    1
   127    34    22   am
   128    34    35    1
   129   116   117    1
   130   116   115    1
   131    22    23    2
   132    35    36    1
   133    57    56    1
   134    49    48   ar
   135    50    48   ar
   136    48    47    1
   137    19    17   am
   138     9    11   ar
   139     9     7   ar
   140    11    10   ar
   141    47    44    1
   142    36    37    2
   143     7     6   ar
   144    10     8   ar
   145    17    18    2
   146    17    16    1
   147     8     6   ar
   148     6     5    1
   149    44    43    1
   150    44    45    1
   151     5     2    1
   152    16    13    1
   153    45    46    2
   154    13    12    1
   155    13    14    1
   156     2     1    1
   157     2     3    1
   158    14    15    2
   159     3     4    2
