@<TRIPOS>MOLECULE
tmp/5j5pA00.pdb
 208 199 0 0 0
SMALL
GASTEIGER

@<TRIPOS>ATOM
      1  N         40.6960   31.8870   -3.8960 N.3    44  GLU44      -0.1231
      2  CA        40.2280   33.1590   -4.4710 C.3    44  GLU44       0.1699
      3  C         40.2480   34.2660   -3.4190 C.2    44  GLU44       0.2592
      4  O         40.6960   35.3910   -3.6810 O.2    44  GLU44      -0.2718
      5  CB        38.7950   33.0500   -5.0460 C.3    44  GLU44       0.0402
      6  CG        38.6310   32.1520   -6.2910 C.3    44  GLU44       0.1161
      7  CD        39.4350   32.6150   -7.5140 C.2    44  GLU44       0.3649
      8  OE1       39.4120   31.8690   -8.5190 O.co2  44  GLU44      -0.2457
      9  OE2       40.1010   33.6860   -7.4940 O.co2  44  GLU44      -0.2457
     10  N         39.7340   33.9810   -2.2250 N.am   45  ILE45      -0.1980
     11  CA        39.6460   35.0420   -1.2120 C.3    45  ILE45       0.1595
     12  C         41.0440   35.3680   -0.6630 C.2    45  ILE45       0.2287
     13  O         41.3960   36.5420   -0.4870 O.2    45  ILE45      -0.2864
     14  CB        38.6590   34.6140   -0.1010 C.3    45  ILE45       0.0276
     15  CG1       37.2650   34.3060   -0.7220 C.3    45  ILE45       0.0022
     16  CG2       38.5520   35.7240    0.9450 C.3    45  ILE45       0.0022
     17  CD1       36.6920   35.5350   -1.5520 C.3    45  ILE45       0.0001
     18  N         43.9100   34.9580   -2.3280 N.3    47  ASP47      -0.1225
     19  CA        44.6500   35.6490   -3.4000 C.3    47  ASP47       0.1805
     20  C         44.3410   37.1430   -3.4290 C.2    47  ASP47       0.2598
     21  O         45.2410   37.9700   -3.6630 O.2    47  ASP47      -0.2718
     22  CB        44.3070   35.0840   -4.7830 C.3    47  ASP47       0.1424
     23  CG        44.9910   33.7260   -5.0800 C.2    47  ASP47       0.3668
     24  OD1       45.8610   33.3040   -4.2900 O.co2  47  ASP47      -0.2456
     25  OD2       44.6400   33.1240   -6.1260 O.co2  47  ASP47      -0.2456
     26  N         43.0790   37.5130   -3.1960 N.am   48  ASN48      -0.1960
     27  CA        42.7510   38.9460   -3.1560 C.3    48  ASN48       0.1819
     28  C         43.4790   39.6440   -2.0140 C.2    48  ASN48       0.2621
     29  O         43.8820   40.8110   -2.1290 O.2    48  ASN48      -0.2715
     30  CB        41.2230   39.1820   -3.0350 C.3    48  ASN48       0.1195
     31  CG        40.4500   38.8070   -4.3050 C.2    48  ASN48       0.2630
     32  OD1       41.0170   38.8150   -5.3740 O.2    48  ASN48      -0.2716
     33  ND2       39.1600   38.5290   -4.1930 N.am   48  ASN48      -0.0877
     34  N         43.6040   38.9740   -0.8750 N.am   49  ALA49      -0.1977
     35  CA        44.3110   39.5970    0.2570 C.3    49  ALA49       0.1597
     36  C         45.8110   39.7080   -0.0340 C.2    49  ALA49       0.2287
     37  O         46.4680   40.7220    0.2850 O.2    49  ALA49      -0.2864
     38  CB        44.0610   38.7690    1.5320 C.3    49  ALA49       0.0319
     39  N         46.5800   42.7250   -2.2020 N.3    52  GLU52      -0.1245
     40  CA        46.7310   43.9510   -1.4210 C.3    52  GLU52       0.1567
     41  C         48.1500   44.0590   -0.8970 C.2    52  GLU52       0.2260
     42  O         48.7930   45.1180   -0.9810 O.2    52  GLU52      -0.2867
     43  CB        45.7370   43.9880   -0.2460 C.3    52  GLU52       0.0388
     44  CG        44.2800   44.3800   -0.6700 C.3    52  GLU52       0.1160
     45  CD        44.1970   45.8290   -1.1400 C.2    52  GLU52       0.3649
     46  OE1       43.6180   46.1150   -2.2350 O.co2  52  GLU52      -0.2457
     47  OE2       44.7020   46.6980   -0.4000 O.co2  52  GLU52      -0.2457
     48  N         42.1390   40.5550    6.1840 N.3    75  ASP75      -0.1239
     49  CA        43.3870   41.2170    5.8470 C.3    75  ASP75       0.1674
     50  C         43.3920   42.6210    6.4110 C.2    75  ASP75       0.2266
     51  O         42.3880   43.1250    6.9020 O.2    75  ASP75      -0.2867
     52  CB        43.6360   41.2330    4.3200 C.3    75  ASP75       0.1410
     53  CG        42.6060   42.1050    3.5330 C.2    75  ASP75       0.3668
     54  OD1       42.4990   43.3190    3.8310 O.co2  75  ASP75      -0.2456
     55  OD2       41.9370   41.5820    2.5870 O.co2  75  ASP75      -0.2456
     56  N         41.0990   47.7770    2.2120 N.3    79  GLY79      -0.1210
     57  CA        39.6660   47.6300    2.2620 C.3    79  GLY79       0.1956
     58  C         39.0780   47.8340    0.8830 C.2    79  GLY79       0.2612
     59  O         39.6700   48.5550    0.0710 O.2    79  GLY79      -0.2717
     60  N         37.9230   47.2180    0.6050 N.am   80  MET80      -0.1965
     61  CA        37.1800   47.5460   -0.6240 C.3    80  MET80       0.1721
     62  C         36.5580   48.9400   -0.5580 C.2    80  MET80       0.2458
     63  O         36.1790   49.4170    0.5130 O.2    80  MET80      -0.2730
     64  CB        36.0740   46.5320   -0.8550 C.3    80  MET80       0.0427
     65  CG        36.5810   45.1240   -0.8640 C.3    80  MET80       0.0599
     66  SD        35.2070   43.9820   -1.1060 S.3    80  MET80      -0.1393
     67  CE        36.0380   42.3980   -1.4170 C.3    80  MET80       0.0692
     68  N         36.3940   49.6090   -1.7000 N.am   81  PRO81      -0.2727
     69  CA        35.7310   50.9090   -1.6720 C.3    81  PRO81       0.1402
     70  C         34.3280   50.7870   -1.0960 C.2    81  PRO81       0.2269
     71  O         33.6100   49.8270   -1.3720 O.2    81  PRO81      -0.2865
     72  CB        35.7030   51.3200   -3.1440 C.3    81  PRO81       0.0296
     73  CG        36.8940   50.6060   -3.7370 C.3    81  PRO81       0.0237
     74  CD        36.8870   49.2700   -3.0460 C.3    81  PRO81       0.0939
     75  N         31.5400   44.1050   -6.6920 N.3    95  ILE95      -0.1245
     76  CA        32.6600   43.1550   -6.5690 C.3    95  ILE95       0.1561
     77  C         32.1370   41.7400   -6.3930 C.2    95  ILE95       0.2260
     78  O         32.6380   40.7950   -7.0110 O.2    95  ILE95      -0.2867
     79  CB        33.5870   43.5950   -5.4080 C.3    95  ILE95       0.0252
     80  CG1       34.4670   44.7960   -5.8450 C.3    95  ILE95       0.0019
     81  CG2       34.3990   42.3920   -4.8590 C.3    95  ILE95       0.0019
     82  CD1       35.0860   45.7010   -4.6270 C.3    95  ILE95       0.0001
     83  N         34.3320   42.1390  -13.1250 N.3   101  ALA101     -0.1231
     84  CA        34.2790   43.4580  -12.5000 C.3   101  ALA101      0.1694
     85  C         35.3790   43.5220  -11.4580 C.2   101  ALA101      0.2593
     86  O         35.3900   42.7010  -10.5350 O.2   101  ALA101     -0.2718
     87  CB        32.9040   43.6820  -11.8560 C.3   101  ALA101      0.0304
     88  N         36.3320   44.4370  -11.6150 N.am  102  GLY102     -0.1942
     89  CA        37.3900   44.4830  -10.6060 C.3   102  GLY102      0.2014
     90  C         38.3680   45.6090  -10.8580 C.2   102  GLY102      0.2639
     91  O         38.1810   46.4290  -11.7720 O.2   102  GLY102     -0.2714
     92  N         39.4510   45.6020  -10.0650 N.am  103  GLY103     -0.1939
     93  CA        40.4520   46.6660  -10.1250 C.3   103  GLY103      0.2014
     94  C         41.7670   46.2560  -10.7540 C.2   103  GLY103      0.2639
     95  O         42.7460   47.0130  -10.6770 O.2   103  GLY103     -0.2714
     96  N         41.8250   45.1020  -11.4130 N.am  104  LYS104     -0.1963
     97  CA        43.0850   44.5610  -11.9220 C.3   104  LYS104      0.1728
     98  C         43.0760   44.4250  -13.4360 C.2   104  LYS104      0.2616
     99  O         43.6250   43.4720  -13.9880 O.2   104  LYS104     -0.2715
    100  CB        43.3460   43.2230  -11.2580 C.3   104  LYS104      0.0311
    101  CG        43.5020   43.4470   -9.7390 C.3   104  LYS104      0.0038
    102  CD        43.4520   42.0940   -8.9500 C.3   104  LYS104      0.0206
    103  CE        43.3120   42.3810   -7.4110 C.3   104  LYS104      0.1093
    104  NZ        42.9000   41.1020   -6.7020 N.3   104  LYS104     -0.1314
    105  N         42.4390   45.3790  -14.1130 N.am  105  PHE105     -0.1974
    106  CA        42.4290   45.4680  -15.5710 C.3   105  PHE105      0.1639
    107  C         43.4220   46.5040  -16.1120 C.2   105  PHE105      0.2290
    108  O         43.2660   46.9620  -17.2500 O.2   105  PHE105     -0.2864
    109  CB        41.0000   45.8120  -16.0410 C.3   105  PHE105      0.0560
    110  CG        39.9610   44.7370  -15.7070 C.ar  105  PHE105     -0.0200
    111  CD1       40.2580   43.3840  -15.8690 C.ar  105  PHE105     -0.0042
    112  CD2       38.6900   45.0810  -15.3010 C.ar  105  PHE105     -0.0042
    113  CE1       39.3260   42.3790  -15.5850 C.ar  105  PHE105     -0.0003
    114  CE2       37.7120   44.0970  -15.0310 C.ar  105  PHE105     -0.0003
    115  CZ        38.0270   42.7340  -15.1580 C.ar  105  PHE105     -0.0000
    116  N         46.1220   48.6580   -8.4710 N.3   110  TYR110     -0.1241
    117  CA        47.0120   47.5920   -8.0300 C.3   110  TYR110      0.1605
    118  C         48.2960   47.6690   -8.8420 C.2   110  TYR110      0.2264
    119  O         48.2700   48.0120  -10.0310 O.2   110  TYR110     -0.2867
    120  CB        46.3670   46.2010   -8.2000 C.3   110  TYR110      0.0534
    121  CG        45.3460   45.8810   -7.1320 C.ar  110  TYR110     -0.0201
    122  CD1       44.0010   46.2480   -7.2890 C.ar  110  TYR110     -0.0009
    123  CD2       45.7310   45.2150   -5.9580 C.ar  110  TYR110     -0.0009
    124  CE1       43.0670   45.9670   -6.3080 C.ar  110  TYR110      0.0417
    125  CE2       44.7960   44.9090   -4.9700 C.ar  110  TYR110      0.0417
    126  CZ        43.4750   45.2960   -5.1400 C.ar  110  TYR110      0.1957
    127  OH        42.5340   45.0260   -4.1840 O.3   110  TYR110     -0.2866
    128  N         45.3370   38.4180   -9.2530 N.3   115  GLY115     -0.1210
    129  CA        44.0340   38.5910   -9.8470 C.3   115  GLY115      0.1956
    130  C         44.1350   39.3360  -11.1710 C.2   115  GLY115      0.2612
    131  O         45.0080   40.1870  -11.3760 O.2   115  GLY115     -0.2717
    132  N         43.2250   38.9960  -12.0920 N.am  116  LEU116     -0.1965
    133  CA        43.1680   39.6780  -13.3670 C.3   116  LEU116      0.1728
    134  C         41.8300   39.4750  -14.0810 C.2   116  LEU116      0.2616
    135  O         41.5610   40.1870  -15.0460 O.2   116  LEU116     -0.2715
    136  CB        44.3440   39.2220  -14.2950 C.3   116  LEU116      0.0311
    137  CG        44.1190   37.8940  -15.1130 C.3   116  LEU116      0.0022
    138  CD1       45.2040   37.6310  -16.2330 C.3   116  LEU116      0.0001
    139  CD2       44.0900   36.6760  -14.1660 C.3   116  LEU116      0.0001
    140  N         41.0040   38.4840  -13.6910 N.am  117  HIS117     -0.1959
    141  CA        39.7790   38.2180  -14.4560 C.3   117  HIS117      0.1787
    142  C         38.5550   39.0100  -13.9720 C.2   117  HIS117      0.2621
    143  O         37.5760   39.1630  -14.7360 O.2   117  HIS117     -0.2715
    144  CB        39.4470   36.7130  -14.4090 C.3   117  HIS117      0.0785
    145  CG        40.4560   35.8680  -15.1310 C.ar  117  HIS117      0.0821
    146  ND1       40.8610   34.6250  -14.6930 N.ar  117  HIS117     -0.2267
    147  CD2       41.1630   36.1150  -16.2620 C.ar  117  HIS117      0.1154
    148  CE1       41.7500   34.1310  -15.5480 C.ar  117  HIS117      0.1986
    149  NE2       41.9450   35.0190  -16.5010 N.ar  117  HIS117     -0.2212
    150  N         38.5770   39.5230  -12.7480 N.am  118  GLY118     -0.1940
    151  CA        37.3780   40.1600  -12.1990 C.3   118  GLY118      0.2014
    152  C         36.2770   39.1780  -11.8110 C.2   118  GLY118      0.2639
    153  O         35.0980   39.5610  -11.8120 O.2   118  GLY118     -0.2714
    154  N         36.6080   37.9230  -11.5140 N.am  119  VAL119     -0.1963
    155  CA        35.5200   36.9670  -11.2550 C.3   119  VAL119      0.1727
    156  C         35.6490   36.3200   -9.8700 C.2   119  VAL119      0.2617
    157  O         34.6490   35.8680   -9.3160 O.2   119  VAL119     -0.2715
    158  CB        35.4120   35.8590  -12.3350 C.3   119  VAL119      0.0290
    159  CG1       35.2320   36.4560  -13.8070 C.3   119  VAL119      0.0023
    160  CG2       36.4990   34.8760  -12.2390 C.3   119  VAL119      0.0023
    161  N         36.8370   36.2460   -9.3190 N.am  120  GLY120     -0.1940
    162  CA        37.0770   35.3840   -8.1510 C.3   120  GLY120      0.2014
    163  C         36.0890   35.5930   -6.9770 C.2   120  GLY120      0.2640
    164  O         35.4200   34.6590   -6.5440 O.2   120  GLY120     -0.2714
    165  N         35.9700   36.8090   -6.4490 N.am  121  SER121     -0.1935
    166  CA        35.0780   37.0240   -5.2940 C.3   121  SER121      0.2055
    167  C         33.6340   36.7190   -5.6460 C.2   121  SER121      0.2643
    168  O         32.8840   36.2340   -4.8030 O.2   121  SER121     -0.2714
    169  CB        35.1490   38.4780   -4.8240 C.3   121  SER121      0.2130
    170  OG        36.4670   38.7690   -4.3490 O.3   121  SER121     -0.2179
    171  N         33.2040   37.1060   -6.8540 N.am  122  SER122     -0.1949
    172  CA        31.8280   36.8540   -7.2530 C.3   122  SER122      0.1924
    173  C         31.5710   35.3600   -7.4590 C.2   122  SER122      0.2314
    174  O         30.4560   34.8850   -7.2130 O.2   122  SER122     -0.2863
    175  CB        31.5040   37.6700   -8.5220 C.3   122  SER122      0.2116
    176  OG        32.6090   37.6430   -9.4250 O.3   122  SER122     -0.2180
    177  N         39.7760   44.1990    5.0550 N.3   169  THR169     -0.1218
    178  CA        38.6350   43.4720    4.5140 C.3   169  THR169      0.1862
    179  C         38.5640   42.1220    5.2090 C.2   169  THR169      0.2287
    180  O         39.5760   41.4280    5.3310 O.2   169  THR169     -0.2866
    181  CB        38.7640   43.2520    2.9840 C.3   169  THR169      0.1770
    182  OG1       38.7780   44.5450    2.3540 O.3   169  THR169     -0.2211
    183  CG2       37.5760   42.3870    2.4320 C.3   169  THR169      0.0375
    184  N         36.2670   38.6040    4.8750 N.3   171  VAL171     -0.1245
    185  CA        35.2800   37.8590    4.0900 C.3   171  VAL171      0.1561
    186  C         35.0530   36.5410    4.7990 C.2   171  VAL171      0.2260
    187  O         36.0300   35.8420    5.1040 O.2   171  VAL171     -0.2867
    188  CB        35.7290   37.6090    2.6500 C.3   171  VAL171      0.0252
    189  CG1       34.6560   36.7410    1.8700 C.3   171  VAL171      0.0019
    190  CG2       36.0900   38.9500    1.9070 C.3   171  VAL171      0.0019
    191  N         40.5030   29.9390  -15.4920 N.3   339  GLN339     -0.1245
    192  CA        40.2420   30.5870  -14.2210 C.3   339  GLN339      0.1566
    193  C         41.0650   29.9780  -13.0890 C.2   339  GLN339      0.2260
    194  O         41.3940   30.6790  -12.1250 O.2   339  GLN339     -0.2867
    195  CB        38.7560   30.4830  -13.9250 C.3   339  GLN339      0.0367
    196  CG        38.2050   31.7850  -13.6250 C.3   339  GLN339      0.0905
    197  CD        38.7360   32.3050  -12.3270 C.2   339  GLN339      0.2608
    198  OE1       38.5090   31.7090  -11.2780 O.2   339  GLN339     -0.2717
    199  NE2       39.4220   33.4370  -12.3790 N.am  339  GLN339     -0.0878
    200  N         44.1610   29.0930  -13.2300 N.3   341  LYS341     -0.1245
    201  CA        45.5140   29.6640  -13.2890 C.3   341  LYS341      0.1561
    202  C         46.6240   28.6460  -12.9940 C.2   341  LYS341      0.2260
    203  O         47.6160   28.9470  -12.3420 O.2   341  LYS341     -0.2867
    204  CB        45.6520   30.8420  -12.3120 C.3   341  LYS341      0.0271
    205  CG        44.6000   31.9320  -12.5880 C.3   341  LYS341      0.0035
    206  CD        44.6730   33.0660  -11.4970 C.3   341  LYS341      0.0206
    207  CE        43.5480   34.0890  -11.7980 C.3   341  LYS341      0.1093
    208  NZ        43.5210   35.1800  -10.7770 N.3   341  LYS341     -0.1314
@<TRIPOS>BOND
     1   108   107    2
     2   149   147   ar
     3   149   148   ar
     4   147   145   ar
     5   138   137    1
     6   107   106    1
     7   109   110    1
     8   109   106    1
     9   111   110   ar
    10   111   113   ar
    11   110   112   ar
    12   113   115   ar
    13   106   105    1
    14   148   146   ar
    15   191   192    1
    16   112   114   ar
    17   115   114   ar
    18   145   146   ar
    19   145   144    1
    20   137   136    1
    21   137   139    1
    22   135   134    2
    23   143   142    2
    24   141   144    1
    25   141   142    1
    26   141   140    1
    27   136   133    1
    28   192   195    1
    29   192   193    1
    30   105    98   am
    31   134   140   am
    32   134   133    1
    33    99    98    2
    34   142   150   am
    35   195   196    1
    36   159   158    1
    37   196   197    1
    38    98    97    1
    39   133   132    1
    40   201   200    1
    41   201   202    1
    42   201   204    1
    43    83    84    1
    44   193   194    2
    45   202   203    2
    46   150   151    1
    47   205   204    1
    48   205   206    1
    49    84    87    1
    50    84    85    1
    51   199   197   am
    52   158   160    1
    53   158   155    1
    54   197   198    2
    55   151   152    1
    56   132   130   am
    57    97    96    1
    58    97   100    1
    59   153   152    2
    60   152   154   am
    61   207   206    1
    62   207   208    1
    63    91    90    2
    64    88    85   am
    65    88    89    1
    66   154   155    1
    67    85    86    2
    68    96    94   am
    69   131   130    2
    70   100   101    1
    71   155   156    1
    72   130   129    1
    73    90    89    1
    74    90    92   am
    75    94    95    2
    76    94    93    1
    77    93    92    1
    78   119   118    2
    79   156   161   am
    80   156   157    2
    81   129   128    1
    82   101   102    1
    83   176   175    1
    84   161   162    1
    85   102   103    1
    86   118   117    1
    87   175   172    1
    88     8     7   ar
    89   116   117    1
    90   120   117    1
    91   120   121    1
    92   162   163    1
    93     7     9   ar
    94     7     6    1
    95   173   172    1
    96   173   174    2
    97   103   104    1
    98   122   121   ar
    99   122   124   ar
   100   172   171    1
   101   121   123   ar
   102    78    77    2
   103   163   164    2
   104   163   165   am
   105   171   167   am
   106    75    76    1
   107    76    77    1
   108    76    79    1
   109   165   166    1
   110   124   126   ar
   111     6     5    1
   112    25    23   ar
   113   123   125   ar
   114    80    79    1
   115    80    82    1
   116   167   166    1
   117   167   168    2
   118    79    81    1
   119    32    31    2
   120   166   169    1
   121   126   125   ar
   122   126   127    1
   123    23    22    1
   124    23    24   ar
   125     5     2    1
   126   169   170    1
   127    22    19    1
   128     2     1    1
   129     2     3    1
   130    31    33   am
   131    31    30    1
   132    73    72    1
   133    73    74    1
   134     4     3    2
   135    21    20    2
   136    20    19    1
   137    20    26   am
   138     3    10   am
   139    19    18    1
   140    26    27    1
   141    27    30    1
   142    27    28    1
   143    72    69    1
   144    74    68    1
   145    46    45   ar
   146    10    11    1
   147    39    40    1
   148    29    28    2
   149    28    34   am
   150    68    69    1
   151    68    62   am
   152    69    70    1
   153    17    15    1
   154    40    41    1
   155    40    43    1
   156    67    66    1
   157    71    70    2
   158    11    12    1
   159    11    14    1
   160    45    44    1
   161    45    47   ar
   162    66    65    1
   163    42    41    2
   164    34    35    1
   165    65    64    1
   166    64    61    1
   167    15    14    1
   168    44    43    1
   169    12    13    2
   170    61    62    1
   171    61    60    1
   172    62    63    2
   173    14    16    1
   174    36    35    1
   175    36    37    2
   176    59    58    2
   177    35    38    1
   178    60    58   am
   179    58    57    1
   180   189   188    1
   181   190   188    1
   182    56    57    1
   183   182   181    1
   184   183   181    1
   185    55    53   ar
   186   188   185    1
   187   181   178    1
   188    53    54   ar
   189    53    52    1
   190   185   186    1
   191   185   184    1
   192    52    49    1
   193   178   177    1
   194   178   179    1
   195   186   187    2
   196   179   180    2
   197    49    48    1
   198    49    50    1
   199    50    51    2
