@<TRIPOS>MOLECULE
tmp/5j5rA00.pdb
 130 121 0 0 0
SMALL
GASTEIGER

@<TRIPOS>ATOM
      1  N        123.0730   10.6100    0.6580 N.3   130  ASP130     -0.1225
      2  CA       123.4930   11.7230    1.5090 C.3   130  ASP130      0.1805
      3  C        125.0180   11.7890    1.5950 C.2   130  ASP130      0.2598
      4  O        125.6310   11.1140    2.4340 O.2   130  ASP130     -0.2718
      5  CB       122.8510   11.5300    2.9010 C.3   130  ASP130      0.1424
      6  CG       123.4510   12.4250    3.9990 C.2   130  ASP130      0.3668
      7  OD1      123.7480   13.6240    3.7530 O.co2 130  ASP130     -0.2456
      8  OD2      123.5880   11.9140    5.1390 O.co2 130  ASP130     -0.2456
      9  N        125.6340   12.5690    0.7020 N.am  131  THR131     -0.1939
     10  CA       127.0960   12.7180    0.6710 C.3   131  THR131      0.2028
     11  C        127.5180   14.1800    0.5940 C.2   131  THR131      0.2642
     12  O        126.7170   15.0720    0.2630 O.2   131  THR131     -0.2714
     13  CB       127.7400   11.9800   -0.5320 C.3   131  THR131      0.1808
     14  OG1      127.5450   12.7440   -1.7310 O.3   131  THR131     -0.2208
     15  CG2      127.1540   10.5820   -0.7120 C.3   131  THR131      0.0379
     16  N        128.7860   14.4330    0.8970 N.am  132  ALA132     -0.1963
     17  CA       129.3210   15.7760    0.7640 C.3   132  ALA132      0.1728
     18  C        129.7630   16.0930   -0.6580 C.2   132  ALA132      0.2616
     19  O        130.0420   17.2450   -0.9730 O.2   132  ALA132     -0.2715
     20  CB       130.4860   15.9750    1.7260 C.3   132  ALA132      0.0334
     21  N        129.8810   15.0760   -1.5060 N.am  133  HIS133     -0.1973
     22  CA       130.3550   15.2900   -2.8750 C.3   133  HIS133      0.1656
     23  C        129.8100   14.1950   -3.7930 C.2   133  HIS133      0.2291
     24  O        130.3840   13.0960   -3.8770 O.2   133  HIS133     -0.2864
     25  CB       131.8890   15.3150   -2.9280 C.3   133  HIS133      0.0771
     26  CG       132.4340   15.6490   -4.2830 C.ar  133  HIS133      0.0820
     27  ND1      133.4890   14.9700   -4.8510 N.ar  133  HIS133     -0.2267
     28  CD2      132.0710   16.5960   -5.1790 C.ar  133  HIS133      0.1154
     29  CE1      133.7490   15.4780   -6.0430 C.ar  133  HIS133      0.1986
     30  NE2      132.9040   16.4650   -6.2680 N.ar  133  HIS133     -0.2212
     31  N        125.5720   15.8280   -2.2210 N.3   160  ASN160     -0.1240
     32  CA       125.3590   17.2200   -2.6200 C.3   160  ASN160      0.1653
     33  C        126.2490   17.6230   -3.7900 C.2   160  ASN160      0.2266
     34  O        127.3340   17.0660   -3.9880 O.2   160  ASN160     -0.2867
     35  CB       125.6080   18.1620   -1.4300 C.3   160  ASN160      0.1155
     36  CG       124.4190   18.2490   -0.4950 C.2   160  ASN160      0.2627
     37  OD1      123.5040   17.4220   -0.5560 O.2   160  ASN160     -0.2716
     38  ND2      124.4220   19.2510    0.3830 N.am  160  ASN160     -0.0877
     39  N        120.3120   17.7570   -4.7140 N.3   179  LYS179     -0.1245
     40  CA       120.5070   18.6330   -3.5660 C.3   179  LYS179      0.1561
     41  C        121.8260   19.3990   -3.6860 C.2   179  LYS179      0.2260
     42  O        122.8850   18.8160   -3.9740 O.2   179  LYS179     -0.2867
     43  CB       120.4460   17.8150   -2.2730 C.3   179  LYS179      0.0271
     44  CG       120.3810   18.6770   -1.0120 C.3   179  LYS179      0.0035
     45  CD       119.5450   18.0220    0.0990 C.3   179  LYS179      0.0206
     46  CE       120.1730   16.7430    0.6580 C.3   179  LYS179      0.1093
     47  NZ       121.4920   16.9840    1.3390 N.3   179  LYS179     -0.1314
     48  N        124.7050   22.1440   -2.2760 N.3   181  GLY181     -0.1210
     49  CA       125.3700   22.7880   -1.1650 C.3   181  GLY181      0.1956
     50  C        126.6640   22.0590   -0.8530 C.2   181  GLY181      0.2612
     51  O        126.6550   20.9880   -0.2480 O.2   181  GLY181     -0.2717
     52  N        127.7800   22.6270   -1.2980 N.am  182  VAL182     -0.1965
     53  CA       129.0890   22.1340   -0.8730 C.3   182  VAL182      0.1727
     54  C        129.8160   23.3060   -0.2400 C.2   182  VAL182      0.2617
     55  O        130.1880   24.2620   -0.9250 O.2   182  VAL182     -0.2715
     56  CB       129.9090   21.5510   -2.0410 C.3   182  VAL182      0.0290
     57  CG1      131.2650   21.0440   -1.5350 C.3   182  VAL182      0.0023
     58  CG2      129.1270   20.4470   -2.7360 C.3   182  VAL182      0.0023
     59  N        129.9360   23.2540    1.0870 N.am  183  GLY183     -0.1941
     60  CA       130.5500   24.3230    1.8520 C.3   183  GLY183      0.1998
     61  C        129.7260   25.4240    2.5320 C.2   183  GLY183      0.2480
     62  O        130.2970   26.1780    3.3210 O.2   183  GLY183     -0.2729
     63  N        128.4090   25.5480    2.2530 N.am  184  PRO184     -0.2726
     64  CA       127.7720   26.7680    2.7670 C.3   184  PRO184      0.1402
     65  C        127.1660   26.6680    4.1770 C.2   184  PRO184      0.2269
     66  O        126.7110   27.6850    4.6970 O.2   184  PRO184     -0.2865
     67  CB       126.6610   27.0060    1.7430 C.3   184  PRO184      0.0296
     68  CG       126.2020   25.6320    1.4400 C.3   184  PRO184      0.0237
     69  CD       127.4370   24.7430    1.4860 C.3   184  PRO184      0.0939
     70  N        129.7310   24.5980    9.0520 N.3   188  CYS188     -0.1235
     71  CA       130.7200   24.0290    8.1410 C.3   188  CYS188      0.1677
     72  C        132.1130   24.6460    8.2650 C.2   188  CYS188      0.2270
     73  O        132.2570   25.8610    8.3850 O.2   188  CYS188     -0.2867
     74  CB       130.2300   24.1860    6.6980 C.3   188  CYS188      0.0956
     75  SG       131.3700   23.5360    5.4350 S.3   188  CYS188     -0.0801
     76  N        134.4690   23.2350    5.9970 N.3   190  THR190     -0.1218
     77  CA       135.0560   22.7260    4.7550 C.3   190  THR190      0.1862
     78  C        135.8500   23.8140    4.0390 C.2   190  THR190      0.2287
     79  O        136.9300   23.5650    3.4880 O.2   190  THR190     -0.2866
     80  CB       133.9750   22.1780    3.8110 C.3   190  THR190      0.1770
     81  OG1      133.3190   21.0690    4.4470 O.3   190  THR190     -0.2211
     82  CG2      134.5680   21.7330    2.4820 C.3   190  THR190      0.0375
     83  N        120.4200   23.3860   -0.0740 N.3   221  ASP221     -0.1239
     84  CA       120.8020   22.8350    1.2330 C.3   221  ASP221      0.1674
     85  C        121.9950   23.5690    1.8710 C.2   221  ASP221      0.2266
     86  O        123.1440   23.3920    1.4530 O.2   221  ASP221     -0.2867
     87  CB       121.1220   21.3540    1.0610 C.3   221  ASP221      0.1410
     88  CG       121.5270   20.6810    2.3570 C.2   221  ASP221      0.3668
     89  OD1      121.2320   21.2380    3.4360 O.co2 221  ASP221     -0.2456
     90  OD2      122.1220   19.5850    2.2890 O.co2 221  ASP221     -0.2456
     91  N        127.5280   17.1070   11.0950 N.3   271  MET271     -0.1230
     92  CA       127.7090   15.6660   10.9870 C.3   271  MET271      0.1702
     93  C        129.1800   15.3490   10.7130 C.2   271  MET271      0.2592
     94  O        129.6030   14.1960   10.8100 O.2   271  MET271     -0.2718
     95  CB       126.8040   15.0820    9.8990 C.3   271  MET271      0.0401
     96  CG       125.3190   15.1950   10.2310 C.3   271  MET271      0.0596
     97  SD       124.9060   14.6690   11.9240 S.3   271  MET271     -0.1393
     98  CE       125.2820   12.9300   11.8460 C.3   271  MET271      0.0692
     99  N        129.9570   16.3850   10.3980 N.am  272  GLY272     -0.1957
    100  CA       131.3900   16.2500   10.1960 C.3   272  GLY272      0.1869
    101  C        132.2160   16.7170   11.3810 C.2   272  GLY272      0.2309
    102  O        133.4390   16.7750   11.2960 O.2   272  GLY272     -0.2863
    103  N        131.2660   12.2580   14.6530 N.3   277  MET277     -0.1245
    104  CA       132.0190   11.1490   14.0790 C.3   277  MET277      0.1570
    105  C        132.4810   10.1870   15.1690 C.2   277  MET277      0.2261
    106  O        132.8150    9.0350   14.8910 O.2   277  MET277     -0.2867
    107  CB       133.2120   11.6700   13.2710 C.3   277  MET277      0.0387
    108  CG       132.8040   12.5600   12.0980 C.3   277  MET277      0.0595
    109  SD       134.1290   12.9230   10.9260 S.3   277  MET277     -0.1393
    110  CE       135.1790   13.9920   11.9040 C.3   277  MET277      0.0692
    111  N        139.4750   13.9100   10.1020 N.3   279  VAL279     -0.1245
    112  CA       139.6900   15.3450    9.9260 C.3   279  VAL279      0.1561
    113  C        138.3380   16.0530    9.8280 C.2   279  VAL279      0.2260
    114  O        137.6670   15.9890    8.7970 O.2   279  VAL279     -0.2867
    115  CB       140.5390   15.6470    8.6720 C.3   279  VAL279      0.0252
    116  CG1      140.5950   17.1470    8.4060 C.3   279  VAL279      0.0019
    117  CG2      141.9460   15.0870    8.8400 C.3   279  VAL279      0.0019
    118  N        135.1470   18.4820    9.4700 N.3   281  GLU281     -0.1231
    119  CA       134.7350   19.5330    8.5420 C.3   281  GLU281      0.1699
    120  C        133.4740   20.2280    9.0510 C.2   281  GLU281      0.2592
    121  O        132.7240   20.8340    8.2790 O.2   281  GLU281     -0.2718
    122  CB       134.4970   18.9620    7.1400 C.3   281  GLU281      0.0402
    123  CG       135.7680   18.5250    6.4350 C.3   281  GLU281      0.1161
    124  CD       135.5220   18.0950    5.0030 C.2   281  GLU281      0.3649
    125  OE1      134.6200   18.6750    4.3530 O.co2 281  GLU281     -0.2457
    126  OE2      136.2200   17.1660    4.5360 O.co2 281  GLU281     -0.2457
    127  N        133.2450   20.1370   10.3570 N.am  282  GLY282     -0.1957
    128  CA       132.1330   20.8250   10.9870 C.3   282  GLY282      0.1869
    129  C        132.4710   21.1360   12.4290 C.2   282  GLY282      0.2309
    130  O        133.3950   20.5420   12.9880 O.2   282  GLY282     -0.2863
@<TRIPOS>BOND
     1    30    29   ar
     2    30    28   ar
     3    29    27   ar
     4    28    26   ar
     5    27    26   ar
     6    39    40    1
     7    26    25    1
     8    34    33    2
     9    42    41    2
    10    24    23    2
    11    23    22    1
    12    33    32    1
    13    41    40    1
    14    40    43    1
    15    25    22    1
    16    22    21    1
    17    58    56    1
    18    32    31    1
    19    32    35    1
    20    48    49    1
    21    43    44    1
    22    56    57    1
    23    56    53    1
    24    14    13    1
    25    21    18   am
    26    35    36    1
    27    52    53    1
    28    52    50   am
    29    49    50    1
    30    44    45    1
    31    19    18    2
    32    55    54    2
    33    53    54    1
    34    50    51    2
    35    15    13    1
    36    18    17    1
    37    37    36    2
    38    13    10    1
    39    36    38   am
    40    54    59   am
    41    83    84    1
    42    45    46    1
    43    12    11    2
    44    11    10    1
    45    11    16   am
    46    46    47    1
    47     1     2    1
    48    10     9    1
    49     9     3   am
    50    17    16    1
    51    17    20    1
    52    87    84    1
    53    87    88    1
    54    59    60    1
    55    84    85    1
    56    68    69    1
    57    68    67    1
    58    86    85    2
    59    69    63    1
    60     2     3    1
    61     2     5    1
    62     3     4    2
    63    67    64    1
    64    60    61    1
    65    63    61   am
    66    63    64    1
    67    90    88   ar
    68    88    89   ar
    69    82    80    1
    70    61    62    2
    71    64    65    1
    72     5     6    1
    73    79    78    2
    74     7     6   ar
    75    80    81    1
    76    80    77    1
    77     6     8   ar
    78    78    77    1
    79    65    66    2
    80   125   124   ar
    81   126   124   ar
    82    77    76    1
    83   124   123    1
    84    75    74    1
    85   123   122    1
    86    74    71    1
    87   122   119    1
    88    71    72    1
    89    71    70    1
    90    72    73    2
    91   121   120    2
    92   116   115    1
    93   119   120    1
    94   119   118    1
    95   115   117    1
    96   115   112    1
    97   114   113    2
    98   120   127   am
    99   113   112    1
   100    95    96    1
   101    95    92    1
   102   112   111    1
   103   100    99    1
   104   100   101    1
   105    96    97    1
   106   127   128    1
   107    99    93   am
   108    93    94    2
   109    93    92    1
   110   109   110    1
   111   109   108    1
   112   128   129    1
   113    92    91    1
   114   102   101    2
   115    98    97    1
   116   108   107    1
   117   129   130    2
   118   107   104    1
   119   104   103    1
   120   104   105    1
   121   106   105    2
