@<TRIPOS>MOLECULE
tmp/5j5sB00.pdb
 207 194 0 0 0
SMALL
GASTEIGER

@<TRIPOS>ATOM
      1  N          0.6960   77.3760  -32.0580 N.3    18  LEU18      -0.1231
      2  CA         0.6160   76.7310  -30.7380 C.3    18  LEU18       0.1696
      3  C          1.6980   77.2290  -29.7770 C.2    18  LEU18       0.2631
      4  O          1.4540   77.3780  -28.5770 O.2    18  LEU18      -0.2714
      5  CB         0.7010   75.2120  -30.8580 C.3    18  LEU18       0.0284
      6  CG        -0.4900   74.5800  -31.5810 C.3    18  LEU18       0.0019
      7  CD1       -0.2880   73.1110  -31.7630 C.3    18  LEU18       0.0001
      8  CD2       -1.7810   74.8590  -30.8220 C.3    18  LEU18       0.0001
      9  N          2.8740   77.5420  -30.3060 N.am   19  GLY19      -0.1732
     10  CA         3.9430   78.0320  -29.4580 C.2    19  GLY19       0.1340
     11  C          5.2630   78.2880  -30.1420 C.2    19  GLY19       0.2521
     12  O          5.4870   77.8750  -31.2760 O.2    19  GLY19      -0.2816
     13  N         14.2630   78.3080  -31.0460 N.3    21  PHE21      -0.1241
     14  CA        14.1000   77.4920  -32.2430 C.3    21  PHE21       0.1605
     15  C         13.2490   78.2060  -33.2900 C.2    21  PHE21       0.2264
     16  O         13.6810   79.1830  -33.8910 O.2    21  PHE21      -0.2867
     17  CB        13.4690   76.1400  -31.9000 C.3    21  PHE21       0.0534
     18  CG        14.4150   75.3520  -31.0250 C.ar   21  PHE21      -0.0203
     19  CD1       15.5630   74.8260  -31.5820 C.ar   21  PHE21      -0.0042
     20  CD2       14.1610   75.1790  -29.6830 C.ar   21  PHE21      -0.0042
     21  CE1       16.4680   74.1610  -30.7690 C.ar   21  PHE21      -0.0003
     22  CE2       15.0610   74.5170  -28.9070 C.ar   21  PHE21      -0.0003
     23  CZ        16.2040   73.9970  -29.4510 C.ar   21  PHE21      -0.0000
     24  N          5.6460   76.5300  -33.6960 N.3    24  VAL24      -0.1245
     25  CA         4.9050   75.2850  -33.7620 C.3    24  VAL24       0.1561
     26  C          3.4480   75.6400  -34.0690 C.2    24  VAL24       0.2260
     27  O          2.8300   76.4410  -33.3650 O.2    24  VAL24      -0.2867
     28  CB         5.0000   74.4500  -32.4740 C.3    24  VAL24       0.0252
     29  CG1        4.2640   73.1370  -32.6720 C.3    24  VAL24       0.0019
     30  CG2        6.4450   74.1650  -32.1320 C.3    24  VAL24       0.0019
     31  N          0.4450   68.5280  -36.2430 N.3    36  ALA36      -0.1231
     32  CA         1.2490   69.5880  -35.6470 C.3    36  ALA36       0.1694
     33  C          2.4130   69.8600  -36.5800 C.2    36  ALA36       0.2592
     34  O          3.0170   68.9340  -37.1180 O.2    36  ALA36      -0.2718
     35  CB         1.7340   69.2000  -34.2540 C.3    36  ALA36       0.0304
     36  N          2.6980   71.1330  -36.8170 N.am   37  ILE37      -0.1966
     37  CA         3.7740   71.4980  -37.7300 C.3    37  ILE37       0.1727
     38  C          4.7860   72.4040  -37.0600 C.2    37  ILE37       0.2616
     39  O          4.4440   73.4780  -36.5590 O.2    37  ILE37      -0.2715
     40  CB         3.2380   72.2000  -38.9840 C.3    37  ILE37       0.0290
     41  CG1        2.2540   71.2860  -39.7060 C.3    37  ILE37       0.0022
     42  CG2        4.3770   72.5740  -39.9070 C.3    37  ILE37       0.0023
     43  CD1        1.5370   71.9560  -40.8400 C.3    37  ILE37       0.0001
     44  N          6.0400   71.9740  -37.0740 N.am   38  LYS38      -0.1977
     45  CA         7.1040   72.7770  -36.5040 C.3    38  LYS38       0.1596
     46  C          7.8980   73.3700  -37.6440 C.2    38  LYS38       0.2287
     47  O          8.3300   72.6610  -38.5590 O.2    38  LYS38      -0.2864
     48  CB         8.0040   71.9430  -35.5900 C.3    38  LYS38       0.0298
     49  CG         9.1200   72.7550  -34.9460 C.3    38  LYS38       0.0038
     50  CD         9.9150   71.9130  -33.9620 C.3    38  LYS38       0.0206
     51  CE         9.1240   71.6610  -32.6880 C.3    38  LYS38       0.1093
     52  NZ         9.8200   70.7060  -31.7720 N.3    38  LYS38      -0.1314
     53  N         11.2360   75.6920  -38.6320 N.3    40  LEU40      -0.1245
     54  CA        12.5430   76.1310  -38.1650 C.3    40  LEU40       0.1561
     55  C         12.9640   77.3940  -38.9060 C.2    40  LEU40       0.2260
     56  O         12.8830   77.4530  -40.1340 O.2    40  LEU40      -0.2867
     57  CB        13.5780   75.0150  -38.3590 C.3    40  LEU40       0.0270
     58  CG        13.2300   73.6650  -37.7120 C.3    40  LEU40       0.0019
     59  CD1       14.3490   72.6450  -37.8880 C.3    40  LEU40       0.0001
     60  CD2       12.9080   73.8540  -36.2310 C.3    40  LEU40       0.0001
     61  N         19.3790   75.6710  -38.7410 N.3    45  MET45      -0.1245
     62  CA        20.1590   74.5000  -39.1300 C.3    45  MET45       0.1570
     63  C         20.1520   74.2710  -40.6390 C.2    45  MET45       0.2261
     64  O         19.1370   74.4720  -41.3110 O.2    45  MET45      -0.2867
     65  CB        19.6580   73.2520  -38.3910 C.3    45  MET45       0.0387
     66  CG        18.4010   72.6040  -38.9480 C.3    45  MET45       0.0595
     67  SD        17.7410   71.3700  -37.8010 S.3    45  MET45      -0.1393
     68  CE        19.2600   70.5960  -37.2390 C.3    45  MET45       0.0692
     69  N         20.0240   68.9880  -40.5050 N.3    50  PHE50      -0.1241
     70  CA        18.7170   68.5360  -40.0480 C.3    50  PHE50       0.1605
     71  C         18.4560   67.0870  -40.4130 C.2    50  PHE50       0.2264
     72  O         17.9320   66.3200  -39.6060 O.2    50  PHE50      -0.2867
     73  CB        17.6120   69.4080  -40.6360 C.3    50  PHE50       0.0534
     74  CG        16.2640   68.7590  -40.6090 C.ar   50  PHE50      -0.0203
     75  CD1       15.5760   68.6160  -39.4150 C.ar   50  PHE50      -0.0042
     76  CD2       15.6850   68.2910  -41.7760 C.ar   50  PHE50      -0.0042
     77  CE1       14.3350   68.0160  -39.3840 C.ar   50  PHE50      -0.0003
     78  CE2       14.4440   67.6890  -41.7540 C.ar   50  PHE50      -0.0003
     79  CZ        13.7670   67.5530  -40.5550 C.ar   50  PHE50      -0.0000
     80  N         19.9880   64.6650  -38.1400 N.3    53  GLU53      -0.1231
     81  CA        19.2810   64.6400  -36.8630 C.3    53  GLU53       0.1699
     82  C         17.9280   63.9440  -36.9530 C.2    53  GLU53       0.2592
     83  O         17.5330   63.2200  -36.0410 O.2    53  GLU53      -0.2718
     84  CB        19.0860   66.0640  -36.3350 C.3    53  GLU53       0.0402
     85  CG        20.3760   66.8560  -36.1550 C.3    53  GLU53       0.1161
     86  CD        21.1480   66.4600  -34.9080 C.2    53  GLU53       0.3649
     87  OE1       20.6410   65.6240  -34.1290 O.co2  53  GLU53      -0.2457
     88  OE2       22.2640   66.9870  -34.7080 O.co2  53  GLU53      -0.2457
     89  N         17.2270   64.1520  -38.0640 N.am   54  ALA54      -0.1980
     90  CA        15.8810   63.6160  -38.2340 C.3    54  ALA54       0.1597
     91  C         15.8890   62.1050  -38.4010 C.2    54  ALA54       0.2287
     92  O         14.8380   61.4700  -38.3770 O.2    54  ALA54      -0.2864
     93  CB        15.2010   64.2650  -39.4290 C.3    54  ALA54       0.0319
     94  N         14.1250   60.2430  -35.4210 N.3    57  MET57      -0.1245
     95  CA        12.6710   60.2970  -35.4510 C.3    57  MET57       0.1570
     96  C         12.0840   59.4100  -36.5530 C.2    57  MET57       0.2261
     97  O         10.9860   58.8790  -36.4050 O.2    57  MET57      -0.2867
     98  CB        12.2090   61.7440  -35.6350 C.3    57  MET57       0.0387
     99  CG        10.7530   61.9670  -35.3280 C.3    57  MET57       0.0595
    100  SD        10.4460   63.4880  -34.4060 S.3    57  MET57      -0.1393
    101  CE         8.7600   63.1670  -33.8990 C.3    57  MET57       0.0692
    102  N          5.9170   60.6410  -29.7230 N.3    66  VAL66      -0.1245
    103  CA         5.2400   61.4620  -30.7220 C.3    66  VAL66       0.1561
    104  C          5.7010   61.0400  -32.1030 C.2    66  VAL66       0.2260
    105  O          6.9050   60.9430  -32.3640 O.2    66  VAL66      -0.2867
    106  CB         5.5270   62.9550  -30.5200 C.3    66  VAL66       0.0252
    107  CG1        5.0800   63.7580  -31.7420 C.3    66  VAL66       0.0019
    108  CG2        4.8650   63.4420  -29.2360 C.3    66  VAL66       0.0019
    109  N          8.6890   70.2480  -39.9890 N.3    79  ILE79      -0.1245
    110  CA         8.5630   68.8990  -39.4620 C.3    79  ILE79       0.1561
    111  C          7.1020   68.6540  -39.1040 C.2    79  ILE79       0.2260
    112  O          6.4830   69.4520  -38.4020 O.2    79  ILE79      -0.2867
    113  CB         9.4500   68.6660  -38.2320 C.3    79  ILE79       0.0252
    114  CG1       10.9020   68.9980  -38.5520 C.3    79  ILE79       0.0019
    115  CG2        9.3420   67.2220  -37.7770 C.3    79  ILE79       0.0019
    116  CD1       11.6510   69.6300  -37.3890 C.3    79  ILE79       0.0001
    117  N          4.1870   66.1920  -37.4490 N.3    81  THR81      -0.1203
    118  CA         3.9280   65.0590  -36.5610 C.3    81  THR81       0.1994
    119  C          2.4660   64.9500  -36.1750 C.2    81  THR81       0.2618
    120  O          1.6650   65.8010  -36.5550 O.2    81  THR81      -0.2717
    121  CB         4.7440   65.1640  -35.2750 C.3    81  THR81       0.1784
    122  OG1        4.2800   66.2820  -34.5120 O.3    81  THR81      -0.2211
    123  CG2        6.2110   65.3590  -35.5930 C.3    81  THR81       0.0376
    124  N          2.1190   63.9080  -35.4170 N.am   82  GLU82      -0.1965
    125  CA         0.7780   63.8340  -34.8430 C.3    82  GLU82       0.1733
    126  C          0.5520   65.0120  -33.8910 C.2    82  GLU82       0.2616
    127  O          1.4810   65.4870  -33.2340 O.2    82  GLU82      -0.2715
    128  CB         0.5440   62.5130  -34.1000 C.3    82  GLU82       0.0429
    129  CG         1.3620   62.3460  -32.8580 C.3    82  GLU82       0.1163
    130  CD         1.1140   61.0250  -32.1460 C.2    82  GLU82       0.3649
    131  OE1        2.0750   60.2500  -31.9770 O.co2  82  GLU82      -0.2457
    132  OE2       -0.0400   60.7670  -31.7460 O.co2  82  GLU82      -0.2457
    133  N         -0.6940   65.4640  -33.8310 N.am   83  TYR83      -0.1960
    134  CA        -1.1130   66.5560  -32.9720 C.3    83  TYR83       0.1771
    135  C         -1.4380   66.0520  -31.5710 C.2    83  TYR83       0.2619
    136  O         -2.2040   65.1000  -31.4120 O.2    83  TYR83      -0.2715
    137  CB        -2.3310   67.2480  -33.5870 C.3    83  TYR83       0.0574
    138  CG        -2.9280   68.3410  -32.7380 C.ar   83  TYR83      -0.0198
    139  CD1       -2.1890   69.4640  -32.3920 C.ar   83  TYR83      -0.0009
    140  CD2       -4.2450   68.2660  -32.3050 C.ar   83  TYR83      -0.0009
    141  CE1       -2.7400   70.4730  -31.6180 C.ar   83  TYR83       0.0417
    142  CE2       -4.8080   69.2720  -31.5350 C.ar   83  TYR83       0.0417
    143  CZ        -4.0510   70.3740  -31.1940 C.ar   83  TYR83       0.1957
    144  OH        -4.6130   71.3800  -30.4290 O.3    83  TYR83      -0.2866
    145  N         -0.8300   66.6650  -30.5600 N.am   84  MET84      -0.1977
    146  CA        -1.1010   66.3100  -29.1660 C.3    84  MET84       0.1605
    147  C         -1.9770   67.3800  -28.5090 C.2    84  MET84       0.2287
    148  O         -1.4880   68.4410  -28.1060 O.2    84  MET84      -0.2864
    149  CB         0.2110   66.1310  -28.3950 C.3    84  MET84       0.0413
    150  CG         1.1170   65.0710  -29.0250 C.3    84  MET84       0.0598
    151  SD         0.3300   63.4480  -29.1560 S.3    84  MET84      -0.1393
    152  CE         0.0690   63.0300  -27.4330 C.3    84  MET84       0.0692
    153  N         -1.2110   69.5470  -25.0510 N.3    87  GLY87      -0.1210
    154  CA         0.0380   70.2850  -24.8710 C.3    87  GLY87       0.1956
    155  C          1.0470   69.6350  -23.9450 C.2    87  GLY87       0.2612
    156  O          0.9660   68.4310  -23.6800 O.2    87  GLY87      -0.2717
    157  N          1.9830   70.4250  -23.4170 N.am   88  SER88      -0.1952
    158  CA         3.0820   69.8480  -22.6460 C.3    88  SER88       0.1924
    159  C          2.5730   69.3370  -21.3170 C.2    88  SER88       0.2314
    160  O          1.6430   69.8960  -20.7630 O.2    88  SER88      -0.2863
    161  CB         4.2000   70.8700  -22.4270 C.3    88  SER88       0.2116
    162  OG         3.8850   71.7600  -21.3740 O.3    88  SER88      -0.2180
    163  N          2.9370   72.1330  -18.6260 N.3    91  ASP91      -0.1239
    164  CA         1.8020   73.0840  -18.5380 C.3    91  ASP91       0.1674
    165  C          0.5620   72.4270  -17.9690 C.2    91  ASP91       0.2266
    166  O         -0.1630   73.0530  -17.2050 O.2    91  ASP91      -0.2867
    167  CB         1.4660   73.6970  -19.8910 C.3    91  ASP91       0.1410
    168  CG         2.6170   74.4970  -20.4660 C.2    91  ASP91       0.3668
    169  OD1        3.5170   74.8780  -19.6920 O.co2  91  ASP91      -0.2456
    170  OD2        2.6280   74.7430  -21.6890 O.co2  91  ASP91      -0.2456
    171  N          8.5340   69.1260  -19.5150 N.3   133  ALA133     -0.1245
    172  CA         8.3330   70.0650  -20.6320 C.3   133  ALA133      0.1562
    173  C          8.4550   69.3910  -22.0120 C.2   133  ALA133      0.2260
    174  O          8.0290   69.9410  -23.0270 O.2   133  ALA133     -0.2867
    175  CB         9.3150   71.2080  -20.5340 C.3   133  ALA133      0.0290
    176  N          4.3800   65.2830  -24.0950 N.3   136  LEU136     -0.1245
    177  CA         3.1410   65.8560  -24.6120 C.3   136  LEU136      0.1561
    178  C          1.9600   65.0000  -24.1890 C.2   136  LEU136      0.2260
    179  O          2.0780   63.7760  -24.0560 O.2   136  LEU136     -0.2867
    180  CB         3.1960   65.9980  -26.1330 C.3   136  LEU136      0.0270
    181  CG         4.1870   67.0410  -26.6550 C.3   136  LEU136      0.0019
    182  CD1        4.2520   67.0050  -28.1630 C.3   136  LEU136      0.0001
    183  CD2        3.7360   68.4220  -26.2090 C.3   136  LEU136      0.0001
    184  N          8.5880   63.4070  -26.4600 N.3   146  ALA146     -0.1231
    185  CA         8.8080   64.2510  -27.6300 C.3   146  ALA146      0.1694
    186  C         10.1480   64.9690  -27.5450 C.2   146  ALA146      0.2592
    187  O         10.8360   64.8510  -26.5330 O.2   146  ALA146     -0.2718
    188  CB         7.6780   65.2610  -27.7650 C.3   146  ALA146      0.0304
    189  N         10.4980   65.7230  -28.5960 N.am  147  ASP147     -0.1960
    190  CA        11.6690   66.6150  -28.5890 C.3   147  ASP147      0.1840
    191  C         12.9440   65.9700  -28.0810 C.2   147  ASP147      0.2622
    192  O         13.4210   66.3370  -27.0070 O.2   147  ASP147     -0.2715
    193  CB        11.4060   67.8570  -27.7230 C.3   147  ASP147      0.1450
    194  CG        10.4050   68.8110  -28.3420 C.2   147  ASP147      0.3671
    195  OD1       10.6170   69.2430  -29.4970 O.co2 147  ASP147     -0.2456
    196  OD2        9.4100   69.1320  -27.6610 O.co2 147  ASP147     -0.2456
    197  N         13.4930   65.0150  -28.8260 N.am  148  PHE148     -0.1974
    198  CA        14.7810   64.4250  -28.4580 C.3   148  PHE148      0.1639
    199  C         15.9140   65.4530  -28.4980 C.2   148  PHE148      0.2290
    200  O         15.9830   66.2860  -29.4070 O.2   148  PHE148     -0.2864
    201  CB        15.1070   63.2430  -29.3710 C.3   148  PHE148      0.0560
    202  CG        14.3100   62.0000  -29.0670 C.ar  148  PHE148     -0.0200
    203  CD1       12.9360   61.9740  -29.2480 C.ar  148  PHE148     -0.0042
    204  CD2       14.9400   60.8520  -28.6090 C.ar  148  PHE148     -0.0042
    205  CE1       12.2030   60.8280  -28.9660 C.ar  148  PHE148     -0.0003
    206  CE2       14.2140   59.7040  -28.3290 C.ar  148  PHE148     -0.0003
    207  CZ        12.8440   59.6930  -28.5070 C.ar  148  PHE148     -0.0000
@<TRIPOS>BOND
     1    76    78   ar
     2    76    74   ar
     3    78    79   ar
     4    64    63    2
     5    43    41    1
     6    63    62    1
     7    73    74    1
     8    73    70    1
     9    74    75   ar
    10    79    77   ar
    11    69    70    1
    12    71    70    1
    13    71    72    2
    14    56    55    2
    15   109   110    1
    16    42    40    1
    17    41    40    1
    18   110   111    1
    19   110   113    1
    20    93    90    1
    21    75    77   ar
    22    62    61    1
    23    62    65    1
    24   111   112    2
    25    40    37    1
    26    66    65    1
    27    66    67    1
    28    55    54    1
    29    53    54    1
    30    47    46    2
    31   114   113    1
    32   114   116    1
    33    91    92    2
    34    91    90    1
    35    57    54    1
    36    57    58    1
    37    90    89    1
    38   113   115    1
    39    80    81    1
    40    89    82   am
    41    59    58    1
    42    67    68    1
    43    37    38    1
    44    37    36    1
    45    58    60    1
    46    46    45    1
    47   117   118    1
    48    34    33    2
    49    44    38   am
    50    44    45    1
    51    38    39    2
    52    82    81    1
    53    82    83    2
    54    81    84    1
    55    36    33   am
    56    33    32    1
    57   118   119    1
    58   118   121    1
    59   120   119    2
    60    96    97    2
    61    96    95    1
    62    45    48    1
    63    84    85    1
    64    31    32    1
    65   119   124   am
    66    85    86    1
    67    32    35    1
    68    98    95    1
    69    98    99    1
    70   123   121    1
    71    48    49    1
    72    95    94    1
    73   124   125    1
    74    99   100    1
    75   121   122    1
    76    49    50    1
    77    86    88   ar
    78    86    87   ar
    79   125   128    1
    80   125   126    1
    81   100   101    1
    82   128   129    1
    83    26    25    1
    84    26    27    2
    85    50    51    1
    86   126   133   am
    87   126   127    2
    88    16    15    2
    89   133   134    1
    90    25    24    1
    91    25    28    1
    92   137   134    1
    93   137   138    1
    94    15    14    1
    95   134   135    1
    96   129   130    1
    97   138   139   ar
    98   138   140   ar
    99    51    52    1
   100    29    28    1
   101    28    30    1
   102   139   141   ar
   103   105   104    2
   104   140   142   ar
   105    14    17    1
   106    14    13    1
   107   130   131   ar
   108   130   132   ar
   109   104   103    1
   110     1     2    1
   111    17    18    1
   112     7     6    1
   113   107   106    1
   114   141   143   ar
   115    19    18   ar
   116    19    21   ar
   117     6     5    1
   118     6     8    1
   119   135   136    2
   120   135   145   am
   121   142   143   ar
   122    12    11    2
   123   143   144    1
   124    18    20   ar
   125     5     2    1
   126    21    23   ar
   127     2     3    1
   128   103   106    1
   129   103   102    1
   130   145   146    1
   131   106   108    1
   132     9     3    1
   133     9    10    2
   134    11    10    1
   135     3     4    2
   136    20    22   ar
   137   195   194   ar
   138    23    22   ar
   139   200   199    2
   140   201   202    1
   141   201   198    1
   142   203   202   ar
   143   203   205   ar
   144   146   147    1
   145   146   149    1
   146   151   150    1
   147   151   152    1
   148   202   204   ar
   149   150   149    1
   150   205   207   ar
   151   197   198    1
   152   197   191   am
   153   204   206   ar
   154   189   190    1
   155   189   186   am
   156   190   191    1
   157   190   193    1
   158   147   148    2
   159   207   206   ar
   160   199   198    1
   161   194   193    1
   162   194   196   ar
   163   182   181    1
   164   191   192    2
   165   188   185    1
   166   185   186    1
   167   185   184    1
   168   186   187    2
   169   181   183    1
   170   181   180    1
   171   180   177    1
   172   153   154    1
   173   154   155    1
   174   177   178    1
   175   177   176    1
   176   178   179    2
   177   155   156    2
   178   155   157   am
   179   157   158    1
   180   174   173    2
   181   158   161    1
   182   158   159    1
   183   161   162    1
   184   173   172    1
   185   170   168   ar
   186   159   160    2
   187   172   175    1
   188   172   171    1
   189   168   167    1
   190   168   169   ar
   191   167   164    1
   192   163   164    1
   193   164   165    1
   194   165   166    2
