@<TRIPOS>MOLECULE
tmp/5j5tA00.pdb
 186 172 0 0 0
SMALL
GASTEIGER

@<TRIPOS>ATOM
      1  N         13.8790  -17.6270   10.1880 N.3     9  GLN9       -0.1245
      2  CA        13.9100  -16.9170    8.9110 C.3     9  GLN9        0.1566
      3  C         15.1370  -16.0210    8.7990 C.2     9  GLN9        0.2260
      4  O         15.5990  -15.4600    9.7920 O.2     9  GLN9       -0.2867
      5  CB        12.6400  -16.0820    8.7220 C.3     9  GLN9        0.0367
      6  CG        12.4080  -15.0290    9.7910 C.3     9  GLN9        0.0905
      7  CD        11.2010  -14.1590    9.4920 C.2     9  GLN9        0.2608
      8  OE1       10.4990  -14.3700    8.5030 O.2     9  GLN9       -0.2717
      9  NE2       10.9550  -13.1720   10.3470 N.am    9  GLN9       -0.0878
     10  N         17.1340  -12.8230    8.3370 N.3    11  ILE11      -0.1231
     11  CA        16.7690  -11.4570    8.6880 C.3    11  ILE11       0.1692
     12  C         17.7910  -10.4480    8.1920 C.2    11  ILE11       0.2593
     13  O         17.6060   -9.2410    8.3370 O.2    11  ILE11      -0.2718
     14  CB        16.6080  -11.3000   10.2050 C.3    11  ILE11       0.0266
     15  CG1       17.8570  -11.8130   10.9230 C.3    11  ILE11       0.0019
     16  CG2       15.3760  -12.0470   10.6790 C.3    11  ILE11       0.0020
     17  CD1       17.7490  -11.7900   12.4300 C.3    11  ILE11       0.0001
     18  N         18.8720  -10.9440    7.6060 N.am   12  GLY12      -0.1942
     19  CA        19.8860  -10.0680    7.0580 C.3    12  GLY12       0.2014
     20  C         21.0750  -10.8240    6.5100 C.2    12  GLY12       0.2640
     21  O         21.0690  -12.0520    6.4370 O.2    12  GLY12      -0.2714
     22  N         22.0990  -10.0790    6.1170 N.am   13  SER13      -0.1935
     23  CA        23.3310  -10.6750    5.6310 C.3    13  SER13       0.2055
     24  C         24.5290   -9.9330    6.2020 C.2    13  SER13       0.2643
     25  O         24.7940   -8.7880    5.8330 O.2    13  SER13      -0.2714
     26  CB        23.3730  -10.6640    4.1030 C.3    13  SER13       0.2130
     27  OG        24.5440  -11.3020    3.6240 O.3    13  SER13      -0.2179
     28  N         25.2490  -10.5880    7.1050 N.am   14  GLY14      -0.1954
     29  CA        26.4290   -9.9960    7.7060 C.3    14  GLY14       0.1869
     30  C         27.5700   -9.8600    6.7160 C.2    14  GLY14       0.2309
     31  O         27.4090  -10.1410    5.5270 O.2    14  GLY14      -0.2863
     32  N         22.3220  -13.9490    8.4740 N.3    19  VAL19      -0.1245
     33  CA        21.7930  -13.8580    9.8270 C.3    19  VAL19       0.1561
     34  C         20.3600  -14.3790    9.8250 C.2    19  VAL19       0.2260
     35  O         19.5490  -13.9820    8.9860 O.2    19  VAL19      -0.2867
     36  CB        21.8330  -12.4130   10.3710 C.3    19  VAL19       0.0252
     37  CG1       21.3780  -12.3740   11.8230 C.3    19  VAL19       0.0019
     38  CG2       23.2330  -11.8370   10.2400 C.3    19  VAL19       0.0019
     39  N         16.7790  -15.1890   12.1220 N.3    21  LYS21      -0.1245
     40  CA        15.9670  -15.1640   13.3270 C.3    21  LYS21       0.1561
     41  C         15.8790  -16.5960   13.8270 C.2    21  LYS21       0.2260
     42  O         15.6050  -17.5120   13.0520 O.2    21  LYS21      -0.2867
     43  CB        14.5770  -14.5900   13.0570 C.3    21  LYS21       0.0271
     44  CG        13.6310  -14.6740   14.2420 C.3    21  LYS21       0.0035
     45  CD        12.3230  -13.9560   13.9590 C.3    21  LYS21       0.0206
     46  CE        11.4550  -13.8870   15.2040 C.3    21  LYS21       0.1093
     47  NZ        10.2340  -13.0640   14.9860 N.3    21  LYS21      -0.1314
     48  N         19.5200  -14.1050   17.5230 N.3    32  ALA32      -0.1245
     49  CA        20.0030  -13.9280   16.1630 C.3    32  ALA32       0.1562
     50  C         21.2230  -14.8070   15.9480 C.2    32  ALA32       0.2260
     51  O         22.1550  -14.7960   16.7530 O.2    32  ALA32      -0.2867
     52  CB        20.3340  -12.4750   15.8930 C.3    32  ALA32       0.0290
     53  N         24.2610  -15.9060   13.2970 N.3    34  LYS34      -0.1245
     54  CA        25.0430  -15.6720   12.0930 C.3    34  LYS34       0.1561
     55  C         25.6570  -16.9840   11.6140 C.2    34  LYS34       0.2260
     56  O         26.5650  -17.5210   12.2490 O.2    34  LYS34      -0.2867
     57  CB        26.1310  -14.6300   12.3590 C.3    34  LYS34       0.0271
     58  CG        26.8170  -14.0860   11.1180 C.3    34  LYS34       0.0035
     59  CD        27.9610  -13.1620   11.5050 C.3    34  LYS34       0.0206
     60  CE        28.3300  -12.2160   10.3760 C.3    34  LYS34       0.1093
     61  NZ        29.4730  -11.3380   10.7550 N.3    34  LYS34      -0.1314
     62  N         36.4660  -12.1790   15.4540 N.3    50  GLU50      -0.1245
     63  CA        35.1640  -11.5370   15.6070 C.3    50  GLU50       0.1567
     64  C         34.4330  -12.0650   16.8350 C.2    50  GLU50       0.2260
     65  O         33.8400  -11.2970   17.5920 O.2    50  GLU50      -0.2867
     66  CB        34.3030  -11.7460   14.3600 C.3    50  GLU50       0.0388
     67  CG        32.9100  -11.1390   14.4740 C.3    50  GLU50       0.1160
     68  CD        32.0320  -11.4420   13.2750 C.2    50  GLU50       0.3649
     69  OE1       32.4870  -12.1720   12.3690 O.co2  50  GLU50      -0.2457
     70  OE2       30.8830  -10.9530   13.2420 O.co2  50  GLU50      -0.2457
     71  N         33.3940   -9.9380   20.1780 N.3    54  MET54      -0.1245
     72  CA        32.0110  -10.0040   20.6480 C.3    54  MET54       0.1570
     73  C         31.9610  -10.5230   22.0770 C.2    54  MET54       0.2261
     74  O         31.2410   -9.9970   22.9260 O.2    54  MET54      -0.2867
     75  CB        31.1690  -10.9090   19.7480 C.3    54  MET54       0.0387
     76  CG        30.7710  -10.3030   18.4210 C.3    54  MET54       0.0595
     77  SD        29.4950  -11.2890   17.6190 S.3    54  MET54      -0.1393
     78  CE        28.1820  -11.1890   18.8340 C.3    54  MET54       0.0692
     79  N         25.6180   -5.3080   20.7560 N.3    63  VAL63      -0.1245
     80  CA        24.9100   -6.5800   20.6450 C.3    63  VAL63       0.1561
     81  C         25.6040   -7.6650   21.4670 C.2    63  VAL63       0.2260
     82  O         26.7600   -8.0100   21.2160 O.2    63  VAL63      -0.2867
     83  CB        24.7970   -7.0390   19.1770 C.3    63  VAL63       0.0252
     84  CG1       24.2980   -8.4710   19.1040 C.3    63  VAL63       0.0019
     85  CG2       23.8720   -6.1140   18.4040 C.3    63  VAL63       0.0019
     86  N         23.6580  -14.4450   19.1730 N.3    79  MET79      -0.1230
     87  CA        23.6470  -13.1350   19.8080 C.3    79  MET79       0.1702
     88  C         22.2100  -12.7040   20.0770 C.2    79  MET79       0.2592
     89  O         21.2700  -13.3270   19.5790 O.2    79  MET79      -0.2718
     90  CB        24.3650  -12.1120   18.9280 C.3    79  MET79       0.0401
     91  CG        23.6850  -11.8570   17.5950 C.3    79  MET79       0.0596
     92  SD        24.8030  -11.1350   16.3820 S.3    79  MET79      -0.1393
     93  CE        25.8560  -12.5370   16.0240 C.3    79  MET79       0.0692
     94  N         22.0360  -11.6460   20.8650 N.am   80  GLU80      -0.1966
     95  CA        20.6960  -11.1870   21.2140 C.3    80  GLU80       0.1733
     96  C         19.9460  -10.7180   19.9710 C.2    80  GLU80       0.2616
     97  O         20.5440  -10.2110   19.0220 O.2    80  GLU80      -0.2715
     98  CB        20.7500  -10.0690   22.2630 C.3    80  GLU80       0.0429
     99  CG        21.4400   -8.7900   21.8150 C.3    80  GLU80       0.1163
    100  CD        21.3190   -7.6720   22.8400 C.2    80  GLU80       0.3649
    101  OE1       20.1770   -7.3160   23.2030 O.co2  80  GLU80      -0.2457
    102  OE2       22.3640   -7.1480   23.2830 O.co2  80  GLU80      -0.2457
    103  N         18.6320  -10.9090   19.9790 N.am   81  PHE81      -0.1960
    104  CA        17.8040  -10.5480   18.8380 C.3    81  PHE81       0.1771
    105  C         17.2120   -9.1550   19.0100 C.2    81  PHE81       0.2620
    106  O         16.4750   -8.8950   19.9610 O.2    81  PHE81      -0.2715
    107  CB        16.6900  -11.5790   18.6410 C.3    81  PHE81       0.0574
    108  CG        15.7760  -11.2710   17.4910 C.ar   81  PHE81      -0.0200
    109  CD1       16.1910  -11.4740   16.1850 C.ar   81  PHE81      -0.0042
    110  CD2       14.4980  -10.7840   17.7170 C.ar   81  PHE81      -0.0042
    111  CE1       15.3500  -11.1920   15.1240 C.ar   81  PHE81      -0.0003
    112  CE2       13.6530  -10.5020   16.6610 C.ar   81  PHE81      -0.0003
    113  CZ        14.0790  -10.7060   15.3630 C.ar   81  PHE81      -0.0000
    114  N         17.5440   -8.2600   18.0860 N.am   82  CYS82      -0.1954
    115  CA        17.0140   -6.9040   18.1090 C.3    82  CYS82       0.1843
    116  C         15.7910   -6.8080   17.2050 C.2    82  CYS82       0.2626
    117  O         15.9170   -6.6800   15.9870 O.2    82  CYS82      -0.2714
    118  CB        18.0870   -5.9010   17.6810 C.3    82  CYS82       0.0997
    119  SG        19.5750   -5.9220   18.7140 S.3    82  CYS82      -0.0797
    120  N         14.6110   -6.8700   17.8170 N.am   83  GLY83      -0.1940
    121  CA        13.3520   -6.9540   17.0970 C.3    83  GLY83       0.2014
    122  C         13.1020   -5.8770   16.0590 C.2    83  GLY83       0.2639
    123  O         12.4980   -6.1410   15.0190 O.2    83  GLY83      -0.2714
    124  N         13.5640   -4.6630   16.3380 N.am   84  GLY84      -0.1939
    125  CA        13.3680   -3.5500   15.4290 C.3    84  GLY84       0.2014
    126  C         14.0710   -3.7450   14.1000 C.2    84  GLY84       0.2639
    127  O         13.5530   -3.3600   13.0520 O.2    84  GLY84      -0.2714
    128  N         15.2530   -4.3510   14.1430 N.am   85  GLY85      -0.1939
    129  CA        16.0500   -4.5530   12.9470 C.3    85  GLY85       0.2014
    130  C         17.0240   -3.4120   12.7300 C.2    85  GLY85       0.2639
    131  O         17.1290   -2.5130   13.5640 O.2    85  GLY85      -0.2714
    132  N         17.7400   -3.4460   11.6110 N.am   86  SER86      -0.1949
    133  CA        18.7040   -2.4010   11.2890 C.3    86  SER86       0.1924
    134  C         18.0030   -1.0700   11.0560 C.2    86  SER86       0.2314
    135  O         16.8320   -1.0380   10.6760 O.2    86  SER86      -0.2863
    136  CB        19.5240   -2.7840   10.0550 C.3    86  SER86       0.2116
    137  OG        20.3020   -3.9180   10.2780 O.3    86  SER86      -0.2180
    138  N         17.1060   -0.8680    7.4400 N.3    89  ASP89      -0.1239
    139  CA        15.8750   -1.5970    7.1600 C.3    89  ASP89       0.1674
    140  C         14.6690   -0.7480    7.5370 C.2    89  ASP89       0.2266
    141  O         13.6290   -0.7940    6.8800 O.2    89  ASP89      -0.2867
    142  CB        15.8420   -2.9240    7.9220 C.3    89  ASP89       0.1410
    143  CG        16.9990   -3.8330    7.5620 C.2    89  ASP89       0.3668
    144  OD1       17.6380   -3.6000    6.5130 O.co2  89  ASP89      -0.2456
    145  OD2       17.2710   -4.7800    8.3290 O.co2  89  ASP89      -0.2456
    146  N         23.1770    0.1510    8.7500 N.3   129  ALA129     -0.1231
    147  CA        22.9570   -1.2870    8.6610 C.3   129  ALA129      0.1694
    148  C         23.4970   -2.0150    9.8890 C.2   129  ALA129      0.2592
    149  O         23.1120   -3.1510   10.1630 O.2   129  ALA129     -0.2718
    150  CB        23.6140   -1.8690    7.3910 C.3   129  ALA129      0.0304
    151  N         24.3850   -1.3540   10.6250 N.am  130  ASN130     -0.1974
    152  CA        25.0230   -1.9580   11.7910 C.3   130  ASN130      0.1688
    153  C         24.5190   -1.3940   13.1150 C.2   130  ASN130      0.2292
    154  O         25.0440   -1.7240   14.1780 O.2   130  ASN130     -0.2864
    155  CB        26.5410   -1.7860   11.7110 C.3   130  ASN130      0.1181
    156  CG        27.1610   -2.6020   10.5980 C.2   130  ASN130      0.2629
    157  OD1       26.6270   -3.6380   10.2000 O.2   130  ASN130     -0.2716
    158  ND2       28.2970   -2.1400   10.0890 N.am  130  ASN130     -0.0877
    159  N         21.4400   -1.4310   15.4790 N.3   132  LEU132     -0.1245
    160  CA        20.1670   -2.0860   15.6620 C.3   132  LEU132      0.1561
    161  C         19.3240   -1.5240   16.7440 C.2   132  LEU132      0.2260
    162  O         19.7780   -0.7790   17.5560 O.2   132  LEU132     -0.2867
    163  CB        20.3750   -3.5460   15.9410 C.3   132  LEU132      0.0270
    164  CG        21.4140   -4.2290   15.1160 C.3   132  LEU132      0.0019
    165  CD1       21.4670   -5.6630   15.4760 C.3   132  LEU132      0.0001
    166  CD2       21.0460   -4.1590   13.6820 C.3   132  LEU132      0.0001
    167  N         26.2950   -3.4970   15.9270 N.3   141  ALA141     -0.1231
    168  CA        26.6490   -4.8250   15.5110 C.3   141  ALA141      0.1694
    169  C         27.7550   -4.9230   14.4870 C.2   141  ALA141      0.2592
    170  O         28.3770   -3.9640   14.1450 O.2   141  ALA141     -0.2718
    171  CB        25.4300   -5.5260   15.0030 C.3   141  ALA141      0.0304
    172  N         27.9920   -6.1400   14.0430 N.am  142  ASP142     -0.1974
    173  CA        28.9830   -6.5040   13.0480 C.3   142  ASP142      0.1709
    174  C         30.4530   -6.2200   13.2170 C.2   142  ASP142      0.2293
    175  O         31.0230   -5.3900   12.5630 O.2   142  ASP142     -0.2864
    176  CB        28.5650   -6.0290   11.6830 C.3   142  ASP142      0.1436
    177  CG        28.7470   -7.0550   10.6350 C.2   142  ASP142      0.3671
    178  OD1       29.5480   -7.9470   10.7910 O.co2 142  ASP142     -0.2456
    179  OD2       28.0890   -6.9730    9.6200 O.co2 142  ASP142     -0.2456
    180  N          7.0260    1.7210   11.6030 N.3   274  VAL274     -0.1245
    181  CA         7.3480    0.5230   10.8360 C.3   274  VAL274      0.1561
    182  C          6.2330   -0.5140   10.9900 C.2   274  VAL274      0.2260
    183  O          5.9380   -1.2650   10.0600 O.2   274  VAL274     -0.2867
    184  CB         8.6940   -0.0910   11.2780 C.3   274  VAL274      0.0252
    185  CG1        9.0250   -1.3210   10.4470 C.3   274  VAL274      0.0019
    186  CG2        9.8080    0.9350   11.1700 C.3   274  VAL274      0.0019
@<TRIPOS>BOND
     1    27    26    1
     2    26    23    1
     3    31    30    2
     4    23    22    1
     5    23    24    1
     6    25    24    2
     7    22    20   am
     8    24    28   am
     9    21    20    2
    10    20    19    1
    11   144   143   ar
    12    30    29    1
    13   141   140    2
    14    19    18    1
    15    28    29    1
    16   139   138    1
    17   139   140    1
    18   139   142    1
    19   150   147    1
    20   143   142    1
    21   143   145   ar
    22    18    12   am
    23    12    13    2
    24    12    11    1
    25    10    11    1
    26    32    33    1
    27     8     7    2
    28   147   146    1
    29   147   148    1
    30    11    14    1
    31     5     2    1
    32     5     6    1
    33     3     2    1
    34     3     4    2
    35     2     1    1
    36    35    34    2
    37     7     6    1
    38     7     9   am
    39   179   177   ar
    40    34    33    1
    41    33    36    1
    42   148   149    2
    43   148   151   am
    44   136   137    1
    45   136   133    1
    46   183   182    2
    47   158   156   am
    48   157   156    2
    49    14    16    1
    50    14    15    1
    51    38    36    1
    52    36    37    1
    53    60    61    1
    54    60    59    1
    55   185   184    1
    56   156   155    1
    57   151   152    1
    58   177   178   ar
    59   177   176    1
    60   135   134    2
    61   181   182    1
    62   181   184    1
    63   181   180    1
    64    15    17    1
    65   134   133    1
    66    58    59    1
    67    58    57    1
    68   186   184    1
    69   133   132    1
    70   132   130   am
    71    55    54    1
    72    55    56    2
    73   176   173    1
    74   155   152    1
    75   152   153    1
    76    54    57    1
    77    54    53    1
    78    39    40    1
    79    69    68   ar
    80   175   174    2
    81   130   129    1
    82   130   131    2
    83   129   128    1
    84   173   174    1
    85   173   172    1
    86    42    41    2
    87   127   126    2
    88    43    40    1
    89    43    44    1
    90   153   154    2
    91    70    68   ar
    92    68    67    1
    93    40    41    1
    94   166   164    1
    95    45    44    1
    96    45    46    1
    97   172   169   am
    98   126   128   am
    99   126   125    1
   100   170   169    2
   101    66    67    1
   102    66    63    1
   103   169   168    1
   104    47    46    1
   105   171   168    1
   106   123   122    2
   107   164   165    1
   108   164   163    1
   109   111   113   ar
   110   111   109   ar
   111   113   112   ar
   112   125   124    1
   113    62    63    1
   114   159   160    1
   115   168   167    1
   116    63    64    1
   117   160   163    1
   118   160   161    1
   119    52    49    1
   120    50    49    1
   121    50    51    2
   122   117   116    2
   123    93    92    1
   124   122   124   am
   125   122   121    1
   126    49    48    1
   127   109   108   ar
   128    92    91    1
   129   112   110   ar
   130   161   162    2
   131    64    65    2
   132   121   120    1
   133   116   120   am
   134   116   115    1
   135   108   110   ar
   136   108   107    1
   137    91    90    1
   138    77    76    1
   139    77    78    1
   140   118   115    1
   141   118   119    1
   142   114   115    1
   143   114   105   am
   144    85    83    1
   145    76    75    1
   146   107   104    1
   147   104   105    1
   148   104   103    1
   149    90    87    1
   150   105   106    2
   151    97    96    2
   152    84    83    1
   153    86    87    1
   154    83    80    1
   155    89    88    2
   156    75    72    1
   157    87    88    1
   158    96   103   am
   159    96    95    1
   160    88    94   am
   161    71    72    1
   162    80    79    1
   163    80    81    1
   164    72    73    1
   165    94    95    1
   166    95    98    1
   167    82    81    2
   168    99    98    1
   169    99   100    1
   170    73    74    2
   171   100   101   ar
   172   100   102   ar
