@<TRIPOS>MOLECULE
tmp/5j5xA01.pdb
 124 122 0 0 0
SMALL
GASTEIGER

@<TRIPOS>ATOM
      1  N         -9.8120   17.6450   -4.5250 N.3     6  SER6       -0.1202
      2  CA        -8.6660   18.3450   -3.9230 C.3     6  SER6        0.2020
      3  C         -8.9760   19.7990   -3.5420 C.2     6  SER6        0.2618
      4  O         -8.5600   20.2640   -2.4770 O.2     6  SER6       -0.2717
      5  CB        -7.4610   18.3060   -4.8720 C.3     6  SER6        0.2103
      6  OG        -6.3200   18.9190   -4.2920 O.3     6  SER6       -0.2182
      7  N         -9.6930   20.5060   -4.4160 N.am    7  VAL7       -0.1979
      8  CA       -10.0850   21.9010   -4.1590 C.3     7  VAL7        0.1595
      9  C        -11.1280   22.0350   -3.0300 C.2     7  VAL7        0.2287
     10  O        -11.0850   23.0030   -2.2710 O.2     7  VAL7       -0.2864
     11  CB       -10.5250   22.6430   -5.4620 C.3     7  VAL7        0.0276
     12  CG1      -11.7640   22.0270   -6.1090 C.3     7  VAL7        0.0022
     13  CG2      -10.7460   24.1290   -5.1990 C.3     7  VAL7        0.0022
     14  N         -9.2830   21.7180    0.1970 N.3    10  PHE10      -0.1227
     15  CA        -8.6190   23.0080    0.4290 C.3    10  PHE10       0.1736
     16  C         -9.5780   24.0430    1.0160 C.2    10  PHE10       0.2595
     17  O         -9.2330   24.7180    1.9920 O.2    10  PHE10      -0.2718
     18  CB        -7.9860   23.5680   -0.8560 C.3    10  PHE10       0.0547
     19  CG        -7.4380   24.9590   -0.6940 C.ar   10  PHE10      -0.0202
     20  CD1       -6.1780   25.1630   -0.1450 C.ar   10  PHE10      -0.0042
     21  CD2       -8.1950   26.0700   -1.0530 C.ar   10  PHE10      -0.0042
     22  CE1       -5.6720   26.4450    0.0280 C.ar   10  PHE10      -0.0003
     23  CE2       -7.6970   27.3570   -0.8780 C.ar   10  PHE10      -0.0003
     24  CZ        -6.4310   27.5430   -0.3400 C.ar   10  PHE10      -0.0000
     25  N        -10.7580   24.1740    0.4040 N.am   11  LEU11      -0.1980
     26  CA       -11.7780   25.1250    0.8630 C.3    11  LEU11       0.1596
     27  C        -12.3400   24.7870    2.2530 C.2    11  LEU11       0.2287
     28  O        -12.7040   25.6930    3.0130 O.2    11  LEU11      -0.2864
     29  CB       -12.9210   25.2440   -0.1590 C.3    11  LEU11       0.0297
     30  CG       -12.6170   25.9460   -1.4910 C.3    11  LEU11       0.0022
     31  CD1      -13.8690   26.0260   -2.3510 C.3    11  LEU11       0.0001
     32  CD2      -12.0380   27.3370   -1.2760 C.3    11  LEU11       0.0001
     33  N         -5.6650   34.5270    1.7110 N.3    92  PHE92      -0.1241
     34  CA        -5.6970   34.0710    0.3070 C.3    92  PHE92       0.1605
     35  C         -4.6420   34.8730   -0.4710 C.2    92  PHE92       0.2264
     36  O         -4.4030   36.0430   -0.1330 O.2    92  PHE92      -0.2867
     37  CB        -7.0930   34.3150   -0.2840 C.3    92  PHE92       0.0534
     38  CG        -7.4330   33.4540   -1.4770 C.ar   92  PHE92      -0.0203
     39  CD1       -7.6290   32.0860   -1.3330 C.ar   92  PHE92      -0.0042
     40  CD2       -7.6030   34.0170   -2.7410 C.ar   92  PHE92      -0.0042
     41  CE1       -7.9610   31.2920   -2.4230 C.ar   92  PHE92      -0.0003
     42  CE2       -7.9390   33.2280   -3.8330 C.ar   92  PHE92      -0.0003
     43  CZ        -8.1180   31.8630   -3.6740 C.ar   92  PHE92      -0.0000
     44  N        -11.2240   33.2590   -8.5140 N.3   144  LEU144     -0.1245
     45  CA       -10.6810   32.4470   -7.4190 C.3   144  LEU144      0.1561
     46  C        -10.9530   33.0600   -6.0440 C.2   144  LEU144      0.2260
     47  O        -11.3300   32.3460   -5.1130 O.2   144  LEU144     -0.2867
     48  CB        -9.1690   32.2290   -7.5840 C.3   144  LEU144      0.0270
     49  CG        -8.7000   31.2350   -8.6520 C.3   144  LEU144      0.0019
     50  CD1       -7.2090   31.4000   -8.8980 C.3   144  LEU144      0.0001
     51  CD2       -8.9960   29.8010   -8.2500 C.3   144  LEU144      0.0001
     52  N        -14.7310   32.7430   -5.2720 N.3   147  GLU147     -0.1231
     53  CA       -14.9320   31.3440   -4.8840 C.3   147  GLU147      0.1699
     54  C        -14.5370   31.1260   -3.4190 C.2   147  GLU147      0.2592
     55  O        -15.2960   30.5350   -2.6540 O.2   147  GLU147     -0.2718
     56  CB       -14.1080   30.4200   -5.7840 C.3   147  GLU147      0.0402
     57  CG       -14.3330   28.9300   -5.5690 C.3   147  GLU147      0.1161
     58  CD       -13.3450   28.0800   -6.3470 C.2   147  GLU147      0.3649
     59  OE1      -12.1240   28.2090   -6.0960 O.co2 147  GLU147     -0.2457
     60  OE2      -13.7910   27.2820   -7.2010 O.co2 147  GLU147     -0.2457
     61  N        -13.3530   31.6130   -3.0520 N.am  148  TYR148     -0.1976
     62  CA       -12.8390   31.5060   -1.6850 C.3   148  TYR148      0.1639
     63  C        -13.6780   32.2740   -0.6570 C.2   148  TYR148      0.2290
     64  O        -13.9410   31.7470    0.4220 O.2   148  TYR148     -0.2864
     65  CB       -11.3810   31.9840   -1.6220 C.3   148  TYR148      0.0560
     66  CG       -10.8730   32.2690   -0.2250 C.ar  148  TYR148     -0.0198
     67  CD1      -10.4330   31.2350    0.5970 C.ar  148  TYR148     -0.0009
     68  CD2      -10.8260   33.5740    0.2770 C.ar  148  TYR148     -0.0009
     69  CE1       -9.9550   31.4880    1.8770 C.ar  148  TYR148      0.0417
     70  CE2      -10.3520   33.8340    1.5580 C.ar  148  TYR148      0.0417
     71  CZ        -9.9170   32.7850    2.3560 C.ar  148  TYR148      0.1957
     72  OH        -9.4440   33.0150    3.6310 O.3   148  TYR148     -0.2866
     73  N        -15.4830   29.0820  -14.7610 N.3   283  LYS283     -0.1245
     74  CA       -14.1790   28.4350  -14.9840 C.3   283  LYS283      0.1561
     75  C        -14.0980   27.6080  -16.2820 C.2   283  LYS283      0.2260
     76  O        -13.0760   27.6240  -16.9820 O.2   283  LYS283     -0.2867
     77  CB       -13.8150   27.5400  -13.7950 C.3   283  LYS283      0.0271
     78  CG       -13.5470   28.2910  -12.5040 C.3   283  LYS283      0.0035
     79  CD       -13.1330   27.3250  -11.4060 C.3   283  LYS283      0.0206
     80  CE       -12.4890   28.0330  -10.2290 C.3   283  LYS283      0.1093
     81  NZ       -11.8530   27.0600   -9.2990 N.3   283  LYS283     -0.1314
     82  N         -5.9630   27.3150  -13.8360 N.3   293  TRP293     -0.1227
     83  CA        -6.4870   27.8020  -12.5520 C.3   293  TRP293      0.1737
     84  C         -5.5690   27.5440  -11.3680 C.2   293  TRP293      0.2595
     85  O         -5.4790   28.3740  -10.4620 O.2   293  TRP293     -0.2718
     86  CB        -7.8690   27.2040  -12.2910 C.3   293  TRP293      0.0564
     87  CG        -8.8470   27.7260  -13.2540 C.ar  293  TRP293      0.0003
     88  CD1       -9.3350   27.0910  -14.3560 C.ar  293  TRP293      0.0946
     89  CD2       -9.4220   29.0310  -13.2490 C.ar  293  TRP293      0.0152
     90  NE1      -10.2060   27.9150  -15.0280 N.ar  293  TRP293     -0.2442
     91  CE2      -10.2750   29.1160  -14.3680 C.ar  293  TRP293      0.0810
     92  CE3       -9.3120   30.1380  -12.3950 C.ar  293  TRP293      0.0012
     93  CZ2      -11.0150   30.2730  -14.6600 C.ar  293  TRP293      0.0191
     94  CZ3      -10.0470   31.2820  -12.6840 C.ar  293  TRP293      0.0001
     95  CH2      -10.8870   31.3410  -13.8040 C.ar  293  TRP293      0.0015
     96  N         -4.8740   26.4110  -11.3970 N.am  294  ILE294     -0.1980
     97  CA        -3.9280   26.0600  -10.3340 C.3   294  ILE294      0.1595
     98  C         -2.7130   26.9950  -10.4250 C.2   294  ILE294      0.2287
     99  O         -2.2310   27.5010   -9.4080 O.2   294  ILE294     -0.2864
    100  CB        -3.4420   24.5830  -10.3970 C.3   294  ILE294      0.0276
    101  CG1       -4.5700   23.5860  -10.7310 C.3   294  ILE294      0.0022
    102  CG2       -2.7940   24.1830   -9.0760 C.3   294  ILE294      0.0022
    103  CD1       -5.7910   23.6570   -9.8350 C.3   294  ILE294      0.0001
    104  N         -3.4290   30.4290   -8.9530 N.3   297  TYR297     -0.1227
    105  CA        -3.3950   30.3650   -7.4810 C.3   297  TYR297      0.1736
    106  C         -1.9630   30.3710   -6.9440 C.2   297  TYR297      0.2595
    107  O         -1.6400   31.1400   -6.0310 O.2   297  TYR297     -0.2718
    108  CB        -4.1320   29.1290   -6.9340 C.3   297  TYR297      0.0548
    109  CG        -3.9730   28.9760   -5.4280 C.ar  297  TYR297     -0.0200
    110  CD1       -4.8600   29.5920   -4.5400 C.ar  297  TYR297     -0.0009
    111  CD2       -2.9050   28.2510   -4.8850 C.ar  297  TYR297     -0.0009
    112  CE1       -4.6990   29.4700   -3.1640 C.ar  297  TYR297      0.0417
    113  CE2       -2.7390   28.1270   -3.5100 C.ar  297  TYR297      0.0417
    114  CZ        -3.6360   28.7350   -2.6560 C.ar  297  TYR297      0.1957
    115  OH        -3.4660   28.6090   -1.2990 O.3   297  TYR297     -0.2866
    116  N         -1.1220   29.5050   -7.5110 N.am  298  GLN298     -0.1979
    117  CA         0.2810   29.3830   -7.0880 C.3   298  GLN298      0.1601
    118  C          1.1760   30.5430   -7.5420 C.2   298  GLN298      0.2287
    119  O          2.3310   30.6210   -7.1220 O.2   298  GLN298     -0.2864
    120  CB         0.8770   28.0650   -7.5790 C.3   298  GLN298      0.0394
    121  CG         0.1840   26.8370   -7.0280 C.3   298  GLN298      0.0908
    122  CD         0.8910   25.5620   -7.4260 C.2   298  GLN298      0.2608
    123  OE1        0.3930   24.7980   -8.2460 O.2   298  GLN298     -0.2717
    124  NE2        2.0710   25.3330   -6.8560 N.am  298  GLN298     -0.0878
@<TRIPOS>BOND
     1    76    75    2
     2    75    74    1
     3    90    91   ar
     4    90    88   ar
     5    74    73    1
     6    74    77    1
     7    93    91   ar
     8    93    95   ar
     9    91    89   ar
    10    88    87   ar
    11    82    83    1
    12    95    94   ar
    13    77    78    1
    14    87    89   ar
    15    87    86    1
    16    89    92   ar
    17    94    92   ar
    18    83    86    1
    19    83    84    1
    20    78    79    1
    21    79    80    1
    22    96    84   am
    23    96    97    1
    24    84    85    2
    25   101   100    1
    26   101   103    1
    27    98    97    1
    28    98    99    2
    29   100    97    1
    30   100   102    1
    31    80    81    1
    32   104   105    1
    33    50    49    1
    34    49    51    1
    35    49    48    1
    36    44    45    1
    37   123   122    2
    38    48    45    1
    39   120   117    1
    40   120   121    1
    41   118   119    2
    42   118   117    1
    43   116   117    1
    44   116   106   am
    45   105   106    1
    46   105   108    1
    47   122   121    1
    48   122   124   am
    49    45    46    1
    50    60    58   ar
    51   106   107    2
    52   108   109    1
    53    58    59   ar
    54    58    57    1
    55    12    11    1
    56    46    47    2
    57    56    57    1
    58    56    53    1
    59    11    13    1
    60    11     8    1
    61   109   111   ar
    62   109   110   ar
    63    52    53    1
    64   111   113   ar
    65    53    54    1
    66     5     6    1
    67     5     2    1
    68   110   112   ar
    69     1     2    1
    70     7     8    1
    71     7     3   am
    72     8     9    1
    73     2     3    1
    74    42    43   ar
    75    42    40   ar
    76    43    41   ar
    77     3     4    2
    78   113   114   ar
    79    54    61   am
    80    54    55    2
    81   112   114   ar
    82    61    62    1
    83     9    10    2
    84    40    38   ar
    85   114   115    1
    86    41    39   ar
    87    31    30    1
    88    62    65    1
    89    62    63    1
    90    65    66    1
    91    30    32    1
    92    30    29    1
    93    38    39   ar
    94    38    37    1
    95    21    23   ar
    96    21    19   ar
    97    23    24   ar
    98    18    19    1
    99    18    15    1
   100    19    20   ar
   101    63    64    2
   102    35    36    2
   103    35    34    1
   104    24    22   ar
   105    37    34    1
   106    66    68   ar
   107    66    67   ar
   108    29    26    1
   109    20    22   ar
   110    14    15    1
   111    68    70   ar
   112    34    33    1
   113    25    26    1
   114    25    16   am
   115    15    16    1
   116    67    69   ar
   117    26    27    1
   118    16    17    2
   119    70    71   ar
   120    69    71   ar
   121    27    28    2
   122    71    72    1
