@<TRIPOS>MOLECULE
tmp/5j5yA00.pdb
 142 140 0 0 0
SMALL
GASTEIGER

@<TRIPOS>ATOM
      1  N        -72.0540  -67.7260    8.5330 N.3    18  PHE18      -0.1241
      2  CA       -73.3710  -67.6450    9.1350 C.3    18  PHE18       0.1605
      3  C        -74.0780  -66.4240    8.5660 C.2    18  PHE18       0.2264
      4  O        -73.4900  -65.3410    8.5200 O.2    18  PHE18      -0.2867
      5  CB       -73.2470  -67.5410   10.6550 C.3    18  PHE18       0.0534
      6  CG       -74.5560  -67.3360   11.3560 C.ar   18  PHE18      -0.0203
      7  CD1      -75.0970  -66.0610   11.5080 C.ar   18  PHE18      -0.0042
      8  CD2      -75.2630  -68.4220   11.8360 C.ar   18  PHE18      -0.0042
      9  CE1      -76.2900  -65.8770   12.1450 C.ar   18  PHE18      -0.0003
     10  CE2      -76.4720  -68.2390   12.4680 C.ar   18  PHE18      -0.0003
     11  CZ       -76.9910  -66.9790   12.6170 C.ar   18  PHE18      -0.0000
     12  N        -77.7620  -64.2990    9.0000 N.3    20  ASN20      -0.1240
     13  CA       -78.9880  -64.1040    9.7660 C.3    20  ASN20       0.1653
     14  C        -80.1980  -64.1920    8.8410 C.2    20  ASN20       0.2266
     15  O        -80.4360  -63.2930    8.0280 O.2    20  ASN20      -0.2867
     16  CB       -78.9580  -62.7480   10.4720 C.3    20  ASN20       0.1155
     17  CG       -79.7210  -62.7560   11.7790 C.2    20  ASN20       0.2627
     18  OD1      -80.5030  -63.6740   12.0510 O.2    20  ASN20      -0.2716
     19  ND2      -79.5110  -61.7240   12.5930 N.am   20  ASN20      -0.0877
     20  N        -80.9270  -71.0100   14.1740 N.3    26  TRP26      -0.1227
     21  CA       -79.5410  -70.5570   14.1790 C.3    26  TRP26       0.1737
     22  C        -78.6210  -71.6030   13.5610 C.2    26  TRP26       0.2595
     23  O        -77.7520  -71.2730   12.7450 O.2    26  TRP26      -0.2718
     24  CB       -79.0920  -70.2290   15.6070 C.3    26  TRP26       0.0564
     25  CG       -77.6730  -69.7560   15.6750 C.ar   26  TRP26       0.0003
     26  CD1      -77.2390  -68.4700   15.5650 C.ar   26  TRP26       0.0946
     27  CD2      -76.4930  -70.5640   15.8630 C.ar   26  TRP26       0.0152
     28  NE1      -75.8640  -68.4210   15.6590 N.ar   26  TRP26      -0.2442
     29  CE2      -75.3850  -69.6920   15.8550 C.ar   26  TRP26       0.0810
     30  CE3      -76.2710  -71.9370   16.0440 C.ar   26  TRP26       0.0012
     31  CZ2      -74.0750  -70.1410   16.0090 C.ar   26  TRP26       0.0191
     32  CZ3      -74.9610  -72.3800   16.2020 C.ar   26  TRP26       0.0001
     33  CH2      -73.8820  -71.4780   16.1800 C.ar   26  TRP26       0.0015
     34  N        -78.8070  -72.8780   13.9330 N.am   27  GLN27      -0.1979
     35  CA       -77.9350  -73.9340   13.4240 C.3    27  GLN27       0.1601
     36  C        -78.0680  -74.0840   11.9160 C.2    27  GLN27       0.2287
     37  O        -77.0940  -74.4240   11.2330 O.2    27  GLN27      -0.2864
     38  CB       -78.2380  -75.2750   14.1080 C.3    27  GLN27       0.0394
     39  CG       -77.6230  -75.4600   15.4980 C.3    27  GLN27       0.0908
     40  CD       -77.8100  -76.8750   16.0680 C.2    27  GLN27       0.2608
     41  OE1      -78.2630  -77.7920   15.3770 O.2    27  GLN27      -0.2717
     42  NE2      -77.4470  -77.0520   17.3360 N.am   27  GLN27      -0.0878
     43  N        -68.3850  -74.6880   15.0570 N.3    70  PRO70      -0.2102
     44  CA       -68.2840  -73.4040   15.7610 C.3    70  PRO70       0.1504
     45  C        -69.5210  -73.1220   16.6080 C.2    70  PRO70       0.2576
     46  O        -70.1930  -72.0950   16.4580 O.2    70  PRO70      -0.2718
     47  CB       -68.1230  -72.4130   14.6010 C.3    70  PRO70       0.0282
     48  CG       -68.9400  -73.0320   13.4940 C.3    70  PRO70       0.0208
     49  CD       -68.6640  -74.5200   13.6190 C.3    70  PRO70       0.0893
     50  N        -69.8400  -74.0580   17.5080 N.am   71  MET71      -0.1966
     51  CA       -71.0090  -73.9360   18.3570 C.3    71  MET71       0.1736
     52  C        -70.6750  -74.4560   19.7470 C.2    71  MET71       0.2616
     53  O        -69.8050  -75.3220   19.9120 O.2    71  MET71      -0.2715
     54  CB       -72.2200  -74.6860   17.7500 C.3    71  MET71       0.0427
     55  CG       -72.1410  -76.1930   17.8030 C.3    71  MET71       0.0599
     56  SD       -73.5320  -76.9880   16.9510 S.3    71  MET71      -0.1393
     57  CE       -73.4540  -76.2300   15.3430 C.3    71  MET71       0.0692
     58  N        -71.3660  -73.9000   20.7450 N.am   72  TRP72      -0.1960
     59  CA       -71.1330  -74.2830   22.1410 C.3    72  TRP72       0.1771
     60  C        -71.3420  -75.7620   22.3630 C.2    72  TRP72       0.2619
     61  O        -70.7100  -76.3340   23.2500 O.2    72  TRP72      -0.2715
     62  CB       -72.0520  -73.5560   23.1150 C.3    72  TRP72       0.0590
     63  CG       -72.2210  -72.1430   22.8930 C.ar   72  TRP72       0.0006
     64  CD1      -71.2520  -71.1950   22.7030 C.ar   72  TRP72       0.0946
     65  CD2      -73.4610  -71.4540   22.8960 C.ar   72  TRP72       0.0152
     66  NE1      -71.8270  -69.9570   22.5610 N.ar   72  TRP72      -0.2442
     67  CE2      -73.1830  -70.0880   22.6770 C.ar   72  TRP72       0.0810
     68  CE3      -74.7880  -71.8610   23.0560 C.ar   72  TRP72       0.0012
     69  CZ2      -74.1790  -69.1370   22.6060 C.ar   72  TRP72       0.0191
     70  CZ3      -75.7810  -70.9120   22.9900 C.ar   72  TRP72       0.0001
     71  CH2      -75.4730  -69.5670   22.7650 C.ar   72  TRP72       0.0015
     72  N        -72.2600  -76.3790   21.6140 N.am   73  GLU73      -0.1977
     73  CA       -72.6860  -77.7530   21.8680 C.3    73  GLU73       0.1602
     74  C        -71.6230  -78.7740   21.5100 C.2    73  GLU73       0.2287
     75  O        -71.7750  -79.9520   21.8560 O.2    73  GLU73      -0.2864
     76  CB       -73.9730  -78.0560   21.0970 C.3    73  GLU73       0.0415
     77  CG       -75.1830  -77.2680   21.5990 C.3    73  GLU73       0.1163
     78  CD       -75.3390  -75.9150   20.9250 C.2    73  GLU73       0.3649
     79  OE1      -76.4970  -75.5260   20.6610 O.co2  73  GLU73      -0.2457
     80  OE2      -74.3140  -75.2560   20.6420 O.co2  73  GLU73      -0.2457
     81  N        -64.5490  -68.0080   25.5870 N.3    82  ARG82      -0.1245
     82  CA       -63.9880  -67.1780   24.5350 C.3    82  ARG82       0.1563
     83  C        -63.3430  -65.9110   25.0760 C.2    82  ARG82       0.2260
     84  O        -63.8650  -65.2430   25.9780 O.2    82  ARG82      -0.2867
     85  CB       -65.0600  -66.7990   23.5040 C.3    82  ARG82       0.0307
     86  CG       -66.1480  -65.9150   24.0630 C.3    82  ARG82       0.0489
     87  CD       -67.1320  -65.4640   22.9950 C.3    82  ARG82       0.2205
     88  NE       -68.2290  -64.7160   23.6040 N.pl3  82  ARG82      -0.0865
     89  CZ       -69.2460  -64.1880   22.9310 C.cat  82  ARG82       0.5346
     90  NH1      -70.2020  -63.5350   23.5740 N.pl3  82  ARG82       0.1354
     91  NH2      -69.3060  -64.3080   21.6200 N.pl3  82  ARG82       0.1354
     92  N        -68.1970  -61.5780   14.4650 N.3   125  ASN125     -0.1240
     93  CA       -69.5990  -61.2200   14.3150 C.3   125  ASN125      0.1653
     94  C        -69.6700  -59.8150   13.7460 C.2   125  ASN125      0.2266
     95  O        -69.1770  -58.8810   14.3710 O.2   125  ASN125     -0.2867
     96  CB       -70.3440  -61.2900   15.6500 C.3   125  ASN125      0.1155
     97  CG       -70.1740  -62.6260   16.3610 C.2   125  ASN125      0.2627
     98  OD1      -70.5430  -63.6550   15.8090 O.2   125  ASN125     -0.2716
     99  ND2      -69.7610  -62.6020   17.6090 N.am  125  ASN125     -0.0877
    100  N        -72.0210  -56.8860   13.2830 N.3   127  ARG127     -0.1245
    101  CA       -73.2660  -56.4430   13.9080 C.3   127  ARG127      0.1563
    102  C        -73.4250  -54.9310   13.8180 C.2   127  ARG127      0.2260
    103  O        -72.4640  -54.1720   13.9910 O.2   127  ARG127     -0.2867
    104  CB       -73.3840  -56.8660   15.3870 C.3   127  ARG127      0.0307
    105  CG       -73.2480  -58.3320   15.6560 C.3   127  ARG127      0.0489
    106  CD       -74.4370  -59.0750   15.0200 C.3   127  ARG127      0.2205
    107  NE       -74.4750  -60.4730   15.4550 N.pl3 127  ARG127     -0.0865
    108  CZ       -74.0220  -61.4550   14.6800 C.cat 127  ARG127      0.5346
    109  NH1      -73.4450  -61.1290   13.5420 N.pl3 127  ARG127      0.1354
    110  NH2      -74.0700  -62.7380   15.0390 N.pl3 127  ARG127      0.1354
    111  N        -74.8450  -53.1190   15.9300 N.3   129  LYS129     -0.1245
    112  CA       -74.6490  -52.5240   17.2410 C.3   129  LYS129      0.1561
    113  C        -73.1880  -52.5130   17.6870 C.2   129  LYS129      0.2260
    114  O        -72.8480  -51.7730   18.6180 O.2   129  LYS129     -0.2867
    115  CB       -75.5530  -53.2510   18.2460 C.3   129  LYS129      0.0271
    116  CG       -74.9640  -53.7140   19.5140 C.3   129  LYS129      0.0035
    117  CD       -75.8360  -54.7830   20.1440 C.3   129  LYS129      0.0206
    118  CE       -75.3040  -55.3020   21.3660 C.3   129  LYS129      0.1093
    119  NZ       -76.2630  -56.1740   22.0820 N.3   129  LYS129     -0.1314
    120  N        -67.8590  -57.9670   16.8810 N.3   132  LYS132     -0.1245
    121  CA       -67.1420  -58.7480   17.8770 C.3   132  LYS132      0.1561
    122  C        -66.1860  -59.7060   17.1760 C.2   132  LYS132      0.2260
    123  O        -66.5020  -60.2410   16.1110 O.2   132  LYS132     -0.2867
    124  CB       -68.1120  -59.5440   18.7870 C.3   132  LYS132      0.0271
    125  CG       -69.0310  -58.6410   19.6250 C.3   132  LYS132      0.0035
    126  CD       -70.1170  -59.4280   20.3880 C.3   132  LYS132      0.0206
    127  CE       -71.3540  -59.7070   19.5270 C.3   132  LYS132      0.1093
    128  NZ       -72.4470  -60.4010   20.2970 N.3   132  LYS132     -0.1314
    129  N        -61.9710  -68.8980   20.7590 N.3   136  TRP136     -0.1241
    130  CA       -62.6350  -69.9020   21.5770 C.3   136  TRP136      0.1605
    131  C        -61.6220  -70.9460   22.0480 C.2   136  TRP136      0.2264
    132  O        -60.7940  -71.4330   21.2590 O.2   136  TRP136     -0.2867
    133  CB       -63.7700  -70.5860   20.7940 C.3   136  TRP136      0.0550
    134  CG       -65.0240  -69.7930   20.5430 C.ar  136  TRP136      0.0003
    135  CD1      -65.1470  -68.4270   20.4060 C.ar  136  TRP136      0.0946
    136  CD2      -66.3390  -70.3320   20.3760 C.ar  136  TRP136      0.0152
    137  NE1      -66.4860  -68.0900   20.1740 N.ar  136  TRP136     -0.2442
    138  CE2      -67.2200  -69.2530   20.1390 C.ar  136  TRP136      0.0810
    139  CE3      -66.8580  -71.6340   20.3840 C.ar  136  TRP136      0.0012
    140  CZ2      -68.5940  -69.4480   19.9390 C.ar  136  TRP136      0.0191
    141  CZ3      -68.2100  -71.8170   20.1840 C.ar  136  TRP136      0.0001
    142  CH2      -69.0630  -70.7350   19.9680 C.ar  136  TRP136      0.0015
@<TRIPOS>BOND
     1    15    14    2
     2     4     3    2
     3     1     2    1
     4     3     2    1
     5    14    13    1
     6    12    13    1
     7     2     5    1
     8    13    16    1
     9    16    17    1
    10     5     6    1
    11    37    36    2
    12     6     7   ar
    13     6     8   ar
    14     7     9   ar
    15    17    18    2
    16    17    19   am
    17     8    10   ar
    18    36    35    1
    19     9    11   ar
    20    10    11   ar
    21    23    22    2
    22   100   101    1
    23    35    34    1
    24    35    38    1
    25    48    49    1
    26    48    47    1
    27   109   108    1
    28    22    34   am
    29    22    21    1
    30    49    43    1
    31    94    93    1
    32    94    95    2
    33   102   101    1
    34   102   103    2
    35   101   104    1
    36    38    39    1
    37    20    21    1
    38    21    24    1
    39    93    92    1
    40    93    96    1
    41    47    44    1
    42   108   110    1
    43   108   107    2
    44   106   107    1
    45   106   105    1
    46    43    44    1
    47    57    56    1
    48    41    40    2
    49   104   105    1
    50    39    40    1
    51    26    28   ar
    52    26    25   ar
    53    24    25    1
    54    96    97    1
    55    28    29   ar
    56    25    27   ar
    57    44    45    1
    58    98    97    2
    59    29    27   ar
    60    29    31   ar
    61    27    30   ar
    62   111   112    1
    63    31    33   ar
    64    30    32   ar
    65    40    42   am
    66   123   122    2
    67    33    32   ar
    68    97    99   am
    69    46    45    2
    70    45    50   am
    71   120   121    1
    72    56    55    1
    73   122   121    1
    74   112   113    1
    75   112   115    1
    76    50    51    1
    77   113   114    2
    78    54    55    1
    79    54    51    1
    80   121   124    1
    81   115   116    1
    82    51    52    1
    83   124   125    1
    84   116   117    1
    85   127   128    1
    86   127   126    1
    87   125   126    1
    88    52    53    2
    89    52    58   am
    90   140   142   ar
    91   140   138   ar
    92   142   141   ar
    93   138   137   ar
    94   138   136   ar
    95   117   118    1
    96   137   135   ar
    97   141   139   ar
    98   136   139   ar
    99   136   134   ar
   100   135   134   ar
   101   134   133    1
   102    80    78   ar
   103    79    78   ar
   104    58    59    1
   105   129   130    1
   106   133   130    1
   107    78    77    1
   108    76    77    1
   109    76    73    1
   110   132   131    2
   111   118   119    1
   112    74    75    2
   113    74    73    1
   114   130   131    1
   115    72    73    1
   116    72    60   am
   117    91    89    1
   118    59    60    1
   119    59    62    1
   120    60    61    2
   121    66    67   ar
   122    66    64   ar
   123    69    67   ar
   124    69    71   ar
   125    67    65   ar
   126    64    63   ar
   127    71    70   ar
   128    63    65   ar
   129    63    62    1
   130    65    68   ar
   131    89    90    1
   132    89    88    2
   133    70    68   ar
   134    87    88    1
   135    87    86    1
   136    85    86    1
   137    85    82    1
   138    82    83    1
   139    82    81    1
   140    83    84    2
