@<TRIPOS>MOLECULE
tmp/5j5yB00.pdb
 175 170 0 0 0
SMALL
GASTEIGER

@<TRIPOS>ATOM
      1  N        -48.0830  -39.6790   57.6760 N.3    18  PHE18      -0.1241
      2  CA       -48.4560  -38.4350   57.0260 C.3    18  PHE18       0.1605
      3  C        -49.8130  -38.0060   57.5720 C.2    18  PHE18       0.2264
      4  O        -50.7410  -38.8090   57.6140 O.2    18  PHE18      -0.2867
      5  CB       -48.5340  -38.6140   55.5110 C.3    18  PHE18       0.0534
      6  CG       -49.0330  -37.3810   54.7960 C.ar   18  PHE18      -0.0203
      7  CD1      -48.1470  -36.4250   54.3820 C.ar   18  PHE18      -0.0042
      8  CD2      -50.3790  -37.1930   54.5470 C.ar   18  PHE18      -0.0042
      9  CE1      -48.5730  -35.2840   53.7520 C.ar   18  PHE18      -0.0003
     10  CE2      -50.8100  -36.0550   53.8930 C.ar   18  PHE18      -0.0003
     11  CZ       -49.9060  -35.0930   53.5130 C.ar   18  PHE18      -0.0000
     12  N        -52.6860  -34.9130   57.0270 N.3    20  ASN20      -0.1240
     13  CA       -53.0550  -33.7720   56.2030 C.3    20  ASN20       0.1653
     14  C        -53.3560  -32.6090   57.1320 C.2    20  ASN20       0.2266
     15  O        -54.3950  -32.5680   57.7900 O.2    20  ASN20      -0.2867
     16  CB       -54.2440  -34.0960   55.3070 C.3    20  ASN20       0.1155
     17  CG       -54.3110  -33.1910   54.0910 C.2    20  ASN20       0.2627
     18  OD1      -55.3910  -32.7520   53.6910 O.2    20  ASN20      -0.2716
     19  ND2      -53.1520  -32.8990   53.4980 N.am   20  ASN20      -0.0877
     20  N        -53.5310  -28.6490   56.5850 N.3    22  LYS22      -0.1245
     21  CA       -53.4950  -27.5570   55.6250 C.3    22  LYS22       0.1561
     22  C        -52.5830  -26.4160   56.0570 C.2    22  LYS22       0.2260
     23  O        -52.2810  -25.5430   55.2360 O.2    22  LYS22      -0.2867
     24  CB       -54.9200  -27.0620   55.4020 C.3    22  LYS22       0.0271
     25  CG       -55.7800  -28.0680   54.6720 C.3    22  LYS22       0.0035
     26  CD       -57.1310  -27.4200   54.3390 C.3    22  LYS22       0.0206
     27  CE       -57.8710  -28.1500   53.2470 C.3    22  LYS22       0.1093
     28  NZ       -59.3170  -27.7670   53.2430 N.3    22  LYS22      -0.1314
     29  N        -46.9130  -30.3120   51.9220 N.3    26  TRP26      -0.1227
     30  CA       -47.0460  -31.7690   51.9420 C.3    26  TRP26       0.1737
     31  C        -45.8010  -32.4280   52.5290 C.2    26  TRP26       0.2595
     32  O        -45.8960  -33.3720   53.3360 O.2    26  TRP26      -0.2718
     33  CB       -47.3280  -32.2910   50.5260 C.3    26  TRP26       0.0564
     34  CG       -47.4730  -33.7770   50.4510 C.ar   26  TRP26       0.0003
     35  CD1      -48.6300  -34.4880   50.5630 C.ar   26  TRP26       0.0946
     36  CD2      -46.4250  -34.7380   50.2520 C.ar   26  TRP26       0.0152
     37  NE1      -48.3670  -35.8430   50.4650 N.ar   26  TRP26      -0.2442
     38  CE2      -47.0230  -36.0170   50.2680 C.ar   26  TRP26       0.0810
     39  CE3      -45.0320  -34.6420   50.0800 C.ar   26  TRP26       0.0012
     40  CZ2      -46.2900  -37.1900   50.1100 C.ar   26  TRP26       0.0191
     41  CZ3      -44.2990  -35.8180   49.9160 C.ar   26  TRP26       0.0001
     42  CH2      -44.9370  -37.0750   49.9390 C.ar   26  TRP26       0.0015
     43  N        -44.6180  -31.9320   52.1590 N.am   27  GLN27      -0.1979
     44  CA       -43.3940  -32.5270   52.6920 C.3    27  GLN27       0.1601
     45  C        -43.2930  -32.3230   54.1970 C.2    27  GLN27       0.2287
     46  O        -42.7710  -33.1800   54.9150 O.2    27  GLN27      -0.2864
     47  CB       -42.1640  -31.9350   52.0020 C.3    27  GLN27       0.0394
     48  CG       -41.8670  -32.4980   50.6260 C.3    27  GLN27       0.0908
     49  CD       -40.6010  -31.9050   50.0290 C.2    27  GLN27       0.2608
     50  OE1      -39.8130  -31.2680   50.7280 O.2    27  GLN27      -0.2717
     51  NE2      -40.4020  -32.1110   48.7320 N.am   27  GLN27      -0.0878
     52  N        -57.3240  -38.7820   55.2920 N.3    58  GLY58      -0.1225
     53  CA       -56.2640  -37.8850   54.8850 C.3    58  GLY58       0.1811
     54  C        -54.8990  -38.2870   55.3760 C.2    58  GLY58       0.2280
     55  O        -53.9130  -37.6230   55.0340 O.2    58  GLY58      -0.2866
     56  N        -51.6580  -41.1130   55.8470 N.3    60  ASP60      -0.1239
     57  CA       -50.9790  -42.2200   55.1760 C.3    60  ASP60       0.1674
     58  C        -50.0410  -42.9220   56.1450 C.2    60  ASP60       0.2266
     59  O        -49.4530  -42.2910   57.0230 O.2    60  ASP60      -0.2867
     60  CB       -50.0770  -41.8020   53.9680 C.3    60  ASP60       0.1410
     61  CG       -50.7180  -40.8180   53.0470 C.2    60  ASP60       0.3668
     62  OD1      -51.9540  -40.8220   52.9260 O.co2  60  ASP60      -0.2456
     63  OD2      -49.9500  -40.0890   52.3920 O.co2  60  ASP60      -0.2456
     64  N        -40.3600  -41.6300   51.0070 N.3    70  PRO70      -0.2102
     65  CA       -41.6380  -41.9750   50.3650 C.3    70  PRO70       0.1504
     66  C        -42.2390  -40.8680   49.5030 C.2    70  PRO70       0.2576
     67  O        -43.4240  -40.5430   49.6170 O.2    70  PRO70      -0.2718
     68  CB       -42.5430  -42.2720   51.5630 C.3    70  PRO70       0.0282
     69  CG       -42.0060  -41.3920   52.6240 C.3    70  PRO70       0.0208
     70  CD       -40.5140  -41.3740   52.4430 C.3    70  PRO70       0.0893
     71  N        -41.4200  -40.2860   48.6370 N.am   71  MET71      -0.1966
     72  CA       -41.8580  -39.1850   47.7940 C.3    71  MET71       0.1736
     73  C        -41.2990  -39.3650   46.3900 C.2    71  MET71       0.2616
     74  O        -40.2740  -40.0230   46.1780 O.2    71  MET71      -0.2715
     75  CB       -41.4380  -37.8230   48.3620 C.3    71  MET71       0.0427
     76  CG       -39.9560  -37.6400   48.5940 C.3    71  MET71       0.0599
     77  SD       -39.6340  -36.0760   49.4460 S.3    71  MET71      -0.1393
     78  CE       -40.9270  -36.0870   50.6660 C.3    71  MET71       0.0692
     79  N        -41.9990  -38.7740   45.4250 N.am   72  TRP72      -0.1960
     80  CA       -41.6250  -38.9410   44.0210 C.3    72  TRP72       0.1771
     81  C        -40.1850  -38.5330   43.7590 C.2    72  TRP72       0.2619
     82  O        -39.5410  -39.0870   42.8660 O.2    72  TRP72      -0.2715
     83  CB       -42.5360  -38.1110   43.1170 C.3    72  TRP72       0.0590
     84  CG       -43.9730  -38.3780   43.2800 C.ar   72  TRP72       0.0006
     85  CD1      -44.5630  -39.5840   43.4830 C.ar   72  TRP72       0.0946
     86  CD2      -45.0330  -37.4090   43.2580 C.ar   72  TRP72       0.0152
     87  NE1      -45.9220  -39.4320   43.5920 N.ar   72  TRP72      -0.2442
     88  CE2      -46.2370  -38.1070   43.4600 C.ar   72  TRP72       0.0810
     89  CE3      -45.0800  -36.0220   43.1040 C.ar   72  TRP72       0.0012
     90  CZ2      -47.4790  -37.4670   43.4990 C.ar   72  TRP72       0.0191
     91  CZ3      -46.3090  -35.3900   43.1460 C.ar   72  TRP72       0.0001
     92  CH2      -47.4920  -36.1080   43.3380 C.ar   72  TRP72       0.0015
     93  N        -39.6710  -37.5720   44.5090 N.am   73  GLU73      -0.1977
     94  CA       -38.4370  -36.9170   44.1070 C.3    73  GLU73       0.1602
     95  C        -37.1970  -37.7250   44.4520 C.2    73  GLU73       0.2287
     96  O        -36.1220  -37.4460   43.9080 O.2    73  GLU73      -0.2864
     97  CB       -38.3580  -35.5300   44.7450 C.3    73  GLU73       0.0415
     98  CG       -39.3340  -34.5330   44.1550 C.3    73  GLU73       0.1163
     99  CD       -40.7140  -34.5630   44.8010 C.2    73  GLU73       0.3649
    100  OE1      -41.3900  -33.5170   44.7630 O.co2  73  GLU73      -0.2457
    101  OE2      -41.1190  -35.6100   45.3590 O.co2  73  GLU73      -0.2457
    102  N        -46.0330  -47.1690   40.4690 N.3    82  ARG82      -0.1245
    103  CA       -46.7290  -47.8510   41.5490 C.3    82  ARG82       0.1563
    104  C        -47.8230  -48.7640   41.0120 C.2    82  ARG82       0.2260
    105  O        -48.5320  -48.4300   40.0520 O.2    82  ARG82      -0.2867
    106  CB       -47.3400  -46.8460   42.5480 C.3    82  ARG82       0.0307
    107  CG       -48.5370  -46.0380   41.9800 C.3    82  ARG82       0.0489
    108  CD       -49.0500  -45.0380   42.9980 C.3    82  ARG82       0.2205
    109  NE       -50.1760  -44.2660   42.4500 N.pl3  82  ARG82      -0.0865
    110  CZ       -50.9160  -43.4130   43.1610 C.cat  82  ARG82       0.5346
    111  NH1      -51.9010  -42.7490   42.5800 N.pl3  82  ARG82       0.1354
    112  NH2      -50.6890  -43.2340   44.4520 N.pl3  82  ARG82       0.1354
    113  N        -53.1060  -44.8410   51.6830 N.3   125  ASN125     -0.1240
    114  CA       -53.7970  -43.5640   51.8390 C.3   125  ASN125      0.1653
    115  C        -55.2070  -43.8350   52.3810 C.2   125  ASN125      0.2266
    116  O        -55.9930  -44.5390   51.7460 O.2   125  ASN125     -0.2867
    117  CB       -53.9000  -42.7880   50.5160 C.3   125  ASN125      0.1155
    118  CG       -52.5890  -42.6680   49.7420 C.2   125  ASN125      0.2627
    119  OD1      -52.4250  -43.2390   48.6680 O.2   125  ASN125     -0.2716
    120  ND2      -51.6700  -41.9110   50.2810 N.am  125  ASN125     -0.0877
    121  N        -58.5720  -42.2840   52.8560 N.3   127  ARG127     -0.1231
    122  CA       -59.2630  -41.1820   52.2030 C.3   127  ARG127      0.1694
    123  C        -60.7700  -41.3890   52.2950 C.2   127  ARG127      0.2592
    124  O        -61.2640  -42.5220   52.1830 O.2   127  ARG127     -0.2718
    125  CB       -58.8180  -41.0470   50.7230 C.3   127  ARG127      0.0321
    126  CG       -57.3240  -40.7590   50.5340 C.3   127  ARG127      0.0489
    127  CD       -56.9800  -39.3700   51.0540 C.3   127  ARG127      0.2205
    128  NE       -55.5900  -39.0160   50.7860 N.pl3 127  ARG127     -0.0865
    129  CZ       -54.5770  -39.3790   51.5700 C.cat 127  ARG127      0.5346
    130  NH1      -54.8070  -40.1060   52.6490 N.pl3 127  ARG127      0.1354
    131  NH2      -53.3300  -39.0390   51.2690 N.pl3 127  ARG127      0.1354
    132  N        -61.4810  -40.2880   52.5410 N.am  128  ALA128     -0.1966
    133  CA       -62.9460  -40.3100   52.5810 C.3   128  ALA128      0.1728
    134  C        -63.5360  -40.8800   51.3030 C.2   128  ALA128      0.2616
    135  O        -64.5490  -41.5950   51.3450 O.2   128  ALA128     -0.2715
    136  CB       -63.4970  -38.9020   52.8210 C.3   128  ALA128      0.0334
    137  N        -62.9410  -40.5680   50.1520 N.am  129  LYS129     -0.1977
    138  CA       -63.5410  -40.9630   48.8830 C.3   129  LYS129      0.1596
    139  C        -63.1470  -42.3700   48.4430 C.2   129  LYS129      0.2287
    140  O        -63.6090  -42.8290   47.3910 O.2   129  LYS129     -0.2864
    141  CB       -63.2020  -39.9420   47.7810 C.3   129  LYS129      0.0298
    142  CG       -61.8090  -40.0400   47.1660 C.3   129  LYS129      0.0038
    143  CD       -61.6060  -38.9920   46.0540 C.3   129  LYS129      0.0206
    144  CE       -61.8640  -37.5640   46.5540 C.3   129  LYS129      0.1093
    145  NZ       -61.7980  -36.5520   45.4570 N.3   129  LYS129     -0.1314
    146  N        -56.5580  -46.1940   49.2940 N.3   132  LYS132     -0.1245
    147  CA       -55.6600  -46.6950   48.2710 C.3   132  LYS132      0.1561
    148  C        -54.4690  -47.3570   48.9380 C.2   132  LYS132      0.2260
    149  O        -53.9500  -46.8460   49.9370 O.2   132  LYS132     -0.2867
    150  CB       -55.1730  -45.5780   47.3300 C.3   132  LYS132      0.0271
    151  CG       -56.2770  -44.7970   46.6390 C.3   132  LYS132      0.0035
    152  CD       -55.7670  -44.0870   45.3790 C.3   132  LYS132      0.0206
    153  CE       -55.1190  -42.7560   45.6840 C.3   132  LYS132      0.1093
    154  NZ       -54.0970  -42.4000   44.6430 N.3   132  LYS132     -0.1314
    155  N        -44.5770  -49.1670   45.4360 N.3   136  TRP136     -0.1241
    156  CA       -43.7040  -48.3550   44.6060 C.3   136  TRP136      0.1605
    157  C        -42.5090  -49.1840   44.1360 C.2   136  TRP136      0.2264
    158  O        -41.8640  -49.8760   44.9410 O.2   136  TRP136     -0.2867
    159  CB       -43.2290  -47.1150   45.3830 C.3   136  TRP136      0.0550
    160  CG       -44.3340  -46.0870   45.6680 C.ar  136  TRP136      0.0003
    161  CD1      -45.6820  -46.3220   45.7930 C.ar  136  TRP136      0.0946
    162  CD2      -44.1660  -44.6700   45.8310 C.ar  136  TRP136      0.0152
    163  NE1      -46.3590  -45.1370   46.0230 N.ar  136  TRP136     -0.2442
    164  CE2      -45.4540  -44.1100   46.0480 C.ar  136  TRP136      0.0810
    165  CE3      -43.0620  -43.8230   45.8090 C.ar  136  TRP136      0.0012
    166  CZ2      -45.6510  -42.7290   46.2440 C.ar  136  TRP136      0.0191
    167  CZ3      -43.2550  -42.4770   46.0190 C.ar  136  TRP136      0.0001
    168  CH2      -44.5400  -41.9390   46.2230 C.ar  136  TRP136      0.0015
    169  N        -48.4240  -39.2380   37.4530 N.3   173  THR173     -0.1218
    170  CA       -49.1810  -38.8900   38.6540 C.3   173  THR173      0.1862
    171  C        -48.8900  -37.4610   39.0980 C.2   173  THR173      0.2287
    172  O        -49.7850  -36.7560   39.5790 O.2   173  THR173     -0.2866
    173  CB       -48.8490  -39.8450   39.7960 C.3   173  THR173      0.1770
    174  OG1      -48.8980  -41.2010   39.3400 O.3   173  THR173     -0.2211
    175  CG2      -49.8460  -39.6690   40.9360 C.3   173  THR173      0.0375
@<TRIPOS>BOND
     1   169   170    1
     2   170   171    1
     3   170   173    1
     4   171   172    2
     5   174   173    1
     6   173   175    1
     7   105   104    2
     8   102   103    1
     9   104   103    1
    10   103   106    1
    11   107   106    1
    12   107   108    1
    13   109   108    1
    14   109   110    2
    15   111   110    1
    16    82    81    2
    17    89    91   ar
    18    89    86   ar
    19    83    84    1
    20    83    80    1
    21    91    92   ar
    22   110   112    1
    23    86    84   ar
    24    86    88   ar
    25    84    85   ar
    26    92    90   ar
    27    88    90   ar
    28    88    87   ar
    29    85    87   ar
    30    81    80    1
    31    81    93   am
    32    96    95    2
    33    80    79    1
    34    94    95    1
    35    94    93    1
    36    94    97    1
    37   157   156    1
    38   157   158    2
    39    98    97    1
    40    98    99    1
    41   156   159    1
    42   156   155    1
    43   154   153    1
    44   100    99   ar
    45    99   101   ar
    46   152   153    1
    47   152   151    1
    48   159   160    1
    49    79    73   am
    50   145   144    1
    51   160   161   ar
    52   160   162   ar
    53   161   163   ar
    54   165   162   ar
    55   165   167   ar
    56   162   164   ar
    57   167   168   ar
    58   163   164   ar
    59   164   166   ar
    60   143   144    1
    61   143   142    1
    62    74    73    2
    63   168   166   ar
    64    73    72    1
    65   151   150    1
    66   142   141    1
    67   150   147    1
    68   140   139    2
    69   141   138    1
    70    72    75    1
    71    72    71    1
    72   147   148    1
    73   147   146    1
    74    75    76    1
    75   139   138    1
    76    76    77    1
    77    71    66   am
    78   119   118    2
    79    51    49   am
    80   138   137    1
    81   148   149    2
    82    77    78    1
    83    66    67    2
    84    66    65    1
    85   118   120   am
    86   118   117    1
    87    41    42   ar
    88    41    39   ar
    89    42    40   ar
    90    49    48    1
    91    49    50    2
    92    39    36   ar
    93    40    38   ar
    94   137   134   am
    95    36    38   ar
    96    36    34   ar
    97    38    37   ar
    98    65    64    1
    99    65    68    1
   100    34    33    1
   101    34    35   ar
   102    37    35   ar
   103   117   114    1
   104    33    30    1
   105   126   125    1
   106   126   127    1
   107    48    47    1
   108   125   122    1
   109   128   127    1
   110   128   129    2
   111    64    70    1
   112   131   129    1
   113   134   135    2
   114   134   133    1
   115    68    69    1
   116   129   130    1
   117   113   114    1
   118   116   115    2
   119   114   115    1
   120    29    30    1
   121    30    31    1
   122    47    44    1
   123    43    31   am
   124    43    44    1
   125   124   123    2
   126   122   123    1
   127   122   121    1
   128   123   132   am
   129    63    61   ar
   130    70    69    1
   131    31    32    2
   132   132   133    1
   133   133   136    1
   134    44    45    1
   135    62    61   ar
   136    61    60    1
   137    28    27    1
   138    27    26    1
   139    19    17   am
   140    11     9   ar
   141    11    10   ar
   142    18    17    2
   143     9     7   ar
   144    10     8   ar
   145    60    57    1
   146    17    16    1
   147    45    46    2
   148    26    25    1
   149     7     6   ar
   150     8     6   ar
   151    25    24    1
   152     6     5    1
   153    53    52    1
   154    53    54    1
   155    55    54    2
   156    57    56    1
   157    57    58    1
   158    23    22    2
   159    16    13    1
   160    24    21    1
   161     5     2    1
   162    21    22    1
   163    21    20    1
   164    58    59    2
   165    13    12    1
   166    13    14    1
   167     2     3    1
   168     2     1    1
   169    14    15    2
   170     3     4    2
