@<TRIPOS>MOLECULE
tmp/5j61E00.pdb
 141 139 0 0 0
SMALL
GASTEIGER

@<TRIPOS>ATOM
      1  N         11.5140    3.8010   49.7540 N.3    33  LEU33      -0.1231
      2  CA        10.2990    3.3860   50.4590 C.3    33  LEU33       0.1693
      3  C          9.3400    2.6440   49.5370 C.2    33  LEU33       0.2593
      4  O          8.8630    3.2120   48.5770 O.2    33  LEU33      -0.2718
      5  CB         9.6440    4.6420   51.0110 C.3    33  LEU33       0.0284
      6  CG         8.4200    4.5060   51.9040 C.3    33  LEU33       0.0019
      7  CD1        8.6560    3.4920   53.0060 C.3    33  LEU33       0.0001
      8  CD2        8.1170    5.8730   52.4820 C.3    33  LEU33       0.0001
      9  N          9.0950    1.3650   49.8140 N.am   34  GLY34      -0.1942
     10  CA         8.1320    0.5700   49.0570 C.3    34  GLY34       0.2014
     11  C          6.8580    0.3210   49.8770 C.2    34  GLY34       0.2638
     12  O          6.9240   -0.1350   51.0180 O.2    34  GLY34      -0.2714
     13  N          5.6950    0.5920   49.2850 N.am   35  ILE35      -0.1977
     14  CA         4.4110    0.4180   49.9780 C.3    35  ILE35       0.1596
     15  C          3.7210   -0.8780   49.5520 C.2    35  ILE35       0.2287
     16  O          3.4530   -1.0780   48.3770 O.2    35  ILE35      -0.2864
     17  CB         3.4760    1.6060   49.7020 C.3    35  ILE35       0.0276
     18  CG1        4.1590    2.9190   50.1090 C.3    35  ILE35       0.0022
     19  CG2        2.1530    1.4170   50.4410 C.3    35  ILE35       0.0022
     20  CD1        3.5800    4.1540   49.4620 C.3    35  ILE35       0.0001
     21  N         12.3970    8.4880   48.8600 N.3    78  VAL78      -0.1231
     22  CA        12.1720    8.1770   47.4560 C.3    78  VAL78       0.1692
     23  C         11.2760    6.9790   47.3750 C.2    78  VAL78       0.2593
     24  O         11.5720    5.9580   47.9800 O.2    78  VAL78      -0.2718
     25  CB        13.4630    7.8280   46.7200 C.3    78  VAL78       0.0266
     26  CG1       13.1650    7.5080   45.2550 C.3    78  VAL78       0.0020
     27  CG2       14.4460    8.9750   46.8290 C.3    78  VAL78       0.0020
     28  N         10.1730    7.1430   46.6520 N.am   79  SER79      -0.1938
     29  CA         9.2790    6.0610   46.2900 C.3    79  SER79       0.2055
     30  C         10.0310    4.9660   45.5370 C.2    79  SER79       0.2643
     31  O         10.6780    5.2620   44.5270 O.2    79  SER79      -0.2714
     32  CB         8.1880    6.6360   45.3710 C.3    79  SER79       0.2130
     33  OG         8.7410    7.6030   44.4620 O.3    79  SER79      -0.2179
     34  N          9.9410    3.7180   46.0180 N.am   80  GLN80      -0.1963
     35  CA        10.5680    2.5680   45.3450 C.3    80  GLN80       0.1733
     36  C          9.7260    1.3110   45.4560 C.2    80  GLN80       0.2616
     37  O          9.8750    0.5330   46.3970 O.2    80  GLN80      -0.2715
     38  CB        11.9830    2.2760   45.8670 C.3    80  GLN80       0.0408
     39  CG        13.1000    3.0060   45.1280 C.3    80  GLN80       0.0908
     40  CD        13.7370    2.2030   44.0040 C.2    80  GLN80       0.2608
     41  OE1       14.9660    2.1400   43.8870 O.2    80  GLN80      -0.2717
     42  NE2       12.9100    1.5960   43.1680 N.am   80  GLN80      -0.0878
     43  N          8.8850    1.1000   44.4450 N.am   81  PHE81      -0.1960
     44  CA         8.0540   -0.0810   44.3600 C.3    81  PHE81       0.1771
     45  C          8.8680   -1.3200   44.0040 C.2    81  PHE81       0.2620
     46  O          8.3910   -2.4320   44.2350 O.2    81  PHE81      -0.2715
     47  CB         6.8590    0.1430   43.3890 C.3    81  PHE81       0.0574
     48  CG         7.1190   -0.2210   41.9350 C.ar   81  PHE81      -0.0200
     49  CD1        8.2920    0.1430   41.2900 C.ar   81  PHE81      -0.0042
     50  CD2        6.1400   -0.8790   41.1930 C.ar   81  PHE81      -0.0042
     51  CE1        8.5050   -0.1790   39.9510 C.ar   81  PHE81      -0.0003
     52  CE2        6.3460   -1.2050   39.8580 C.ar   81  PHE81      -0.0003
     53  CZ         7.5330   -0.8540   39.2380 C.ar   81  PHE81      -0.0000
     54  N         10.0870   -1.1430   43.4810 N.am   82  THR82      -0.1951
     55  CA        10.9110   -2.2890   43.1060 C.3    82  THR82       0.1897
     56  C         11.3090   -3.1200   44.2960 C.2    82  THR82       0.2313
     57  O         11.6750   -4.2760   44.1240 O.2    82  THR82      -0.2863
     58  CB        12.2010   -1.9240   42.3310 C.3    82  THR82       0.1794
     59  OG1       13.0680   -1.1130   43.1410 O.3    82  THR82      -0.2208
     60  CG2       11.8650   -1.2170   41.0530 C.3    82  THR82       0.0378
     61  N          3.0380   -4.9780   45.4060 N.3    98  ALA98      -0.1231
     62  CA         3.1080   -3.5230   45.5360 C.3    98  ALA98       0.1694
     63  C          1.7200   -2.9030   45.4790 C.2    98  ALA98       0.2591
     64  O          0.8450   -3.4090   44.7890 O.2    98  ALA98      -0.2718
     65  CB         3.9910   -2.9310   44.4460 C.3    98  ALA98       0.0304
     66  N          1.5300   -1.8080   46.2100 N.am   99  LYS99      -0.1980
     67  CA         0.2650   -1.0920   46.1990 C.3    99  LYS99       0.1596
     68  C          0.0770   -0.4680   44.8310 C.2    99  LYS99       0.2287
     69  O          1.0510   -0.0860   44.1860 O.2    99  LYS99      -0.2864
     70  CB         0.2380   -0.0180   47.2920 C.3    99  LYS99       0.0298
     71  CG        -1.0770    0.7540   47.3810 C.3    99  LYS99       0.0038
     72  CD        -1.3010    1.3640   48.7610 C.3    99  LYS99       0.0206
     73  CE        -1.8470    0.3270   49.7320 C.3    99  LYS99       0.1093
     74  NZ        -1.8600    0.7840   51.1460 N.3    99  LYS99      -0.1314
     75  N         -0.4120    2.1550   42.0090 N.3   101  PRO101     -0.2116
     76  CA         0.2600    3.4760   41.9550 C.3   101  PRO101      0.1372
     77  C         -0.5190    4.7440   42.3510 C.2   101  PRO101      0.2244
     78  O          0.0750    5.6610   42.9320 O.2   101  PRO101     -0.2868
     79  CB         0.6720    3.5960   40.4860 C.3   101  PRO101      0.0268
     80  CG         0.8650    2.1940   40.0420 C.3   101  PRO101      0.0207
     81  CD        -0.1670    1.3840   40.7720 C.3   101  PRO101      0.0892
     82  N         -1.1240    4.4470   46.1300 N.3   104  ALA104     -0.1245
     83  CA         0.2470    4.5450   46.6450 C.3   104  ALA104      0.1562
     84  C          0.6760    6.0020   46.7690 C.2   104  ALA104      0.2260
     85  O          1.1480    6.4090   47.8190 O.2   104  ALA104     -0.2867
     86  CB         1.2230    3.7800   45.7570 C.3   104  ALA104      0.0290
     87  N          1.7460    7.8630   50.0330 N.3   108  TYR108     -0.1241
     88  CA         3.1270    8.3500   50.1350 C.3   108  TYR108      0.1605
     89  C          3.1550    9.8180   50.5630 C.2   108  TYR108      0.2264
     90  O          3.8950   10.2020   51.4560 O.2   108  TYR108     -0.2867
     91  CB         3.8380    8.1410   48.7900 C.3   108  TYR108      0.0534
     92  CG         5.2120    8.7490   48.6700 C.ar  108  TYR108     -0.0201
     93  CD1        6.3470    8.0290   49.0390 C.ar  108  TYR108     -0.0009
     94  CD2        5.3850   10.0340   48.1530 C.ar  108  TYR108     -0.0009
     95  CE1        7.6130    8.5760   48.9100 C.ar  108  TYR108      0.0417
     96  CE2        6.6460   10.5910   48.0220 C.ar  108  TYR108      0.0417
     97  CZ         7.7550    9.8540   48.4040 C.ar  108  TYR108      0.1957
     98  OH         9.0110   10.3920   48.2940 O.3   108  TYR108     -0.2866
     99  N          7.3490   10.9930   42.6240 N.3   129  PHE129     -0.1227
    100  CA         6.6230    9.7590   42.4860 C.3   129  PHE129      0.1736
    101  C          6.2790    9.4550   41.0320 C.2   129  PHE129      0.2596
    102  O          5.7640   10.3210   40.3200 O.2   129  PHE129     -0.2718
    103  CB         5.3510    9.8590   43.3110 C.3   129  PHE129      0.0547
    104  CG         4.7060    8.5430   43.5880 C.ar  129  PHE129     -0.0202
    105  CD1        3.8820    7.9440   42.6360 C.ar  129  PHE129     -0.0042
    106  CD2        4.8910    7.9130   44.8150 C.ar  129  PHE129     -0.0042
    107  CE1        3.2640    6.7320   42.9020 C.ar  129  PHE129     -0.0003
    108  CE2        4.2810    6.7010   45.0820 C.ar  129  PHE129     -0.0003
    109  CZ         3.4700    6.1090   44.1290 C.ar  129  PHE129     -0.0000
    110  N          6.5800    8.2250   40.6010 N.am  130  GLY130     -0.1942
    111  CA         6.1600    7.7110   39.2910 C.3   130  GLY130      0.2014
    112  C          6.9570    8.2180   38.1000 C.2   130  GLY130      0.2639
    113  O          6.5840    7.9680   36.9490 O.2   130  GLY130     -0.2714
    114  N          8.0560    8.9210   38.3670 N.am  131  ASN131     -0.1958
    115  CA         8.9210    9.4360   37.3170 C.3   131  ASN131      0.1819
    116  C         10.3370    8.8930   37.3760 C.2   131  ASN131      0.2621
    117  O         10.8110    8.4490   38.4320 O.2   131  ASN131     -0.2715
    118  CB         9.0020   10.9470   37.4020 C.3   131  ASN131      0.1195
    119  CG         7.7590   11.6080   36.8910 C.2   131  ASN131      0.2630
    120  OD1        6.6560   11.3590   37.3990 O.2   131  ASN131     -0.2716
    121  ND2        7.9180   12.4510   35.8700 N.am  131  ASN131     -0.0877
    122  N         11.0150    8.9750   36.2360 N.am  132  TYR132     -0.1960
    123  CA        12.4000    8.5800   36.1530 C.3   132  TYR132      0.1771
    124  C         13.2200    9.5580   36.9490 C.2   132  TYR132      0.2619
    125  O         13.0490   10.7640   36.8110 O.2   132  TYR132     -0.2715
    126  CB        12.9160    8.5660   34.7190 C.3   132  TYR132      0.0574
    127  CG        14.3880    8.2210   34.6760 C.ar  132  TYR132     -0.0198
    128  CD1       14.8150    6.8920   34.6150 C.ar  132  TYR132     -0.0009
    129  CD2       15.3560    9.2150   34.7530 C.ar  132  TYR132     -0.0009
    130  CE1       16.1680    6.5710   34.5930 C.ar  132  TYR132      0.0417
    131  CE2       16.7120    8.9030   34.7390 C.ar  132  TYR132      0.0417
    132  CZ        17.1150    7.5830   34.6540 C.ar  132  TYR132      0.1957
    133  OH        18.4610    7.2910   34.6390 O.3   132  TYR132     -0.2866
    134  N         14.1130    9.0350   37.7830 N.am  133  MET133     -0.1977
    135  CA        15.0290    9.8760   38.5330 C.3   133  MET133      0.1605
    136  C         16.4460    9.3600   38.3980 C.2   133  MET133      0.2287
    137  O         16.6850    8.1670   38.1740 O.2   133  MET133     -0.2864
    138  CB        14.6410    9.9500   40.0100 C.3   133  MET133      0.0413
    139  CG        13.1620   10.1870   40.2630 C.3   133  MET133      0.0598
    140  SD        12.7460   10.0830   42.0160 S.3   133  MET133     -0.1393
    141  CE        11.2020    9.1760   41.9190 C.3   133  MET133      0.0692
@<TRIPOS>BOND
     1   130   128   ar
     2   130   132   ar
     3   128   127   ar
     4   133   132    1
     5   132   131   ar
     6   127   126    1
     7   127   129   ar
     8   126   123    1
     9   131   129   ar
    10   121   119   am
    11   123   122    1
    12   123   124    1
    13   122   116   am
    14   125   124    2
    15   119   120    2
    16   119   118    1
    17   113   112    2
    18   124   134   am
    19   115   116    1
    20   115   118    1
    21   115   114    1
    22   116   117    2
    23   134   135    1
    24   112   114   am
    25   112   111    1
    26   137   136    2
    27   136   135    1
    28   135   138    1
    29    53    52   ar
    30    53    51   ar
    31   111   110    1
    32    52    50   ar
    33    51    49   ar
    34   138   139    1
    35    80    79    1
    36    80    81    1
    37   139   140    1
    38   102   101    2
    39    79    76    1
    40   110   101   am
    41    81    75    1
    42   101   100    1
    43    60    58    1
    44    50    48   ar
    45    49    48   ar
    46   141   140    1
    47    48    47    1
    48    76    75    1
    49    76    77    1
    50    58    55    1
    51    58    59    1
    52    77    78    2
    53   100    99    1
    54   100   103    1
    55   105   107   ar
    56   105   104   ar
    57   107   109   ar
    58    55    54    1
    59    55    56    1
    60    42    40   am
    61   103   104    1
    62    47    44    1
    63    54    45   am
    64   104   106   ar
    65    41    40    2
    66    40    39    1
    67    45    46    2
    68    45    44    1
    69    57    56    2
    70   109   108   ar
    71    69    68    2
    72    44    43    1
    73    43    36   am
    74    65    62    1
    75    33    32    1
    76    31    30    2
    77    64    63    2
    78   106   108   ar
    79    68    67    1
    80    39    38    1
    81    26    25    1
    82    35    36    1
    83    35    38    1
    84    35    34    1
    85    32    29    1
    86    61    62    1
    87    36    37    2
    88    63    62    1
    89    63    66   am
    90    30    34   am
    91    30    29    1
    92    86    83    1
    93    82    83    1
    94    67    66    1
    95    67    70    1
    96    29    28    1
    97    83    84    1
    98    28    23   am
    99    25    27    1
   100    25    22    1
   101    84    85    2
   102    70    71    1
   103    23    22    1
   104    23    24    2
   105    71    72    1
   106    22    21    1
   107    96    94   ar
   108    96    97   ar
   109    94    92   ar
   110    98    97    1
   111    16    15    2
   112    97    95   ar
   113     4     3    2
   114    92    91    1
   115    92    93   ar
   116    72    73    1
   117    91    88    1
   118    95    93   ar
   119    10     9    1
   120    10    11    1
   121    13    11   am
   122    13    14    1
   123    20    18    1
   124     3     9   am
   125     3     2    1
   126    15    14    1
   127    17    14    1
   128    17    18    1
   129    17    19    1
   130    73    74    1
   131     1     2    1
   132    11    12    2
   133    87    88    1
   134    88    89    1
   135     2     5    1
   136    89    90    2
   137     5     6    1
   138     6     8    1
   139     6     7    1
