@<TRIPOS>MOLECULE
tmp/5j62B00.pdb
 83 83 0 0 0
SMALL
GASTEIGER

@<TRIPOS>ATOM
      1  N         41.2810   86.8750   48.2210 N.3    36  ALA36      -0.1231
      2  CA        42.2950   85.9110   47.7730 C.3    36  ALA36       0.1694
      3  C         42.2790   85.6320   46.2710 C.2    36  ALA36       0.2592
      4  O         43.0720   84.8240   45.7770 O.2    36  ALA36      -0.2718
      5  CB        42.1220   84.6150   48.5220 C.3    36  ALA36       0.0304
      6  N         41.4450   86.3490   45.5260 N.am   37  ALA37      -0.1966
      7  CA        41.2720   86.0710   44.1020 C.3    37  ALA37       0.1713
      8  C         42.5150   86.5230   43.3180 C.2    37  ALA37       0.2458
      9  O         43.2290   87.4310   43.7280 O.2    37  ALA37      -0.2730
     10  CB        40.0170   86.8070   43.5730 C.3    37  ALA37       0.0333
     11  N         42.7880   85.8710   42.1980 N.am   38  PRO38      -0.2716
     12  CA        43.7990   86.3580   41.3040 C.3    38  PRO38       0.1536
     13  C         43.4620   87.7660   40.8230 C.2    38  PRO38       0.2599
     14  O         42.3080   88.1490   40.8090 O.2    38  PRO38      -0.2715
     15  CB        43.7710   85.3850   40.1250 C.3    38  PRO38       0.0310
     16  CG        42.7100   84.3940   40.4120 C.3    38  PRO38       0.0237
     17  CD        41.8980   84.8910   41.5700 C.3    38  PRO38       0.0939
     18  N         44.4490   88.5220   40.4130 N.am   39  SER39      -0.1936
     19  CA        44.1810   89.8630   39.8980 C.3    39  SER39       0.2055
     20  C         45.2100   90.2520   38.8490 C.2    39  SER39       0.2644
     21  O         46.3510   89.9700   39.0250 O.2    39  SER39      -0.2714
     22  CB        44.1640   90.8780   41.0330 C.3    39  SER39       0.2130
     23  OG        44.3310   92.2100   40.5470 O.3    39  SER39      -0.2179
     24  N         44.7910   90.8290   37.7500 N.am   40  GLY40      -0.1939
     25  CA        45.7240   91.1910   36.6700 C.3    40  GLY40       0.2014
     26  C         46.7200   92.2500   37.2300 C.2    40  GLY40       0.2639
     27  O         46.3310   93.1920   37.9420 O.2    40  GLY40      -0.2714
     28  N         48.0030   91.9840   37.0210 N.am   41  CYS41      -0.1953
     29  CA        49.1420   92.7670   37.5630 C.3    41  CYS41       0.1843
     30  C         49.2210   92.8400   39.0780 C.2    41  CYS41       0.2625
     31  O         49.8940   93.6900   39.5910 O.2    41  CYS41      -0.2714
     32  CB        49.1930   94.2060   37.0660 C.3    41  CYS41       0.0997
     33  SG        49.0880   94.5220   35.3150 S.3    41  CYS41      -0.0797
     34  N         48.5090   91.9790   39.8060 N.am   42  ASN42      -0.1972
     35  CA        48.3610   92.0810   41.2280 C.3    42  ASN42       0.1688
     36  C         47.8960   93.4460   41.7250 C.2    42  ASN42       0.2292
     37  O         48.2310   93.8340   42.8340 O.2    42  ASN42      -0.2864
     38  CB        49.6430   91.5890   41.9590 C.3    42  ASN42       0.1181
     39  CG        49.3510   91.1540   43.3700 C.2    42  ASN42       0.2629
     40  OD1       48.2600   90.7010   43.6710 O.2    42  ASN42      -0.2716
     41  ND2       50.2890   91.3490   44.2570 N.am   42  ASN42      -0.0877
     42  N         42.3930   95.0640   33.5470 N.3   100  TRP100     -0.1241
     43  CA        42.0170   93.7160   33.9410 C.3   100  TRP100      0.1605
     44  C         40.8740   93.7180   34.9470 C.2   100  TRP100      0.2264
     45  O         40.2410   92.6630   35.1850 O.2   100  TRP100     -0.2867
     46  CB        43.2490   92.9070   34.3960 C.3   100  TRP100      0.0550
     47  CG        44.3770   92.8390   33.3740 C.ar  100  TRP100      0.0003
     48  CD1       45.6020   93.4800   33.4630 C.ar  100  TRP100      0.0946
     49  CD2       44.3610   92.2100   32.0630 C.ar  100  TRP100      0.0152
     50  NE1       46.3750   93.2130   32.3360 N.ar  100  TRP100     -0.2442
     51  CE2       45.6390   92.4370   31.4720 C.ar  100  TRP100      0.0810
     52  CE3       43.4460   91.4040   31.3870 C.ar  100  TRP100      0.0012
     53  CZ2       45.9860   91.9260   30.2440 C.ar  100  TRP100      0.0191
     54  CZ3       43.7750   90.8910   30.1500 C.ar  100  TRP100      0.0001
     55  CH2       45.0390   91.1620   29.5720 C.ar  100  TRP100      0.0015
     56  N         37.4590   91.6780   34.9530 N.3   103  TYR103     -0.1227
     57  CA        37.6210   90.2570   35.0670 C.3   103  TYR103      0.1736
     58  C         37.9720   89.9050   36.5010 C.2   103  TYR103      0.2595
     59  O         37.4000   88.9380   37.0450 O.2   103  TYR103     -0.2718
     60  CB        38.6660   89.7500   34.0870 C.3   103  TYR103      0.0548
     61  CG        38.4990   90.3190   32.6940 C.ar  103  TYR103     -0.0200
     62  CD1       37.3520   90.1150   31.9870 C.ar  103  TYR103     -0.0009
     63  CD2       39.5040   91.0600   32.1000 C.ar  103  TYR103     -0.0009
     64  CE1       37.1740   90.6430   30.7070 C.ar  103  TYR103      0.0417
     65  CE2       39.3490   91.5990   30.8190 C.ar  103  TYR103      0.0417
     66  CZ        38.1730   91.3990   30.1420 C.ar  103  TYR103      0.1957
     67  OH        38.0040   91.9060   28.8890 O.3   103  TYR103     -0.2866
     68  N         38.8820   90.6690   37.1230 N.am  104  ASP104     -0.1974
     69  CA        39.2860   90.4730   38.5150 C.3   104  ASP104      0.1709
     70  C         38.0430   90.4260   39.3860 C.2   104  ASP104      0.2293
     71  O         37.9180   89.5700   40.2920 O.2   104  ASP104     -0.2864
     72  CB        40.1760   91.5740   39.0970 C.3   104  ASP104      0.1436
     73  CG        41.5100   91.7280   38.4080 C.2   104  ASP104      0.3671
     74  OD1       41.8720   90.9080   37.5710 O.co2 104  ASP104     -0.2456
     75  OD2       42.2330   92.7060   38.7540 O.co2 104  ASP104     -0.2456
     76  N         35.9900   87.2860   39.2460 N.3   107  ILE107     -0.1245
     77  CA        36.6440   86.2070   39.9730 C.3   107  ILE107      0.1561
     78  C         36.4630   86.3920   41.4630 C.2   107  ILE107      0.2260
     79  O         36.0820   85.4410   42.1580 O.2   107  ILE107     -0.2867
     80  CB        38.1300   86.0630   39.6710 C.3   107  ILE107      0.0252
     81  CG1       38.4010   85.9080   38.1870 C.3   107  ILE107      0.0019
     82  CG2       38.6500   84.8240   40.3840 C.3   107  ILE107      0.0019
     83  CD1       39.8400   86.1970   37.8000 C.3   107  ILE107      0.0001
@<TRIPOS>BOND
     1    67    66    1
     2    55    54   ar
     3    55    53   ar
     4    66    64   ar
     5    66    65   ar
     6    54    52   ar
     7    53    51   ar
     8    64    62   ar
     9    65    63   ar
    10    52    49   ar
    11    51    49   ar
    12    51    50   ar
    13    62    61   ar
    14    49    47   ar
    15    63    61   ar
    16    50    48   ar
    17    61    60    1
    18    47    48   ar
    19    47    46    1
    20    42    43    1
    21    43    46    1
    22    43    44    1
    23    60    57    1
    24    44    45    2
    25    56    57    1
    26    57    58    1
    27    33    32    1
    28    58    59    2
    29    58    68   am
    30    25    26    1
    31    25    24    1
    32    28    26   am
    33    28    29    1
    34    32    29    1
    35    68    69    1
    36    26    27    2
    37    29    30    1
    38    74    73   ar
    39    24    20   am
    40    83    81    1
    41    81    80    1
    42    73    75   ar
    43    73    72    1
    44    69    72    1
    45    69    70    1
    46    20    21    2
    47    20    19    1
    48    30    31    2
    49    30    34   am
    50    76    77    1
    51    70    71    2
    52    80    77    1
    53    80    82    1
    54    34    35    1
    55    19    18    1
    56    19    22    1
    57    77    78    1
    58    15    16    1
    59    15    12    1
    60    16    17    1
    61    18    13   am
    62    23    22    1
    63    14    13    2
    64    13    12    1
    65    35    36    1
    66    35    38    1
    67    12    11    1
    68    78    79    2
    69    17    11    1
    70    36    37    2
    71    38    39    1
    72    11     8   am
    73     8     9    2
    74     8     7    1
    75    39    40    2
    76    39    41   am
    77    10     7    1
    78     7     6    1
    79     6     3   am
    80     4     3    2
    81     3     2    1
    82     2     1    1
    83     2     5    1
