@<TRIPOS>MOLECULE
tmp/5j62B01.pdb
 114 109 0 0 0
SMALL
GASTEIGER

@<TRIPOS>ATOM
      1  N         25.5530   74.8720   42.1340 N.3    11  ARG11      -0.1231
      2  CA        25.2370   76.2490   42.5570 C.3    11  ARG11       0.1694
      3  C         24.0390   76.8450   41.8720 C.2    11  ARG11       0.2592
      4  O         23.9270   76.7830   40.6570 O.2    11  ARG11      -0.2718
      5  CB        26.4430   77.1550   42.2750 C.3    11  ARG11       0.0321
      6  CG        26.2870   78.6140   42.7130 C.3    11  ARG11       0.0489
      7  CD        26.8520   79.6000   41.6790 C.3    11  ARG11       0.2205
      8  NE        26.3760   79.2830   40.3300 N.pl3  11  ARG11      -0.0865
      9  CZ        25.2030   79.6730   39.8450 C.cat  11  ARG11       0.5346
     10  NH1       24.3380   80.4380   40.5680 N.pl3  11  ARG11       0.1354
     11  NH2       24.8990   79.2720   38.6200 N.pl3  11  ARG11       0.1354
     12  N         23.1670   77.5020   42.6410 N.am   12  ARG12      -0.1966
     13  CA        22.1210   78.2940   42.0540 C.3    12  ARG12       0.1729
     14  C         22.0290   79.6390   42.7470 C.2    12  ARG12       0.2616
     15  O         22.4330   79.7990   43.8980 O.2    12  ARG12      -0.2715
     16  CB        20.7540   77.5560   42.1600 C.3    12  ARG12       0.0348
     17  CG        20.6480   76.2180   41.4420 C.3    12  ARG12       0.0492
     18  CD        20.7450   76.3040   39.9150 C.3    12  ARG12       0.2205
     19  NE        19.6810   77.1180   39.2750 N.pl3  12  ARG12      -0.0865
     20  CZ        18.4520   76.6580   39.0130 C.cat  12  ARG12       0.5346
     21  NH1       18.0840   75.4210   39.3390 N.pl3  12  ARG12       0.1354
     22  NH2       17.5830   77.4490   38.4290 N.pl3  12  ARG12       0.1354
     23  N         21.4330   80.5890   42.0580 N.am   13  SER13      -0.1950
     24  CA        21.0670   81.8750   42.6750 C.3    13  SER13       0.1924
     25  C         19.9060   81.6860   43.6370 C.2    13  SER13       0.2314
     26  O         18.8730   81.1730   43.2370 O.2    13  SER13      -0.2863
     27  CB        20.6990   82.9150   41.6370 C.3    13  SER13       0.2116
     28  OG        21.8460   83.3000   40.8680 O.3    13  SER13      -0.2180
     29  N         17.0640   83.2190   46.1260 N.3    15  ARG15      -0.1245
     30  CA        16.2760   84.4480   46.2530 C.3    15  ARG15       0.1563
     31  C         15.1950   84.3610   47.3560 C.2    15  ARG15       0.2260
     32  O         14.1920   85.0640   47.2990 O.2    15  ARG15      -0.2867
     33  CB        15.6290   84.8120   44.9080 C.3    15  ARG15       0.0307
     34  CG        16.5990   84.9050   43.7110 C.3    15  ARG15       0.0489
     35  CD        15.8380   85.2640   42.4740 C.3    15  ARG15       0.2205
     36  NE        16.7870   85.5960   41.4220 N.pl3  15  ARG15      -0.0865
     37  CZ        17.3110   84.7430   40.5570 C.cat  15  ARG15       0.5346
     38  NH1       17.0120   83.4490   40.5790 N.pl3  15  ARG15       0.1354
     39  NH2       18.1660   85.1770   39.6440 N.pl3  15  ARG15       0.1354
     40  N         15.8080   90.6050   47.9340 N.3    84  TYR84      -0.1241
     41  CA        15.1390   89.3860   48.3290 C.3    84  TYR84       0.1605
     42  C         15.1620   89.1760   49.8740 C.2    84  TYR84       0.2264
     43  O         15.1570   88.0770   50.3490 O.2    84  TYR84      -0.2867
     44  CB        15.7380   88.1830   47.5800 C.3    84  TYR84       0.0534
     45  CG        15.6390   88.3510   46.0790 C.ar   84  TYR84      -0.0201
     46  CD1       14.3660   88.4720   45.4400 C.ar   84  TYR84      -0.0009
     47  CD2       16.7640   88.4610   45.3200 C.ar   84  TYR84      -0.0009
     48  CE1       14.2570   88.6600   44.0620 C.ar   84  TYR84       0.0417
     49  CE2       16.6820   88.6760   43.9380 C.ar   84  TYR84       0.0417
     50  CZ        15.4390   88.7660   43.3120 C.ar   84  TYR84       0.1957
     51  OH        15.4000   88.9620   41.9600 O.3    84  TYR84      -0.2866
     52  N         22.6440   85.7750   45.7450 N.3   124  CYS124     -0.1221
     53  CA        22.2020   86.2110   44.4640 C.3   124  CYS124      0.1808
     54  C         22.9270   87.4860   44.1380 C.2   124  CYS124      0.2601
     55  O         22.8560   88.4360   44.9280 O.2   124  CYS124     -0.2717
     56  CB        20.7080   86.5090   44.4580 C.3   124  CYS124      0.0970
     57  SG        20.0730   86.6250   42.7550 S.3   124  CYS124     -0.0800
     58  N         23.5660   87.5340   42.9620 N.am  125  ILE125     -0.1965
     59  CA        24.1510   88.7700   42.4800 C.3   125  ILE125      0.1727
     60  C         23.0320   89.7280   42.0540 C.2   125  ILE125      0.2616
     61  O         22.0710   89.3150   41.3980 O.2   125  ILE125     -0.2715
     62  CB        25.0950   88.5150   41.3080 C.3   125  ILE125      0.0290
     63  CG1       26.2800   87.6650   41.7920 C.3   125  ILE125      0.0022
     64  CG2       25.6680   89.8500   40.7250 C.3   125  ILE125      0.0023
     65  CD1       26.9110   86.8040   40.7120 C.3   125  ILE125      0.0001
     66  N         23.0960   90.9750   42.4990 N.am  126  ILE126     -0.1963
     67  CA        22.0260   91.9580   42.1880 C.3   126  ILE126      0.1727
     68  C         22.6330   93.0850   41.3460 C.2   126  ILE126      0.2617
     69  O         23.2690   93.9980   41.8580 O.2   126  ILE126     -0.2715
     70  CB        21.3550   92.5070   43.4450 C.3   126  ILE126      0.0290
     71  CG1       20.9120   91.3540   44.3730 C.3   126  ILE126      0.0022
     72  CG2       20.1860   93.4070   43.0760 C.3   126  ILE126      0.0023
     73  CD1       19.7870   90.4670   43.8690 C.3   126  ILE126      0.0001
     74  N         22.4570   92.9790   40.0290 N.am  127  GLY127     -0.1940
     75  CA        22.9950   93.9560   39.0590 C.3   127  GLY127      0.2014
     76  C         22.1760   95.2350   38.9140 C.2   127  GLY127      0.2638
     77  O         22.6400   96.2380   38.4000 O.2   127  GLY127     -0.2714
     78  N         20.9530   95.2130   39.3680 N.am  128  MET128     -0.1976
     79  CA        20.0790   96.3380   39.1780 C.3   128  MET128      0.1605
     80  C         20.6330   97.5940   39.8870 C.2   128  MET128      0.2287
     81  O         20.2960   98.7120   39.5220 O.2   128  MET128     -0.2864
     82  CB        18.7030   95.9570   39.7380 C.3   128  MET128      0.0413
     83  CG        17.5700   96.8100   39.2270 C.3   128  MET128      0.0598
     84  SD        17.2870   96.5640   37.4530 S.3   128  MET128     -0.1393
     85  CE        17.8170   98.2260   36.9280 C.3   128  MET128      0.0692
     86  N         10.6970   89.0010   36.5030 N.3   147  VAL147     -0.1245
     87  CA        10.5640   88.2690   37.7420 C.3   147  VAL147      0.1561
     88  C          9.5490   88.8460   38.7880 C.2   147  VAL147      0.2260
     89  O          9.5390   88.3950   39.9340 O.2   147  VAL147     -0.2867
     90  CB        11.9870   87.9970   38.3230 C.3   147  VAL147      0.0252
     91  CG1       12.6150   89.2720   38.8670 C.3   147  VAL147      0.0019
     92  CG2       11.9970   86.9050   39.3980 C.3   147  VAL147      0.0019
     93  N         27.3640   95.8900   40.8540 N.3   183  PHE183     -0.1241
     94  CA        26.3620   95.0730   41.4830 C.3   183  PHE183      0.1605
     95  C         26.6130   94.9420   42.9540 C.2   183  PHE183      0.2264
     96  O         27.6940   95.1950   43.4240 O.2   183  PHE183     -0.2867
     97  CB        26.2700   93.6460   40.8630 C.3   183  PHE183      0.0534
     98  CG        27.6100   92.9700   40.6020 C.ar  183  PHE183     -0.0203
     99  CD1       28.3750   92.5050   41.6470 C.ar  183  PHE183     -0.0042
    100  CD2       28.0760   92.7730   39.2970 C.ar  183  PHE183     -0.0042
    101  CE1       29.5970   91.8740   41.4070 C.ar  183  PHE183     -0.0003
    102  CE2       29.2960   92.1260   39.0380 C.ar  183  PHE183     -0.0003
    103  CZ        30.0750   91.6970   40.1170 C.ar  183  PHE183     -0.0000
    104  N         20.9680   73.1680   37.6230 N.3   198  ARG198     -0.1245
    105  CA        20.3460   73.4130   36.2690 C.3   198  ARG198      0.1563
    106  C         21.0960   72.6450   35.1600 C.2   198  ARG198      0.2260
    107  O         22.1910   72.1680   35.3280 O.2   198  ARG198     -0.2867
    108  CB        20.2860   74.9350   35.9130 C.3   198  ARG198      0.0307
    109  CG        21.6440   75.6270   35.8720 C.3   198  ARG198      0.0489
    110  CD        21.4890   77.0300   35.3120 C.3   198  ARG198      0.2205
    111  NE        22.7580   77.7830   35.2800 N.pl3 198  ARG198     -0.0865
    112  CZ        23.7870   77.5320   34.4930 C.cat 198  ARG198      0.5346
    113  NH1       23.7360   76.5170   33.6340 N.pl3 198  ARG198      0.1354
    114  NH2       24.8910   78.2990   34.5470 N.pl3 198  ARG198      0.1354
@<TRIPOS>BOND
     1   113   112    1
     2   112   114    1
     3   112   111    2
     4   106   107    2
     5   106   105    1
     6   111   110    1
     7   110   109    1
     8   109   108    1
     9   108   105    1
    10   105   104    1
    11    86    87    1
    12    85    84    1
    13    84    83    1
    14    87    90    1
    15    87    88    1
    16    90    91    1
    17    90    92    1
    18    77    76    2
    19    22    20    1
    20    11     9    1
    21    88    89    2
    22    76    75    1
    23    76    78   am
    24    20    19    2
    25    20    21    1
    26   102   100   ar
    27   102   103   ar
    28    75    74    1
    29    79    78    1
    30    79    82    1
    31    79    80    1
    32    83    82    1
    33    19    18    1
    34   100    98   ar
    35    81    80    2
    36    39    37    1
    37     9     8    2
    38     9    10    1
    39    18    17    1
    40    74    68   am
    41   103   101   ar
    42     8     7    1
    43    37    38    1
    44    37    36    2
    45    98    97    1
    46    98    99   ar
    47     4     3    2
    48    65    63    1
    49    64    62    1
    50    93    94    1
    51    97    94    1
    52    28    27    1
    53    62    63    1
    54    62    59    1
    55    68    69    2
    56    68    67    1
    57    61    60    2
    58   101    99   ar
    59    36    35    1
    60    17    16    1
    61    94    95    1
    62    27    24    1
    63     7     6    1
    64     3     2    1
    65     3    12   am
    66    51    50    1
    67    13    16    1
    68    13    12    1
    69    13    14    1
    70    60    59    1
    71    60    66   am
    72    23    24    1
    73    23    14   am
    74     1     2    1
    75    67    66    1
    76    67    70    1
    77     5     2    1
    78     5     6    1
    79    35    34    1
    80    59    58    1
    81    24    25    1
    82    14    15    2
    83    57    56    1
    84    95    96    2
    85    58    54   am
    86    72    70    1
    87    26    25    2
    88    50    49   ar
    89    50    48   ar
    90    70    71    1
    91    34    33    1
    92    73    71    1
    93    49    47   ar
    94    48    46   ar
    95    54    53    1
    96    54    55    2
    97    56    53    1
    98    53    52    1
    99    33    30    1
   100    47    45   ar
   101    46    45   ar
   102    45    44    1
   103    29    30    1
   104    30    31    1
   105    32    31    2
   106    44    41    1
   107    40    41    1
   108    41    42    1
   109    42    43    2
