@<TRIPOS>MOLECULE
tmp/5j63A01.pdb
 187 182 0 0 0
SMALL
GASTEIGER

@<TRIPOS>ATOM
      1  N         16.3810   42.3660  -32.8450 N.3    81  SER81      -0.1217
      2  CA        17.5440   42.2120  -31.9590 C.3    81  SER81       0.1889
      3  C         18.8320   42.5100  -32.7230 C.2    81  SER81       0.2288
      4  O         19.0600   41.9960  -33.8250 O.2    81  SER81      -0.2866
      5  CB        17.5680   40.8000  -31.3660 C.3    81  SER81       0.2089
      6  OG        18.7100   40.5360  -30.5570 O.3    81  SER81      -0.2183
      7  N         22.6200   42.3570  -31.4560 N.3    83  TYR83      -0.1227
      8  CA        23.7080   42.1180  -30.5300 C.3    83  TYR83       0.1736
      9  C         23.3060   42.1750  -29.0230 C.2    83  TYR83       0.2595
     10  O         24.1090   42.4840  -28.1270 O.2    83  TYR83      -0.2718
     11  CB        24.8840   43.0150  -30.9430 C.3    83  TYR83       0.0548
     12  CG        25.7070   42.3230  -32.0040 C.ar   83  TYR83      -0.0200
     13  CD1       25.1300   41.8600  -33.1830 C.ar   83  TYR83      -0.0009
     14  CD2       27.0470   42.0610  -31.7960 C.ar   83  TYR83      -0.0009
     15  CE1       25.8630   41.1840  -34.1260 C.ar   83  TYR83       0.0417
     16  CE2       27.7940   41.3660  -32.7380 C.ar   83  TYR83       0.0417
     17  CZ        27.1920   40.9250  -33.8980 C.ar   83  TYR83       0.1957
     18  OH        27.9600   40.2850  -34.8390 O.3    83  TYR83      -0.2866
     19  N         22.0470   41.8450  -28.7600 N.am   84  TYR84      -0.1962
     20  CA        21.5470   41.6300  -27.4150 C.3    84  TYR84       0.1771
     21  C         22.0350   40.2610  -26.9720 C.2    84  TYR84       0.2619
     22  O         22.2650   39.3610  -27.7960 O.2    84  TYR84      -0.2715
     23  CB        20.0190   41.6750  -27.4280 C.3    84  TYR84       0.0574
     24  CG        19.2830   41.7600  -26.0930 C.ar   84  TYR84      -0.0198
     25  CD1       19.1330   42.9740  -25.4330 C.ar   84  TYR84      -0.0009
     26  CD2       18.6350   40.6290  -25.5510 C.ar   84  TYR84      -0.0009
     27  CE1       18.4320   43.0600  -24.2400 C.ar   84  TYR84       0.0417
     28  CE2       17.9260   40.7050  -24.3750 C.ar   84  TYR84       0.0417
     29  CZ        17.8310   41.9280  -23.7140 C.ar   84  TYR84       0.1957
     30  OH        17.1190   42.0300  -22.5370 O.3    84  TYR84      -0.2866
     31  N         22.1090   40.0780  -25.6570 N.am   85  ARG85      -0.1963
     32  CA        22.9790   39.0680  -25.0420 C.3    85  ARG85       0.1729
     33  C         22.2410   37.9780  -24.2860 C.2    85  ARG85       0.2616
     34  O         22.8350   36.9490  -24.0120 O.2    85  ARG85      -0.2715
     35  CB        24.0190   39.7560  -24.1340 C.3    85  ARG85       0.0348
     36  CG        25.2450   40.2200  -24.8970 C.3    85  ARG85       0.0492
     37  CD        26.1530   41.1530  -24.0890 C.3    85  ARG85       0.2205
     38  NE        27.1250   41.8630  -24.9400 N.pl3  85  ARG85      -0.0865
     39  CZ        28.3210   42.3420  -24.5510 C.cat  85  ARG85       0.5346
     40  NH1       29.1230   42.9420  -25.4430 N.pl3  85  ARG85       0.1354
     41  NH2       28.7330   42.2120  -23.2790 N.pl3  85  ARG85       0.1354
     42  N         20.9780   38.2040  -23.9340 N.am   86  HIS86      -0.1959
     43  CA        20.1570   37.1780  -23.3090 C.3    86  HIS86       0.1787
     44  C         19.0160   36.7590  -24.1990 C.2    86  HIS86       0.2620
     45  O         18.5850   37.4890  -25.1000 O.2    86  HIS86      -0.2715
     46  CB        19.5860   37.6650  -21.9970 C.3    86  HIS86       0.0785
     47  CG        20.6060   38.2220  -21.0600 C.ar   86  HIS86       0.0821
     48  ND1       20.3140   39.2290  -20.1560 N.ar   86  HIS86      -0.2267
     49  CD2       21.9220   37.9330  -20.9020 C.ar   86  HIS86       0.1154
     50  CE1       21.4130   39.5400  -19.4900 C.ar   86  HIS86       0.1986
     51  NE2       22.4040   38.7810  -19.9340 N.ar   86  HIS86      -0.2212
     52  N         18.5200   35.5630  -23.9240 N.am   87  LEU87      -0.1963
     53  CA        17.3960   34.9880  -24.6780 C.3    87  LEU87       0.1728
     54  C         16.0950   35.7100  -24.3520 C.2    87  LEU87       0.2616
     55  O         15.8430   36.0890  -23.2480 O.2    87  LEU87      -0.2715
     56  CB        17.2380   33.4820  -24.3960 C.3    87  LEU87       0.0311
     57  CG        18.2950   32.6640  -25.1130 C.3    87  LEU87       0.0022
     58  CD1       18.7090   31.4440  -24.3240 C.3    87  LEU87       0.0001
     59  CD2       17.7670   32.2510  -26.4690 C.3    87  LEU87       0.0001
     60  N         15.2610   35.7950  -25.3660 N.am   88  ILE88      -0.1977
     61  CA        13.9910   36.4800  -25.3840 C.3    88  ILE88       0.1596
     62  C         13.1110   35.3000  -25.7200 C.2    88  ILE88       0.2287
     63  O         13.3190   34.6470  -26.7520 O.2    88  ILE88      -0.2864
     64  CB        13.9220   37.5100  -26.5220 C.3    88  ILE88       0.0276
     65  CG1       15.0560   38.5320  -26.3890 C.3    88  ILE88       0.0022
     66  CG2       12.5750   38.2060  -26.5350 C.3    88  ILE88       0.0022
     67  CD1       15.4910   39.1510  -27.6990 C.3    88  ILE88       0.0001
     68  N          8.6140   36.9670  -28.3020 N.3    93  LEU93      -0.1245
     69  CA         8.7380   36.7720  -29.7480 C.3    93  LEU93       0.1561
     70  C          7.3930   36.5770  -30.4990 C.2    93  LEU93       0.2260
     71  O          7.2490   37.0870  -31.6010 O.2    93  LEU93      -0.2867
     72  CB         9.6840   35.6280  -30.0600 C.3    93  LEU93       0.0270
     73  CG        11.1630   35.9050  -29.7920 C.3    93  LEU93       0.0019
     74  CD1       11.9160   34.5950  -29.6960 C.3    93  LEU93       0.0001
     75  CD2       11.7440   36.7890  -30.8800 C.3    93  LEU93       0.0001
     76  N         17.0200   38.7600  -35.8920 N.3   102  ASN102     -0.1240
     77  CA        18.3100   38.9700  -35.2620 C.3   102  ASN102      0.1653
     78  C         19.3820   39.1970  -36.3310 C.2   102  ASN102      0.2266
     79  O         19.3310   38.6060  -37.3930 O.2   102  ASN102     -0.2867
     80  CB        18.6600   37.7630  -34.3990 C.3   102  ASN102      0.1155
     81  CG        19.9420   37.9440  -33.6380 C.2   102  ASN102      0.2627
     82  OD1       20.0670   38.8390  -32.8100 O.2   102  ASN102     -0.2716
     83  ND2       20.9150   37.0870  -33.9180 N.am  102  ASN102     -0.0877
     84  N         23.4710   38.9640  -36.8420 N.3   104  HIS104     -0.1241
     85  CA        24.4990   38.1530  -36.2530 C.3   104  HIS104      0.1621
     86  C         25.7700   38.1260  -37.1280 C.2   104  HIS104      0.2264
     87  O         25.6910   37.8730  -38.3420 O.2   104  HIS104     -0.2867
     88  CB        23.9230   36.7330  -36.0680 C.3   104  HIS104      0.0745
     89  CG        24.8720   35.7960  -35.3970 C.ar  104  HIS104      0.0817
     90  ND1       24.8980   35.6060  -34.0320 N.ar  104  HIS104     -0.2268
     91  CD2       25.8910   35.0640  -35.8990 C.ar  104  HIS104      0.1154
     92  CE1       25.8730   34.7670  -33.7310 C.ar  104  HIS104      0.1986
     93  NE2       26.5020   34.4370  -34.8440 N.ar  104  HIS104     -0.2212
     94  N         26.1090   31.0960  -31.8550 N.3   113  GLY113     -0.1210
     95  CA        26.4460   31.1340  -30.4540 C.3   113  GLY113      0.1956
     96  C         26.8590   32.5280  -30.0870 C.2   113  GLY113      0.2611
     97  O         26.1610   33.4640  -30.4070 O.2   113  GLY113     -0.2717
     98  N         27.9960   32.6740  -29.4190 N.am  114  ARG114     -0.1979
     99  CA        28.4030   33.9610  -28.8490 C.3   114  ARG114      0.1597
    100  C         29.7780   34.3710  -29.3580 C.2   114  ARG114      0.2287
    101  O         30.6150   33.5180  -29.6930 O.2   114  ARG114     -0.2864
    102  CB        28.3810   33.8770  -27.3170 C.3   114  ARG114      0.0334
    103  CG        26.9830   33.6430  -26.7640 C.3   114  ARG114      0.0492
    104  CD        26.9380   33.7760  -25.2580 C.3   114  ARG114      0.2205
    105  NE        26.6320   35.1520  -24.8300 N.pl3 114  ARG114     -0.0865
    106  CZ        25.6020   35.5390  -24.0600 C.cat 114  ARG114      0.5346
    107  NH1       25.4480   36.8300  -23.7600 N.pl3 114  ARG114      0.1354
    108  NH2       24.7200   34.6710  -23.5670 N.pl3 114  ARG114      0.1354
    109  N         18.3420   37.0760  -39.6540 N.3   133  HIS133     -0.1241
    110  CA        17.5060   35.9000  -39.7200 C.3   133  HIS133      0.1621
    111  C         16.2730   36.0260  -38.8300 C.2   133  HIS133      0.2264
    112  O         16.1910   36.9360  -38.0260 O.2   133  HIS133     -0.2867
    113  CB        18.3350   34.6490  -39.4160 C.3   133  HIS133      0.0745
    114  CG        18.8600   34.5740  -38.0160 C.ar  133  HIS133      0.0817
    115  ND1       18.1040   34.1100  -36.9600 N.ar  133  HIS133     -0.2268
    116  CD2       20.0830   34.8530  -37.5070 C.ar  133  HIS133      0.1154
    117  CE1       18.8240   34.1390  -35.8520 C.ar  133  HIS133      0.1986
    118  NE2       20.0330   34.5780  -36.1600 N.ar  133  HIS133     -0.2212
    119  N         14.2330   35.3040  -35.6900 N.3   135  MET135     -0.1182
    120  CA        14.5960   35.0100  -34.3110 C.3   135  MET135      0.1917
    121  C         13.5200   34.0650  -33.7420 C.2   135  MET135      0.2634
    122  O         12.3340   34.4100  -33.7180 O.2   135  MET135     -0.2714
    123  CB        14.7050   36.3170  -33.4900 C.2   135  MET135      0.0083
    124  CG        15.4690   36.1990  -32.1540 C.2   135  MET135      0.0282
    125  SD        16.0430   37.7090  -31.3210 S.3   135  MET135     -0.1125
    126  CE        14.6440   38.8280  -31.4910 C.3   135  MET135      0.0742
    127  N         13.9530   32.8770  -33.3080 N.am  136  VAL136     -0.1963
    128  CA        13.0700   31.8520  -32.7400 C.3   136  VAL136      0.1727
    129  C         13.5310   31.4500  -31.3300 C.2   136  VAL136      0.2616
    130  O         14.5080   31.9870  -30.8210 O.2   136  VAL136     -0.2715
    131  CB        12.9270   30.6210  -33.6720 C.3   136  VAL136      0.0290
    132  CG1       12.1490   31.0110  -34.9070 C.3   136  VAL136      0.0023
    133  CG2       14.2730   30.0360  -34.0530 C.3   136  VAL136      0.0023
    134  N         12.7860   30.5500  -30.6800 N.am  137  LYS137     -0.1963
    135  CA        13.1420   30.0830  -29.3300 C.3   137  LYS137      0.1728
    136  C         14.6180   29.6310  -29.2730 C.2   137  LYS137      0.2616
    137  O         15.3350   29.9900  -28.3470 O.2   137  LYS137     -0.2715
    138  CB        12.1930   28.9730  -28.8330 C.3   137  LYS137      0.0311
    139  CG        12.0300   28.9450  -27.3090 C.3   137  LYS137      0.0038
    140  CD        11.0540   27.8650  -26.8440 C.3   137  LYS137      0.0206
    141  CE        11.6920   26.4760  -26.7890 C.3   137  LYS137      0.1093
    142  NZ        12.2310   26.1390  -25.4370 N.3   137  LYS137     -0.1314
    143  N         15.0750   28.9090  -30.2920 N.am  138  ARG138     -0.1963
    144  CA        16.4310   28.3480  -30.3090 C.3   138  ARG138      0.1729
    145  C         17.4870   29.3040  -30.8900 C.2   138  ARG138      0.2616
    146  O         17.3020   29.8780  -31.9720 O.2   138  ARG138     -0.2715
    147  CB        16.4040   27.0670  -31.0980 C.3   138  ARG138      0.0348
    148  CG        17.6160   26.1960  -30.8840 C.3   138  ARG138      0.0492
    149  CD        17.6080   25.0560  -31.8910 C.3   138  ARG138      0.2205
    150  NE        18.9250   24.4460  -31.9750 N.pl3 138  ARG138     -0.0865
    151  CZ        19.3540   23.7080  -32.9900 C.cat 138  ARG138      0.5346
    152  NH1       20.5870   23.2110  -32.9390 N.pl3 138  ARG138      0.1354
    153  NH2       18.5790   23.4630  -34.0590 N.pl3 138  ARG138      0.1354
    154  N         18.6080   29.4370  -30.1840 N.am  139  ALA139     -0.1963
    155  CA        19.5650   30.5280  -30.4500 C.3   139  ALA139      0.1728
    156  C         20.1740   30.5010  -31.8490 C.2   139  ALA139      0.2616
    157  O         20.5900   29.4600  -32.3230 O.2   139  ALA139     -0.2715
    158  CB        20.6710   30.5170  -29.4150 C.3   139  ALA139      0.0334
    159  N         20.1840   31.6500  -32.5180 N.am  140  ASP140     -0.1971
    160  CA        20.8750   31.8100  -33.8000 C.3   140  ASP140      0.1709
    161  C         20.5140   30.7800  -34.9070 C.2   140  ASP140      0.2293
    162  O         21.3290   30.5530  -35.8130 O.2   140  ASP140     -0.2864
    163  CB        22.3820   31.7530  -33.5410 C.3   140  ASP140      0.1436
    164  CG        22.8010   32.6280  -32.3990 C.2   140  ASP140      0.3671
    165  OD1       22.3750   33.8060  -32.3780 O.co2 140  ASP140     -0.2456
    166  OD2       23.5350   32.1210  -31.5250 O.co2 140  ASP140     -0.2456
    167  N         28.3390   25.6990  -33.3180 N.3   197  CYS197     -0.1235
    168  CA        28.0060   26.4940  -32.1460 C.3   197  CYS197      0.1677
    169  C         29.2520   26.6330  -31.2820 C.2   197  CYS197      0.2270
    170  O         29.9260   25.6360  -30.9910 O.2   197  CYS197     -0.2867
    171  CB        26.8740   25.8280  -31.3590 C.3   197  CYS197      0.0956
    172  SG        26.2540   26.8110  -29.9780 S.3   197  CYS197     -0.0801
    173  N         30.4940   28.6960  -27.6170 N.3   199  GLY199     -0.1210
    174  CA        29.9280   29.2920  -26.3900 C.3   199  GLY199      0.1956
    175  C         30.5050   30.6370  -25.8910 C.2   199  GLY199      0.2611
    176  O         31.2800   31.2930  -26.5740 O.2   199  GLY199     -0.2717
    177  N         30.0930   31.0330  -24.6930 N.am  200  ARG200     -0.1979
    178  CA        30.4820   32.2970  -24.0980 C.3   200  ARG200      0.1597
    179  C         31.9800   32.3160  -23.8970 C.2   200  ARG200      0.2287
    180  O         32.5900   31.2820  -23.6460 O.2   200  ARG200     -0.2864
    181  CB        29.7500   32.4960  -22.7550 C.3   200  ARG200      0.0334
    182  CG        29.8860   33.8980  -22.1370 C.3   200  ARG200      0.0492
    183  CD        28.8730   34.1820  -21.0200 C.3   200  ARG200      0.2205
    184  NE        28.4070   35.5790  -21.0480 N.pl3 200  ARG200     -0.0865
    185  CZ        29.0570   36.6460  -20.5570 C.cat 200  ARG200      0.5346
    186  NH1       30.2620   36.5400  -19.9590 N.pl3 200  ARG200      0.1354
    187  NH2       28.4940   37.8520  -20.6860 N.pl3 200  ARG200      0.1354
@<TRIPOS>BOND
     1   110   109    1
     2   110   113    1
     3   110   111    1
     4   113   114    1
     5   111   112    2
     6    87    86    2
     7   114   116   ar
     8   114   115   ar
     9   116   118   ar
    10    79    78    2
    11    86    85    1
    12   115   117   ar
    13    84    85    1
    14    78    77    1
    15    85    88    1
    16   118   117   ar
    17    88    89    1
    18    91    89   ar
    19    91    93   ar
    20    76    77    1
    21   162   161    2
    22   119   120    1
    23    89    90   ar
    24    77    80    1
    25   132   131    1
    26   161   160    1
    27    93    92   ar
    28    18    17    1
    29    80    81    1
    30   120   121    1
    31   120   123    1
    32    15    17   ar
    33    15    13   ar
    34   153   151    1
    35   133   131    1
    36    90    92   ar
    37    83    81   am
    38    17    16   ar
    39     4     3    2
    40   160   163    1
    41   160   159    1
    42   121   122    2
    43   121   127   am
    44   131   128    1
    45    81    82    2
    46   163   164    1
    47   123   124    2
    48   167   168    1
    49   127   128    1
    50    13    12   ar
    51   151   152    1
    52   151   150    2
    53     1     2    1
    54   128   129    1
    55    16    14   ar
    56     3     2    1
    57   159   156   am
    58   164   165   ar
    59   164   166   ar
    60   157   156    2
    61   124   125    1
    62   168   171    1
    63   168   169    1
    64    12    14   ar
    65    12    11    1
    66   150   149    1
    67   146   145    2
    68     2     5    1
    69   149   148    1
    70    94    95    1
    71   156   155    1
    72    71    70    2
    73   126   125    1
    74     7     8    1
    75     5     6    1
    76   171   172    1
    77   129   130    2
    78   129   134   am
    79   169   170    2
    80   147   148    1
    81   147   144    1
    82    11     8    1
    83   145   144    1
    84   145   154   am
    85    75    73    1
    86   134   135    1
    87     8     9    1
    88    70    69    1
    89    95    96    1
    90   155   154    1
    91   155   158    1
    92    97    96    2
    93   144   143    1
    94   143   136   am
    95    96    98   am
    96    72    73    1
    97    72    69    1
    98    73    74    1
    99    69    68    1
   100   101   100    2
   101    98    99    1
   102   100    99    1
   103   135   136    1
   104   135   138    1
   105   136   137    2
   106     9    19   am
   107     9    10    2
   108    99   102    1
   109   138   139    1
   110    19    20    1
   111    22    21    2
   112    67    65    1
   113   173   174    1
   114    23    20    1
   115    23    24    1
   116    20    21    1
   117   102   103    1
   118   139   140    1
   119    21    31   am
   120   140   141    1
   121   141   142    1
   122   103   104    1
   123    63    62    2
   124   176   175    2
   125    66    64    1
   126    64    65    1
   127    64    61    1
   128    59    57    1
   129   174   175    1
   130    24    26   ar
   131    24    25   ar
   132   175   177   am
   133    62    61    1
   134    31    32    1
   135    26    28   ar
   136    40    39    1
   137    25    27   ar
   138    61    60    1
   139    60    54   am
   140   104   105    1
   141    57    56    1
   142    57    58    1
   143    45    44    2
   144    32    33    1
   145    32    35    1
   146    38    39    2
   147    38    37    1
   148    36    35    1
   149    36    37    1
   150   105   106    2
   151   177   178    1
   152    53    56    1
   153    53    54    1
   154    53    52    1
   155    39    41    1
   156    28    29   ar
   157    54    55    2
   158    33    34    2
   159    33    42   am
   160    27    29   ar
   161    44    52   am
   162    44    43    1
   163   178   179    1
   164   178   181    1
   165   106   107    1
   166   106   108    1
   167    42    43    1
   168   179   180    2
   169    29    30    1
   170    43    46    1
   171   181   182    1
   172   182   183    1
   173    46    47    1
   174    47    49   ar
   175    47    48   ar
   176   184   183    1
   177   184   185    2
   178    49    51   ar
   179   187   185    1
   180   185   186    1
   181    48    50   ar
   182    51    50   ar
