@<TRIPOS>MOLECULE
tmp/5j63A00.pdb
 197 195 0 0 0
SMALL
GASTEIGER

@<TRIPOS>ATOM
      1  N         25.9890   47.4450  -28.0280 N.3     9  HIS9       -0.1241
      2  CA        27.2900   47.4730  -28.7720 C.3     9  HIS9        0.1621
      3  C         27.1740   48.2770  -30.0850 C.2     9  HIS9        0.2264
      4  O         26.1390   48.9150  -30.3530 O.2     9  HIS9       -0.2867
      5  CB        27.8200   46.0480  -29.0220 C.3     9  HIS9        0.0745
      6  CG        29.3060   45.8550  -28.8130 C.ar    9  HIS9        0.0817
      7  ND1       30.2270   45.9450  -29.8360 N.ar    9  HIS9       -0.2268
      8  CD2       30.0040   45.4270  -27.7320 C.ar    9  HIS9        0.1154
      9  CE1       31.4350   45.6540  -29.3860 C.ar    9  HIS9        0.1986
     10  NE2       31.3260   45.3220  -28.1130 N.ar    9  HIS9       -0.2212
     11  N         34.8530   44.6810  -16.3880 N.3    37  GLY37      -0.1210
     12  CA        35.7930   43.8340  -17.1130 C.3    37  GLY37       0.1956
     13  C         35.8820   44.0510  -18.6230 C.2    37  GLY37       0.2611
     14  O         36.8650   43.6510  -19.2340 O.2    37  GLY37      -0.2717
     15  N         34.8390   44.6360  -19.2270 N.am   38  GLU38      -0.1979
     16  CA        34.7250   44.7670  -20.6820 C.3    38  GLU38       0.1602
     17  C         34.9540   46.2300  -21.0350 C.2    38  GLU38       0.2287
     18  O         34.0570   47.0430  -20.8190 O.2    38  GLU38      -0.2864
     19  CB        33.3160   44.3190  -21.1590 C.3    38  GLU38       0.0415
     20  CG        33.0180   44.5490  -22.6630 C.3    38  GLU38       0.1163
     21  CD        31.7380   43.8590  -23.1560 C.2    38  GLU38       0.3649
     22  OE1       31.6080   43.5510  -24.3550 O.co2  38  GLU38      -0.2457
     23  OE2       30.8320   43.5930  -22.3460 O.co2  38  GLU38      -0.2457
     24  N         22.6200   42.3570  -31.4560 N.3    83  TYR83      -0.1227
     25  CA        23.7080   42.1180  -30.5300 C.3    83  TYR83       0.1736
     26  C         23.3060   42.1750  -29.0230 C.2    83  TYR83       0.2595
     27  O         24.1090   42.4840  -28.1270 O.2    83  TYR83      -0.2718
     28  CB        24.8840   43.0150  -30.9430 C.3    83  TYR83       0.0548
     29  CG        25.7070   42.3230  -32.0040 C.ar   83  TYR83      -0.0200
     30  CD1       25.1300   41.8600  -33.1830 C.ar   83  TYR83      -0.0009
     31  CD2       27.0470   42.0610  -31.7960 C.ar   83  TYR83      -0.0009
     32  CE1       25.8630   41.1840  -34.1260 C.ar   83  TYR83       0.0417
     33  CE2       27.7940   41.3660  -32.7380 C.ar   83  TYR83       0.0417
     34  CZ        27.1920   40.9250  -33.8980 C.ar   83  TYR83       0.1957
     35  OH        27.9600   40.2850  -34.8390 O.3    83  TYR83      -0.2866
     36  N         22.0470   41.8450  -28.7600 N.am   84  TYR84      -0.1962
     37  CA        21.5470   41.6300  -27.4150 C.3    84  TYR84       0.1771
     38  C         22.0350   40.2610  -26.9720 C.2    84  TYR84       0.2619
     39  O         22.2650   39.3610  -27.7960 O.2    84  TYR84      -0.2715
     40  CB        20.0190   41.6750  -27.4280 C.3    84  TYR84       0.0574
     41  CG        19.2830   41.7600  -26.0930 C.ar   84  TYR84      -0.0198
     42  CD1       19.1330   42.9740  -25.4330 C.ar   84  TYR84      -0.0009
     43  CD2       18.6350   40.6290  -25.5510 C.ar   84  TYR84      -0.0009
     44  CE1       18.4320   43.0600  -24.2400 C.ar   84  TYR84       0.0417
     45  CE2       17.9260   40.7050  -24.3750 C.ar   84  TYR84       0.0417
     46  CZ        17.8310   41.9280  -23.7140 C.ar   84  TYR84       0.1957
     47  OH        17.1190   42.0300  -22.5370 O.3    84  TYR84      -0.2866
     48  N         22.1090   40.0780  -25.6570 N.am   85  ARG85      -0.1977
     49  CA        22.9790   39.0680  -25.0420 C.3    85  ARG85       0.1597
     50  C         22.2410   37.9780  -24.2860 C.2    85  ARG85       0.2287
     51  O         22.8350   36.9490  -24.0120 O.2    85  ARG85      -0.2864
     52  CB        24.0190   39.7560  -24.1340 C.3    85  ARG85       0.0334
     53  CG        25.2450   40.2200  -24.8970 C.3    85  ARG85       0.0492
     54  CD        26.1530   41.1530  -24.0890 C.3    85  ARG85       0.2205
     55  NE        27.1250   41.8630  -24.9400 N.pl3  85  ARG85      -0.0865
     56  CZ        28.3210   42.3420  -24.5510 C.cat  85  ARG85       0.5346
     57  NH1       29.1230   42.9420  -25.4430 N.pl3  85  ARG85       0.1354
     58  NH2       28.7330   42.2120  -23.2790 N.pl3  85  ARG85       0.1354
     59  N         17.0200   38.7600  -35.8920 N.3   102  ASN102     -0.1225
     60  CA        18.3100   38.9700  -35.2620 C.3   102  ASN102      0.1785
     61  C         19.3820   39.1970  -36.3310 C.2   102  ASN102      0.2597
     62  O         19.3310   38.6060  -37.3930 O.2   102  ASN102     -0.2718
     63  CB        18.6600   37.7630  -34.3990 C.3   102  ASN102      0.1169
     64  CG        19.9420   37.9440  -33.6380 C.2   102  ASN102      0.2627
     65  OD1       20.0670   38.8390  -32.8100 O.2   102  ASN102     -0.2716
     66  ND2       20.9150   37.0870  -33.9180 N.am  102  ASN102     -0.0877
     67  N         20.3400   40.0700  -36.0230 N.am  103  LEU103     -0.1966
     68  CA        21.5020   40.3300  -36.8610 C.3   103  LEU103      0.1728
     69  C         22.6760   39.7610  -36.1320 C.2   103  LEU103      0.2616
     70  O         22.8980   40.1200  -34.9730 O.2   103  LEU103     -0.2715
     71  CB        21.7160   41.8090  -36.9600 C.3   103  LEU103      0.0311
     72  CG        23.0170   42.3190  -37.5530 C.3   103  LEU103      0.0022
     73  CD1       23.0810   41.9830  -39.0240 C.3   103  LEU103      0.0001
     74  CD2       23.1170   43.8280  -37.2900 C.3   103  LEU103      0.0001
     75  N         23.4710   38.9640  -36.8420 N.am  104  HIS104     -0.1973
     76  CA        24.4990   38.1530  -36.2530 C.3   104  HIS104      0.1656
     77  C         25.7700   38.1260  -37.1280 C.2   104  HIS104      0.2291
     78  O         25.6910   37.8730  -38.3420 O.2   104  HIS104     -0.2864
     79  CB        23.9230   36.7330  -36.0680 C.3   104  HIS104      0.0771
     80  CG        24.8720   35.7960  -35.3970 C.ar  104  HIS104      0.0820
     81  ND1       24.8980   35.6060  -34.0320 N.ar  104  HIS104     -0.2267
     82  CD2       25.8910   35.0640  -35.8990 C.ar  104  HIS104      0.1154
     83  CE1       25.8730   34.7670  -33.7310 C.ar  104  HIS104      0.1986
     84  NE2       26.5020   34.4370  -34.8440 N.ar  104  HIS104     -0.2212
     85  N         26.1090   31.0960  -31.8550 N.3   113  GLY113     -0.1210
     86  CA        26.4460   31.1340  -30.4540 C.3   113  GLY113      0.1956
     87  C         26.8590   32.5280  -30.0870 C.2   113  GLY113      0.2612
     88  O         26.1610   33.4640  -30.4070 O.2   113  GLY113     -0.2717
     89  N         27.9960   32.6740  -29.4190 N.am  114  ARG114     -0.1965
     90  CA        28.4030   33.9610  -28.8490 C.3   114  ARG114      0.1729
     91  C         29.7780   34.3710  -29.3580 C.2   114  ARG114      0.2616
     92  O         30.6150   33.5180  -29.6930 O.2   114  ARG114     -0.2715
     93  CB        28.3810   33.8770  -27.3170 C.3   114  ARG114      0.0348
     94  CG        26.9830   33.6430  -26.7640 C.3   114  ARG114      0.0492
     95  CD        26.9380   33.7760  -25.2580 C.3   114  ARG114      0.2205
     96  NE        26.6320   35.1520  -24.8300 N.pl3 114  ARG114     -0.0865
     97  CZ        25.6020   35.5390  -24.0600 C.cat 114  ARG114      0.5346
     98  NH1       25.4480   36.8300  -23.7600 N.pl3 114  ARG114      0.1354
     99  NH2       24.7200   34.6710  -23.5670 N.pl3 114  ARG114      0.1354
    100  N         29.9970   35.6740  -29.4640 N.am  115  ALA115     -0.1964
    101  CA        31.3180   36.1790  -29.8510 C.3   115  ALA115      0.1713
    102  C         31.9290   35.5610  -31.1210 C.2   115  ALA115      0.2458
    103  O         33.1200   35.2370  -31.1090 O.2   115  ALA115     -0.2730
    104  CB        32.2910   35.9880  -28.6950 C.3   115  ALA115      0.0333
    105  N         31.1390   35.4090  -32.2080 N.am  116  PRO116     -0.2727
    106  CA        31.6830   34.9390  -33.4790 C.3   116  PRO116      0.1402
    107  C         32.7270   35.8580  -34.0900 C.2   116  PRO116      0.2269
    108  O         33.5850   35.4020  -34.8450 O.2   116  PRO116     -0.2865
    109  CB        30.4670   34.8930  -34.3740 C.3   116  PRO116      0.0296
    110  CG        29.5580   35.8960  -33.7890 C.3   116  PRO116      0.0237
    111  CD        29.6950   35.6510  -32.3280 C.3   116  PRO116      0.0939
    112  N         35.2000   36.9340  -32.5330 N.3   118  ASN118     -0.1240
    113  CA        36.4200   36.4700  -31.9100 C.3   118  ASN118      0.1653
    114  C         36.7170   35.0280  -32.2280 C.2   118  ASN118      0.2266
    115  O         37.8720   34.6710  -32.4020 O.2   118  ASN118     -0.2867
    116  CB        36.2680   36.6490  -30.3920 C.3   118  ASN118      0.1155
    117  CG        35.9150   38.0720  -30.0330 C.2   118  ASN118      0.2627
    118  OD1       34.7680   38.3800  -29.7240 O.2   118  ASN118     -0.2716
    119  ND2       36.9010   38.9750  -30.1620 N.am  118  ASN118     -0.0877
    120  N         20.1840   31.6500  -32.5180 N.3   140  ASP140     -0.1239
    121  CA        20.8750   31.8100  -33.8000 C.3   140  ASP140      0.1674
    122  C         20.5140   30.7800  -34.9070 C.2   140  ASP140      0.2266
    123  O         21.3290   30.5530  -35.8130 O.2   140  ASP140     -0.2867
    124  CB        22.3820   31.7530  -33.5410 C.3   140  ASP140      0.1410
    125  CG        22.8010   32.6280  -32.3990 C.2   140  ASP140      0.3668
    126  OD1       22.3750   33.8060  -32.3780 O.co2 140  ASP140     -0.2456
    127  OD2       23.5350   32.1210  -31.5250 O.co2 140  ASP140     -0.2456
    128  N         30.0930   31.0330  -24.6930 N.3   200  ARG200     -0.1231
    129  CA        30.4820   32.2970  -24.0980 C.3   200  ARG200      0.1694
    130  C         31.9800   32.3160  -23.8970 C.2   200  ARG200      0.2592
    131  O         32.5900   31.2820  -23.6460 O.2   200  ARG200     -0.2718
    132  CB        29.7500   32.4960  -22.7550 C.3   200  ARG200      0.0321
    133  CG        29.8860   33.8980  -22.1370 C.3   200  ARG200      0.0489
    134  CD        28.8730   34.1820  -21.0200 C.3   200  ARG200      0.2205
    135  NE        28.4070   35.5790  -21.0480 N.pl3 200  ARG200     -0.0865
    136  CZ        29.0570   36.6460  -20.5570 C.cat 200  ARG200      0.5346
    137  NH1       30.2620   36.5400  -19.9590 N.pl3 200  ARG200      0.1354
    138  NH2       28.4940   37.8520  -20.6860 N.pl3 200  ARG200      0.1354
    139  N         32.5940   33.4820  -24.0570 N.am  201  ARG201     -0.1966
    140  CA        34.0290   33.6140  -23.8530 C.3   201  ARG201      0.1729
    141  C         34.3010   34.4860  -22.6200 C.2   201  ARG201      0.2617
    142  O         33.5180   35.4030  -22.3240 O.2   201  ARG201     -0.2715
    143  CB        34.6850   34.1720  -25.1130 C.3   201  ARG201      0.0348
    144  CG        34.7220   33.1860  -26.2740 C.3   201  ARG201      0.0492
    145  CD        35.4730   33.7400  -27.4740 C.3   201  ARG201      0.2205
    146  NE        36.8850   33.9540  -27.1530 N.pl3 201  ARG201     -0.0865
    147  CZ        37.8670   33.0510  -27.2590 C.cat 201  ARG201      0.5346
    148  NH1       37.6440   31.8310  -27.7190 N.pl3 201  ARG201      0.1354
    149  NH2       39.1020   33.3780  -26.9120 N.pl3 201  ARG201      0.1354
    150  N         35.3840   34.1700  -21.8970 N.am  202  THR202     -0.1937
    151  CA        35.8730   34.9660  -20.7580 C.3   202  THR202      0.2013
    152  C         37.3610   35.3530  -20.9090 C.2   202  THR202      0.2484
    153  O         38.0710   34.7870  -21.7690 O.2   202  THR202     -0.2729
    154  CB        35.6730   34.1780  -19.4690 C.3   202  THR202      0.1807
    155  OG1       36.4640   32.9870  -19.4920 O.3   202  THR202     -0.2208
    156  CG2       34.2080   33.7780  -19.3160 C.3   202  THR202      0.0379
    157  N         37.8530   36.3630  -20.1350 N.am  203  PRO203     -0.2726
    158  CA        39.3020   36.6710  -20.2740 C.3   203  PRO203      0.1402
    159  C         40.2080   35.4550  -20.1600 C.2   203  PRO203      0.2269
    160  O         41.1100   35.3080  -20.9740 O.2   203  PRO203     -0.2865
    161  CB        39.5590   37.6770  -19.1560 C.3   203  PRO203      0.0296
    162  CG        38.2790   38.4210  -19.0830 C.3   203  PRO203      0.0237
    163  CD        37.1510   37.4830  -19.4800 C.3   203  PRO203      0.0939
    164  N         41.8260   33.1600  -23.0270 N.3   206  SER206     -0.1217
    165  CA        42.9690   33.5540  -23.8600 C.3   206  SER206      0.1889
    166  C         44.3450   33.2680  -23.2460 C.2   206  SER206      0.2288
    167  O         45.3590   33.8280  -23.6730 O.2   206  SER206     -0.2866
    168  CB        42.7940   34.9990  -24.3100 C.3   206  SER206      0.2089
    169  OG        41.6030   35.0940  -25.0840 O.3   206  SER206     -0.2183
    170  N         41.7180   38.5450  -29.5070 N.3   224  VAL224     -0.1245
    171  CA        41.3880   39.3840  -28.3660 C.3   224  VAL224      0.1561
    172  C         42.3850   40.5190  -28.2060 C.2   224  VAL224      0.2260
    173  O         42.5490   41.0480  -27.0900 O.2   224  VAL224     -0.2867
    174  CB        41.2410   38.5900  -27.0450 C.3   224  VAL224      0.0252
    175  CG1       39.9580   37.7880  -27.0560 C.3   224  VAL224      0.0019
    176  CG2       42.4430   37.6840  -26.7960 C.3   224  VAL224      0.0019
    177  N         39.9300   44.1520  -26.9850 N.3   228  TRP228     -0.1228
    178  CA        39.5280   42.9120  -26.2500 C.3   228  TRP228      0.1722
    179  C         40.5650   42.5700  -25.1190 C.2   228  TRP228      0.2437
    180  O         41.5950   43.2810  -25.0020 O.2   228  TRP228     -0.2733
    181  CB        39.2490   41.7590  -27.2240 C.3   228  TRP228      0.0563
    182  CG        37.8650   41.8190  -27.7010 C.ar  228  TRP228      0.0003
    183  CD1       36.7990   41.1580  -27.1750 C.ar  228  TRP228      0.0946
    184  CD2       37.3540   42.6700  -28.7460 C.ar  228  TRP228      0.0152
    185  NE1       35.6460   41.5480  -27.8350 N.ar  228  TRP228     -0.2442
    186  CE2       35.9660   42.4770  -28.7970 C.ar  228  TRP228      0.0810
    187  CE3       37.9380   43.5920  -29.6190 C.ar  228  TRP228      0.0012
    188  CZ2       35.1410   43.1530  -29.7210 C.ar  228  TRP228      0.0191
    189  CZ3       37.1160   44.2910  -30.5300 C.ar  228  TRP228      0.0001
    190  CH2       35.7410   44.0510  -30.5870 C.ar  228  TRP228      0.0015
    191  N         40.3000   41.5480  -24.2550 N.am  229  PRO229     -0.2729
    192  CA        41.0990   41.5380  -23.0250 C.3   229  PRO229      0.1401
    193  C         42.5710   41.0540  -23.1390 C.2   229  PRO229      0.2269
    194  O         43.2890   41.0420  -22.1330 O.2   229  PRO229     -0.2865
    195  CB        40.3000   40.6300  -22.0750 C.3   229  PRO229      0.0296
    196  CG        38.9750   40.4790  -22.6790 C.3   229  PRO229      0.0237
    197  CD        39.2130   40.5730  -24.1670 C.3   229  PRO229      0.0939
@<TRIPOS>BOND
     1    73    72    1
     2    78    77    2
     3    72    74    1
     4    72    71    1
     5    62    61    2
     6    77    76    1
     7    71    68    1
     8    68    69    1
     9    68    67    1
    10    75    76    1
    11    75    69   am
    12    61    67   am
    13    61    60    1
    14    76    79    1
    15    69    70    2
    16    79    80    1
    17    82    80   ar
    18    82    84   ar
    19    59    60    1
    20   123   122    2
    21    80    81   ar
    22    60    63    1
    23   122   121    1
    24   108   107    2
    25    84    83   ar
    26    35    34    1
    27    63    64    1
    28   109   110    1
    29   109   106    1
    30    32    34   ar
    31    32    30   ar
    32   107   106    1
    33    81    83   ar
    34    66    64   am
    35    34    33   ar
    36   121   124    1
    37   121   120    1
    38   110   111    1
    39    64    65    2
    40   124   125    1
    41   106   105    1
    42    30    29   ar
    43    33    31   ar
    44   112   113    1
    45   115   114    2
    46   125   126   ar
    47   125   127   ar
    48   111   105    1
    49   114   113    1
    50   105   102   am
    51    29    31   ar
    52    29    28    1
    53   113   116    1
    54    85    86    1
    55    24    25    1
    56   102   103    2
    57   102   101    1
    58    28    25    1
    59   190   189   ar
    60   190   188   ar
    61   189   187   ar
    62    25    26    1
    63    86    87    1
    64    88    87    2
    65   116   117    1
    66     4     3    2
    67   119   117   am
    68    87    89   am
    69     3     2    1
    70   117   118    2
    71   101   100    1
    72   101   104    1
    73     7     9   ar
    74     7     6   ar
    75   188   186   ar
    76    92    91    2
    77   187   184   ar
    78   170   171    1
    79   100    91   am
    80    89    90    1
    81     9    10   ar
    82    91    90    1
    83    26    36   am
    84    26    27    2
    85     5     6    1
    86     5     2    1
    87    90    93    1
    88     6     8   ar
    89   186   184   ar
    90   186   185   ar
    91     2     1    1
    92    36    37    1
    93   184   182   ar
    94   171   172    1
    95   171   174    1
    96   172   173    2
    97    10     8   ar
    98   185   183   ar
    99    39    38    2
   100   148   147    1
   101   182   181    1
   102   182   183   ar
   103   145   146    1
   104   145   144    1
   105    40    37    1
   106    40    41    1
   107    37    38    1
   108    93    94    1
   109   147   146    2
   110   147   149    1
   111   181   178    1
   112   175   174    1
   113   174   176    1
   114   177   178    1
   115    38    48   am
   116    94    95    1
   117   144   143    1
   118   178   179    1
   119    41    43   ar
   120    41    42   ar
   121    48    49    1
   122    43    45   ar
   123    57    56    1
   124    42    44   ar
   125    95    96    1
   126   179   180    2
   127   179   191   am
   128   143   140    1
   129   169   168    1
   130    49    50    1
   131    49    52    1
   132    55    56    2
   133    55    54    1
   134    53    52    1
   135    53    54    1
   136    96    97    2
   137   128   129    1
   138    56    58    1
   139    45    46   ar
   140    22    21   ar
   141   168   165    1
   142    50    51    2
   143   191   197    1
   144   191   192    1
   145    44    46   ar
   146   197   196    1
   147   129   130    1
   148   129   132    1
   149    97    98    1
   150    97    99    1
   151   139   130   am
   152   139   140    1
   153   130   131    2
   154   165   166    1
   155   165   164    1
   156   140   141    1
   157    46    47    1
   158   167   166    2
   159    21    20    1
   160    21    23   ar
   161   193   192    1
   162   193   194    2
   163   192   195    1
   164   132   133    1
   165   196   195    1
   166    20    19    1
   167   141   142    2
   168   141   150   am
   169   133   134    1
   170   150   151    1
   171   153   152    2
   172    19    16    1
   173   135   134    1
   174   135   136    2
   175    17    18    2
   176    17    16    1
   177   160   159    2
   178   152   151    1
   179   152   157   am
   180   151   154    1
   181   138   136    1
   182    16    15    1
   183   136   137    1
   184   158   159    1
   185   158   157    1
   186   158   161    1
   187   157   163    1
   188   155   154    1
   189   163   162    1
   190   154   156    1
   191    14    13    2
   192    15    13   am
   193   161   162    1
   194    13    12    1
   195    12    11    1
