@<TRIPOS>MOLECULE
tmp/5j67C04.pdb
 75 72 0 0 0
SMALL
GASTEIGER

@<TRIPOS>ATOM
      1  N        -43.7850  104.3750    6.2200 N.3     1  LYS1       -0.1231
      2  CA       -44.2040  102.9650    5.9240 C.3     1  LYS1        0.1693
      3  C        -43.2060  102.2480    5.0140 C.2     1  LYS1        0.2592
      4  O        -42.3380  102.8790    4.4120 O.2     1  LYS1       -0.2718
      5  CB       -45.6060  102.9280    5.2920 C.3     1  LYS1        0.0285
      6  CG       -46.7110  103.4360    6.2050 C.3     1  LYS1        0.0035
      7  CD       -48.0590  103.4360    5.5020 C.3     1  LYS1        0.0206
      8  CE       -49.1180  104.1350    6.3400 C.3     1  LYS1        0.1093
      9  NZ       -50.4100  104.2620    5.6140 N.3     1  LYS1       -0.1314
     10  N        -43.3520  100.9280    4.9300 N.am    2  PHE2       -0.1962
     11  CA       -42.4920  100.0730    4.1070 C.3     2  PHE2        0.1771
     12  C        -43.0830   99.9270    2.7000 C.2     2  PHE2        0.2619
     13  O        -44.1730   99.3670    2.5380 O.2     2  PHE2       -0.2715
     14  CB       -42.3380   98.7000    4.7790 C.3     2  PHE2        0.0574
     15  CG       -41.5840   97.6870    3.9570 C.ar    2  PHE2       -0.0200
     16  CD1      -40.2600   97.9060    3.5930 C.ar    2  PHE2       -0.0042
     17  CD2      -42.1940   96.4960    3.5650 C.ar    2  PHE2       -0.0042
     18  CE1      -39.5650   96.9700    2.8430 C.ar    2  PHE2       -0.0003
     19  CE2      -41.5010   95.5580    2.8150 C.ar    2  PHE2       -0.0003
     20  CZ       -40.1850   95.7960    2.4530 C.ar    2  PHE2       -0.0000
     21  N        -42.3710  100.4400    1.6950 N.am    3  ASN3       -0.1972
     22  CA       -42.7760  100.3050    0.2890 C.3     3  ASN3        0.1688
     23  C        -42.4180   98.9210   -0.2480 C.2     3  ASN3        0.2292
     24  O        -41.2490   98.6750   -0.5640 O.2     3  ASN3       -0.2864
     25  CB       -42.0640  101.3470   -0.5800 C.3     3  ASN3        0.1181
     26  CG       -42.4800  102.7680   -0.2820 C.2     3  ASN3        0.2629
     27  OD1      -43.5610  103.0320    0.2510 O.2     3  ASN3       -0.2716
     28  ND2      -41.6050  103.7010   -0.6440 N.am    3  ASN3       -0.0877
     29  N        -34.0950  101.6660    1.8950 N.3    25  GLN25      -0.1245
     30  CA       -34.4810  101.7830    0.4880 C.3    25  GLN25       0.1566
     31  C        -33.4610  102.6060   -0.2830 C.2    25  GLN25       0.2260
     32  O        -33.3560  103.8140   -0.0920 O.2    25  GLN25      -0.2867
     33  CB       -35.8890  102.3540    0.3330 C.3    25  GLN25       0.0367
     34  CG       -36.4450  102.1390   -1.0740 C.3    25  GLN25       0.0905
     35  CD       -37.8720  102.6410   -1.2670 C.2    25  GLN25       0.2608
     36  OE1      -38.7060  102.5510   -0.3630 O.2    25  GLN25      -0.2717
     37  NE2      -38.1650  103.1470   -2.4620 N.am   25  GLN25      -0.0878
     38  N        -35.4080  104.5060   -5.8220 N.3    28  GLN28      -0.1231
     39  CA       -36.8360  104.8600   -5.7960 C.3    28  GLN28       0.1698
     40  C        -37.6510  103.9010   -6.6550 C.2    28  GLN28       0.2592
     41  O        -37.1870  103.4650   -7.7130 O.2    28  GLN28      -0.2718
     42  CB       -37.0700  106.3120   -6.2420 C.3    28  GLN28       0.0381
     43  CG       -36.8370  106.6040   -7.7220 C.3    28  GLN28       0.0905
     44  CD       -37.1220  108.0500   -8.0880 C.2    28  GLN28       0.2608
     45  OE1      -37.0730  108.9410   -7.2410 O.2    28  GLN28      -0.2717
     46  NE2      -37.4250  108.2890   -9.3630 N.am   28  GLN28      -0.0878
     47  N        -38.8580  103.5800   -6.1910 N.am   29  MET29      -0.1965
     48  CA       -39.8150  102.8160   -6.9870 C.3    29  MET29       0.1736
     49  C        -40.8870  103.7650   -7.5060 C.2    29  MET29       0.2617
     50  O        -41.5180  104.4960   -6.7360 O.2    29  MET29      -0.2715
     51  CB       -40.4320  101.6370   -6.2180 C.3    29  MET29       0.0427
     52  CG       -41.1560  101.9290   -4.9170 C.3    29  MET29       0.0599
     53  SD       -41.8170  100.3850   -4.2540 S.3    29  MET29      -0.1393
     54  CE       -43.3690  100.2820   -5.1390 C.3    29  MET29       0.0692
     55  N        -41.0470  103.7680   -8.8280 N.am   30  THR30      -0.1951
     56  CA       -42.0210  104.6030   -9.5210 C.3    30  THR30       0.1897
     57  C        -42.7500  103.7330  -10.5360 C.2    30  THR30       0.2313
     58  O        -42.3780  102.5750  -10.7490 O.2    30  THR30      -0.2863
     59  CB       -41.3270  105.7850  -10.2270 C.3    30  THR30       0.1794
     60  OG1      -40.2990  105.2960  -11.0960 O.3    30  THR30      -0.2208
     61  CG2      -40.7010  106.7290   -9.2090 C.3    30  THR30       0.0378
     62  N        -32.9970  106.8520   -4.3610 N.3   107  ALA107     -0.1231
     63  CA       -34.1720  107.1630   -3.5490 C.3   107  ALA107      0.1694
     64  C        -34.0540  108.5490   -2.9370 C.2   107  ALA107      0.2592
     65  O        -32.9540  109.0920   -2.8000 O.2   107  ALA107     -0.2718
     66  CB       -34.3610  106.1240   -2.4530 C.3   107  ALA107      0.0304
     67  N        -35.2020  109.1070   -2.5630 N.am  108  ALA108     -0.1966
     68  CA       -35.2590  110.4190   -1.9240 C.3   108  ALA108      0.1728
     69  C        -34.5770  110.3720   -0.5580 C.2   108  ALA108      0.2616
     70  O        -33.6000  111.0900   -0.3220 O.2   108  ALA108     -0.2715
     71  CB       -36.7040  110.8830   -1.7860 C.3   108  ALA108      0.0334
     72  N        -35.0860  109.5060    0.3170 N.am  109  GLY109     -0.1955
     73  CA       -34.5640  109.3470    1.6770 C.3   109  GLY109      0.1869
     74  C        -33.1160  108.8900    1.7570 C.2   109  GLY109      0.2309
     75  O        -32.4110  109.2470    2.6990 O.2   109  GLY109     -0.2863
@<TRIPOS>BOND
     1    60    59    1
     2    58    57    2
     3    57    56    1
     4    59    56    1
     5    59    61    1
     6    56    55    1
     7    46    44   am
     8    55    49   am
     9    44    43    1
    10    44    45    2
    11    43    42    1
    12    41    40    2
    13    49    48    1
    14    49    50    2
    15    48    51    1
    16    48    47    1
    17    40    47   am
    18    40    39    1
    19    42    39    1
    20    51    52    1
    21    38    39    1
    22    54    53    1
    23    52    53    1
    24    62    63    1
    25    63    64    1
    26    63    66    1
    27    64    65    2
    28    64    67   am
    29    67    68    1
    30    37    35   am
    31    68    71    1
    32    68    69    1
    33    35    34    1
    34    35    36    2
    35    34    33    1
    36    28    26   am
    37    25    26    1
    38    25    22    1
    39    24    23    2
    40    69    70    2
    41    69    72   am
    42    31    32    2
    43    31    30    1
    44    26    27    2
    45    23    22    1
    46    22    21    1
    47    72    73    1
    48    33    30    1
    49    30    29    1
    50    73    74    1
    51    21    12   am
    52    74    75    2
    53    20    19   ar
    54    20    18   ar
    55    13    12    2
    56    12    11    1
    57    19    17   ar
    58    18    16   ar
    59    17    15   ar
    60    16    15   ar
    61    15    14    1
    62    11    14    1
    63    11    10    1
    64     4     3    2
    65    10     3   am
    66     3     2    1
    67     5     2    1
    68     5     6    1
    69     7     6    1
    70     7     8    1
    71     9     8    1
    72     2     1    1
