@<TRIPOS>MOLECULE
tmp/5j6aA00.pdb
 146 132 0 0 0
SMALL
GASTEIGER

@<TRIPOS>ATOM
      1  N        -53.7710   15.6810    9.4510 N.3   230  LEU230     -0.1245
      2  CA       -54.3510   14.4930   10.0700 C.3   230  LEU230      0.1561
      3  C        -54.9860   14.8270   11.4200 C.2   230  LEU230      0.2260
      4  O        -56.0890   14.3740   11.7100 O.2   230  LEU230     -0.2867
      5  CB       -53.2990   13.4020   10.2280 C.3   230  LEU230      0.0270
      6  CG       -52.8570   12.7980    8.8820 C.3   230  LEU230      0.0019
      7  CD1      -51.8060   11.7390    9.1680 C.3   230  LEU230      0.0001
      8  CD2      -54.0420   12.2420    8.0880 C.3   230  LEU230      0.0001
      9  N        -58.5110   16.3960   11.0420 N.3   233  ASN233     -0.1225
     10  CA       -59.5710   15.4220   10.7800 C.3   233  ASN233      0.1785
     11  C        -59.8730   14.5960   12.0230 C.2   233  ASN233      0.2597
     12  O        -61.0380   14.3780   12.3650 O.2   233  ASN233     -0.2718
     13  CB       -59.1830   14.5010    9.6170 C.3   233  ASN233      0.1169
     14  CG       -59.2170   15.2220    8.2830 C.2   233  ASN233      0.2627
     15  OD1      -60.2840   15.4590    7.7290 O.2   233  ASN233     -0.2716
     16  ND2      -58.0550   15.5800    7.7720 N.am  233  ASN233     -0.0877
     17  N        -58.8300   14.1170   12.7090 N.am  234  ALA234     -0.1979
     18  CA       -59.0590   13.2580   13.8710 C.3   234  ALA234      0.1597
     19  C        -59.7600   14.0260   14.9940 C.2   234  ALA234      0.2287
     20  O        -60.5780   13.4620   15.7320 O.2   234  ALA234     -0.2864
     21  CB       -57.7330   12.6890   14.3650 C.3   234  ALA234      0.0319
     22  N        -61.7860   16.8280   14.6380 N.3   236  ARG236     -0.1231
     23  CA       -63.1480   17.0860   14.1910 C.3   236  ARG236      0.1694
     24  C        -64.0130   15.8330   14.3190 C.2   236  ARG236      0.2591
     25  O        -65.1580   15.8950   14.7830 O.2   236  ARG236     -0.2718
     26  CB       -63.1020   17.5850   12.7440 C.3   236  ARG236      0.0321
     27  CG       -64.3980   18.1030   12.1920 C.3   236  ARG236      0.0489
     28  CD       -64.1420   18.9700   10.9590 C.3   236  ARG236      0.2205
     29  NE       -64.5110   18.2840    9.7260 N.pl3 236  ARG236     -0.0865
     30  CZ       -65.7560   18.2040    9.2710 C.cat 236  ARG236      0.5346
     31  NH1      -66.7400   18.7670    9.9600 N.pl3 236  ARG236      0.1354
     32  NH2      -66.0190   17.5540    8.1390 N.pl3 236  ARG236      0.1354
     33  N        -63.4830   14.6820   13.8950 N.am  237  ALA237     -0.1980
     34  CA       -64.2150   13.4300   14.0730 C.3   237  ALA237      0.1597
     35  C        -64.4740   13.1580   15.5510 C.2   237  ALA237      0.2287
     36  O        -65.5840   12.7760   15.9420 O.2   237  ALA237     -0.2864
     37  CB       -63.4390   12.2650   13.4600 C.3   237  ALA237      0.0319
     38  N        -67.0430   15.9530   17.0980 N.3   240  GLU240     -0.1231
     39  CA       -68.4010   15.9220   16.5760 C.3   240  GLU240      0.1699
     40  C        -69.1040   14.5890   16.8170 C.2   240  GLU240      0.2592
     41  O        -70.3400   14.5530   16.8340 O.2   240  GLU240     -0.2718
     42  CB       -68.4040   16.2560   15.0890 C.3   240  GLU240      0.0402
     43  CG       -67.8780   17.6380   14.7460 C.3   240  GLU240      0.1161
     44  CD       -68.1030   17.9770   13.2770 C.2   240  GLU240      0.3649
     45  OE1      -68.7730   17.1800   12.5830 O.co2 240  GLU240     -0.2457
     46  OE2      -67.6090   19.0300   12.8200 O.co2 240  GLU240     -0.2457
     47  N        -68.3680   13.4930   17.0020 N.am  241  SER241     -0.1952
     48  CA       -69.0610   12.2410   17.2660 C.3   241  SER241      0.1924
     49  C        -69.3400   12.0320   18.7450 C.2   241  SER241      0.2314
     50  O        -69.9750   11.0360   19.1010 O.2   241  SER241     -0.2863
     51  CB       -68.2570   11.0430   16.7410 C.3   241  SER241      0.2116
     52  OG       -67.0380   10.9390   17.4440 O.3   241  SER241     -0.2180
     53  N        -70.7320   14.5330   20.8870 N.3   243  GLU243     -0.1231
     54  CA       -71.4540   15.7040   21.3730 C.3   243  GLU243      0.1699
     55  C        -72.4310   15.3340   22.4810 C.2   243  GLU243      0.2592
     56  O        -72.5340   16.0450   23.4850 O.2   243  GLU243     -0.2718
     57  CB       -72.1730   16.3850   20.2140 C.3   243  GLU243      0.0402
     58  CG       -71.2400   17.1430   19.2850 C.3   243  GLU243      0.1161
     59  CD       -71.9120   17.4780   17.9740 C.2   243  GLU243      0.3649
     60  OE1      -71.2510   18.0750   17.0940 O.co2 243  GLU243     -0.2457
     61  OE2      -73.1070   17.1340   17.8200 O.co2 243  GLU243     -0.2457
     62  N        -73.1460   14.2230   22.3200 N.am  244  SER244     -0.1952
     63  CA       -74.0550   13.7210   23.3440 C.3   244  SER244      0.1924
     64  C        -73.3240   12.9870   24.4520 C.2   244  SER244      0.2314
     65  O        -73.9660   12.4510   25.3590 O.2   244  SER244     -0.2863
     66  CB       -75.0920   12.7940   22.7130 C.3   244  SER244      0.2116
     67  OG       -75.8030   13.4770   21.6960 O.3   244  SER244     -0.2180
     68  N        -51.7330    7.7010   13.5570 N.3   266  MET266     -0.1245
     69  CA       -52.6500    8.4810   14.3780 C.3   266  MET266      0.1570
     70  C        -53.9930    7.7560   14.4350 C.2   266  MET266      0.2261
     71  O        -54.6140    7.5170   13.3920 O.2   266  MET266     -0.2867
     72  CB       -52.8070    9.8920   13.8080 C.3   266  MET266      0.0387
     73  CG       -53.6390   10.7900   14.6710 C.3   266  MET266      0.0595
     74  SD       -53.8590   12.4080   13.9110 S.3   266  MET266     -0.1393
     75  CE       -52.1650   12.9140   13.5560 C.3   266  MET266      0.0692
     76  N        -57.8520    7.6160   16.1220 N.3   268  ASP268     -0.1239
     77  CA       -58.9150    8.3320   16.8080 C.3   268  ASP268      0.1674
     78  C        -60.0950    7.3950   17.0100 C.2   268  ASP268      0.2266
     79  O        -60.1820    6.3270   16.3970 O.2   268  ASP268     -0.2867
     80  CB       -59.3570    9.5900   16.0400 C.3   268  ASP268      0.1410
     81  CG       -60.0320    9.2840   14.6780 C.2   268  ASP268      0.3668
     82  OD1      -61.1100    8.6220   14.6550 O.co2 268  ASP268     -0.2456
     83  OD2      -59.5100    9.7650   13.6300 O.co2 268  ASP268     -0.2456
     84  N        -63.2240    8.6830   16.4960 N.3   270  GLY270     -0.1210
     85  CA       -64.1970    9.5840   15.9290 C.3   270  GLY270      0.1956
     86  C        -65.3720    8.9250   15.2460 C.2   270  GLY270      0.2612
     87  O        -66.1260    9.6130   14.5630 O.2   270  GLY270     -0.2717
     88  N        -65.5700    7.6170   15.3950 N.am  271  GLY271     -0.1942
     89  CA       -66.7030    6.9730   14.7720 C.3   271  GLY271      0.2014
     90  C        -66.4260    6.3890   13.3980 C.2   271  GLY271      0.2639
     91  O        -67.2110    5.5680   12.9150 O.2   271  GLY271     -0.2714
     92  N        -65.3360    6.7890   12.7610 N.am  272  GLY272     -0.1939
     93  CA       -64.9190    6.1380   11.5340 C.3   272  GLY272      0.2014
     94  C        -65.8140    6.4290   10.3390 C.2   272  GLY272      0.2638
     95  O        -66.7100    7.2620   10.3690 O.2   272  GLY272     -0.2714
     96  N        -65.5530    5.6860    9.2700 N.am  273  VAL273     -0.1977
     97  CA       -66.2330    5.8680    7.9900 C.3   273  VAL273      0.1596
     98  C        -66.3160    4.5220    7.2630 C.2   273  VAL273      0.2287
     99  O        -65.3740    3.7220    7.3410 O.2   273  VAL273     -0.2864
    100  CB       -65.4950    6.9390    7.1600 C.3   273  VAL273      0.0276
    101  CG1      -64.0000    6.7640    7.3060 C.3   273  VAL273      0.0022
    102  CG2      -65.8810    6.8730    5.7200 C.3   273  VAL273      0.0022
    103  N        -63.7190    5.7200    1.8890 N.3   278  ILE278     -0.1245
    104  CA       -62.3370    6.1180    2.1750 C.3   278  ILE278      0.1561
    105  C        -61.6760    6.7100    0.9380 C.2   278  ILE278      0.2260
    106  O        -61.0150    7.7550    1.0020 O.2   278  ILE278     -0.2867
    107  CB       -61.5210    4.9280    2.7060 C.3   278  ILE278      0.0252
    108  CG1      -61.9300    4.6150    4.1400 C.3   278  ILE278      0.0019
    109  CG2      -60.0380    5.2560    2.6350 C.3   278  ILE278      0.0019
    110  CD1      -61.1410    5.3970    5.1360 C.3   278  ILE278      0.0001
    111  N        -61.9520   10.4330    0.0120 N.3   281  LEU281     -0.1245
    112  CA       -61.2040   11.3970    0.8100 C.3   281  LEU281      0.1561
    113  C        -59.9240   11.8230    0.1080 C.2   281  LEU281      0.2260
    114  O        -59.4380   12.9340    0.3340 O.2   281  LEU281     -0.2867
    115  CB       -60.8850   10.8220    2.1970 C.3   281  LEU281      0.0270
    116  CG       -62.0990   10.5330    3.0920 C.3   281  LEU281      0.0019
    117  CD1      -61.6410   10.0210    4.4420 C.3   281  LEU281      0.0001
    118  CD2      -62.9120   11.7790    3.2780 C.3   281  LEU281      0.0001
    119  N        -56.0520   16.2740    2.4770 N.3   294  LEU294     -0.1245
    120  CA       -55.5900   14.8900    2.4230 C.3   294  LEU294      0.1561
    121  C        -54.9180   14.5240    1.1010 C.2   294  LEU294      0.2260
    122  O        -53.8640   13.8640    1.1350 O.2   294  LEU294     -0.2867
    123  CB       -56.7530   13.9450    2.7280 C.3   294  LEU294      0.0270
    124  CG       -57.1740   13.9540    4.2020 C.3   294  LEU294      0.0019
    125  CD1      -58.4300   13.1320    4.3930 C.3   294  LEU294      0.0001
    126  CD2      -56.0300   13.4180    5.0650 C.3   294  LEU294      0.0001
    127  N        -55.1670    5.5300    4.9690 N.3   310  LEU310     -0.1245
    128  CA       -56.2230    5.5860    5.9670 C.3   310  LEU310      0.1561
    129  C        -56.8940    4.2280    6.0290 C.2   310  LEU310      0.2260
    130  O        -57.1360    3.6150    4.9900 O.2   310  LEU310     -0.2867
    131  CB       -57.3010    6.6300    5.6270 C.3   310  LEU310      0.0270
    132  CG       -56.9260    8.0940    5.4810 C.3   310  LEU310      0.0019
    133  CD1      -58.2020    8.9050    5.1340 C.3   310  LEU310      0.0001
    134  CD2      -56.2670    8.6010    6.7510 C.3   310  LEU310      0.0001
    135  N        -60.6990    5.6710   13.2460 N.3   318  THR318     -0.1218
    136  CA       -59.8620    5.6500   12.0540 C.3   318  THR318      0.1862
    137  C        -58.4000    5.7130   12.4470 C.2   318  THR318      0.2287
    138  O        -58.0320    6.4200   13.3930 O.2   318  THR318     -0.2866
    139  CB       -60.2290    6.8240   11.1390 C.3   318  THR318      0.1770
    140  OG1      -61.5790    6.6520   10.6760 O.3   318  THR318     -0.2211
    141  CG2      -59.2640    6.9720    9.9620 C.3   318  THR318      0.0375
    142  N        -54.7270    6.6400   10.7690 N.3   320  ALA320     -0.1245
    143  CA       -54.0230    7.2810    9.6640 C.3   320  ALA320      0.1562
    144  C        -52.5520    6.9530    9.8340 C.2   320  ALA320      0.2260
    145  O        -52.0210    7.0680   10.9380 O.2   320  ALA320     -0.2867
    146  CB       -54.2600    8.7980    9.6620 C.3   320  ALA320      0.0290
@<TRIPOS>BOND
     1   111   112    1
     2   113   114    2
     3   113   112    1
     4   112   115    1
     5   105   106    2
     6   105   104    1
     7   121   122    2
     8   121   120    1
     9   103   104    1
    10   104   107    1
    11   115   116    1
    12   120   119    1
    13   120   123    1
    14   109   107    1
    15   107   108    1
    16   123   124    1
    17   116   118    1
    18   116   117    1
    19   108   110    1
    20   124   125    1
    21   124   126    1
    22   127   128    1
    23   130   129    2
    24   133   132    1
    25   132   131    1
    26   132   134    1
    27   131   128    1
    28   102   100    1
    29   128   129    1
    30   100   101    1
    31   100    97    1
    32    98    99    2
    33    98    97    1
    34    15    14    2
    35    16    14   am
    36    97    96    1
    37     8     6    1
    38    32    30    1
    39    14    13    1
    40     6     7    1
    41     6     5    1
    42    96    94   am
    43    30    29    2
    44    30    31    1
    45     1     2    1
    46    13    10    1
    47   146   143    1
    48   143   144    1
    49   143   142    1
    50    29    28    1
    51   144   145    2
    52   141   139    1
    53     2     5    1
    54     2     3    1
    55    94    95    2
    56    94    93    1
    57   140   139    1
    58    10     9    1
    59    10    11    1
    60    28    27    1
    61   139   136    1
    62     3     4    2
    63    93    92    1
    64    11    12    2
    65    11    17   am
    66   136   137    1
    67   136   135    1
    68    27    26    1
    69   137   138    2
    70    45    44   ar
    71    17    18    1
    72    26    23    1
    73    92    90   am
    74    46    44   ar
    75    91    90    2
    76    44    43    1
    77    71    70    2
    78    90    89    1
    79    37    34    1
    80    75    74    1
    81    68    69    1
    82    83    81   ar
    83    72    69    1
    84    72    73    1
    85    18    21    1
    86    18    19    1
    87    33    34    1
    88    33    24   am
    89    74    73    1
    90    34    35    1
    91    23    24    1
    92    23    22    1
    93    24    25    2
    94    69    70    1
    95    87    86    2
    96    82    81   ar
    97    81    80    1
    98    43    42    1
    99    89    88    1
   100    19    20    2
   101    42    39    1
   102    86    88   am
   103    86    85    1
   104    35    36    2
   105    85    84    1
   106    80    77    1
   107    76    77    1
   108    79    78    2
   109    39    40    1
   110    39    38    1
   111    51    48    1
   112    51    52    1
   113    77    78    1
   114    40    41    2
   115    40    47   am
   116    47    48    1
   117    60    59   ar
   118    48    49    1
   119    61    59   ar
   120    59    58    1
   121    49    50    2
   122    58    57    1
   123    57    54    1
   124    53    54    1
   125    54    55    1
   126    67    66    1
   127    62    55   am
   128    62    63    1
   129    55    56    2
   130    66    63    1
   131    63    64    1
   132    64    65    2
