@<TRIPOS>MOLECULE
tmp/5j6cA01.pdb
 72 68 0 0 0
SMALL
GASTEIGER

@<TRIPOS>ATOM
      1  N         24.3670  151.0380   22.2020 N.3    33  LEU33      -0.1245
      2  CA        24.6620  150.6760   20.8180 C.3    33  LEU33       0.1561
      3  C         24.0670  151.6630   19.8210 C.2    33  LEU33       0.2260
      4  O         24.1210  151.4230   18.6090 O.2    33  LEU33      -0.2867
      5  CB        24.1470  149.2640   20.5230 C.3    33  LEU33       0.0270
      6  CG        24.9220  148.1050   21.1470 C.3    33  LEU33       0.0019
      7  CD1       24.0420  146.8680   21.1920 C.3    33  LEU33       0.0001
      8  CD2       26.1860  147.8210   20.3440 C.3    33  LEU33       0.0001
      9  N         23.4370  154.6230   17.2540 N.3    35  PRO35      -0.2102
     10  CA        24.2890  155.4530   16.4000 C.3    35  PRO35       0.1504
     11  C         24.2140  156.9050   16.8480 C.2    35  PRO35       0.2576
     12  O         23.1520  157.3990   17.2370 O.2    35  PRO35      -0.2718
     13  CB        23.6860  155.2620   15.0040 C.3    35  PRO35       0.0282
     14  CG        22.2550  155.0190   15.2570 C.3    35  PRO35       0.0208
     15  CD        22.1950  154.2280   16.5660 C.3    35  PRO35       0.0893
     16  N         25.3550  157.5850   16.7990 N.am   36  SER36      -0.1938
     17  CA        25.4360  158.9840   17.1920 C.3    36  SER36       0.2055
     18  C         26.2180  159.7640   16.1430 C.2    36  SER36       0.2644
     19  O         27.0510  159.2090   15.4290 O.2    36  SER36      -0.2714
     20  CB        26.0790  159.1350   18.5870 C.3    36  SER36       0.2130
     21  OG        27.3950  158.6230   18.5940 O.3    36  SER36      -0.2179
     22  N         25.9190  161.0540   16.0310 N.am   37  SER37      -0.1935
     23  CA        26.6560  161.9120   15.1110 C.3    37  SER37       0.2055
     24  C         28.1510  161.8360   15.3960 C.2    37  SER37       0.2643
     25  O         28.5770  161.9470   16.5460 O.2    37  SER37      -0.2714
     26  CB        26.1610  163.3470   15.2400 C.3    37  SER37       0.2130
     27  OG        26.9540  164.2350   14.4730 O.3    37  SER37      -0.2179
     28  N         28.9460  161.6010   14.3480 N.am   38  LYS38      -0.1963
     29  CA        30.4070  161.5050   14.4450 C.3    38  LYS38       0.1728
     30  C         30.8760  160.4140   15.4020 C.2    38  LYS38       0.2616
     31  O         32.0080  160.4680   15.9020 O.2    38  LYS38      -0.2715
     32  CB        31.0270  162.8380   14.8670 C.3    38  LYS38       0.0311
     33  CG        30.6620  164.0140   13.9930 C.3    38  LYS38       0.0038
     34  CD        31.3270  165.2970   14.5050 C.3    38  LYS38       0.0206
     35  CE        30.7630  166.5200   13.7900 C.3    38  LYS38       0.1093
     36  NZ        30.6630  166.3030   12.3040 N.3    38  LYS38      -0.1314
     37  N         30.0310  159.4290   15.6880 N.am   39  GLY39      -0.1955
     38  CA        30.3380  158.4320   16.7030 C.3    39  GLY39       0.1869
     39  C         30.6180  158.9960   18.0870 C.2    39  GLY39       0.2309
     40  O         31.1250  158.2780   18.9550 O.2    39  GLY39      -0.2863
     41  N         23.9450  168.5050   17.6040 N.3    87  VAL87      -0.1245
     42  CA        22.8800  167.5750   17.2520 C.3    87  VAL87       0.1561
     43  C         22.7750  166.5200   18.3470 C.2    87  VAL87       0.2260
     44  O         22.4160  165.3660   18.0820 O.2    87  VAL87      -0.2867
     45  CB        23.1170  166.9590   15.8550 C.3    87  VAL87       0.0252
     46  CG1       22.9170  168.0290   14.7710 C.3    87  VAL87       0.0019
     47  CG2       24.5110  166.4010   15.7400 C.3    87  VAL87       0.0019
     48  N         19.3060  164.9780   18.4500 N.3    90  GLU90      -0.1231
     49  CA        19.1620  163.7840   17.6340 C.3    90  GLU90       0.1699
     50  C         19.7560  162.5720   18.3370 C.2    90  GLU90       0.2592
     51  O         19.0940  161.5350   18.4670 O.2    90  GLU90      -0.2718
     52  CB        19.8370  164.0090   16.2820 C.3    90  GLU90       0.0402
     53  CG        19.0560  164.9000   15.3240 C.3    90  GLU90       0.1161
     54  CD        19.2330  166.4040   15.5540 C.2    90  GLU90       0.3649
     55  OE1       19.7060  166.8300   16.6380 O.co2  90  GLU90      -0.2457
     56  OE2       18.8820  167.1660   14.6250 O.co2  90  GLU90      -0.2457
     57  N         21.0160  162.6840   18.7790 N.am   91  ASP91      -0.1974
     58  CA        21.6870  161.5840   19.4660 C.3    91  ASP91       0.1709
     59  C         20.8190  161.0450   20.5880 C.2    91  ASP91       0.2293
     60  O         20.5570  159.8380   20.6690 O.2    91  ASP91      -0.2864
     61  CB        23.0340  162.0420   20.0470 C.3    91  ASP91       0.1436
     62  CG        24.1120  162.2360   18.9950 C.2    91  ASP91       0.3671
     63  OD1       23.8950  161.8360   17.8320 O.co2  91  ASP91      -0.2456
     64  OD2       25.1890  162.7810   19.3500 O.co2  91  ASP91      -0.2456
     65  N         17.5960  159.1970   19.5020 N.3    94  ILE94      -0.1245
     66  CA        17.8040  157.8560   18.9710 C.3    94  ILE94       0.1561
     67  C         18.0330  156.8680   20.0990 C.2    94  ILE94       0.2260
     68  O         17.4840  155.7590   20.0920 O.2    94  ILE94      -0.2867
     69  CB        18.9780  157.8480   17.9850 C.3    94  ILE94       0.0252
     70  CG1       18.6390  158.6840   16.7530 C.3    94  ILE94       0.0019
     71  CG2       19.3520  156.4090   17.6290 C.3    94  ILE94       0.0019
     72  CD1       19.8590  159.1970   16.0510 C.3    94  ILE94       0.0001
@<TRIPOS>BOND
     1    36    35    1
     2    35    34    1
     3    33    34    1
     4    33    32    1
     5    28    29    1
     6    28    24   am
     7    29    32    1
     8    29    30    1
     9    27    26    1
    10    56    54   ar
    11    46    45    1
    12    13    14    1
    13    13    10    1
    14    23    26    1
    15    23    24    1
    16    23    22    1
    17    14    15    1
    18    53    54    1
    19    53    52    1
    20    24    25    2
    21    30    37   am
    22    30    31    2
    23    19    18    2
    24    54    55   ar
    25    37    38    1
    26    47    45    1
    27    45    42    1
    28    22    18   am
    29    72    70    1
    30    18    17    1
    31    52    49    1
    32    10    11    1
    33    10     9    1
    34    15     9    1
    35    38    39    1
    36    70    69    1
    37    16    11   am
    38    16    17    1
    39    11    12    2
    40    17    20    1
    41    42    41    1
    42    42    43    1
    43    71    69    1
    44    49    50    1
    45    49    48    1
    46    63    62   ar
    47    69    66    1
    48    44    43    2
    49    39    40    2
    50    50    51    2
    51    50    57   am
    52    20    21    1
    53     4     3    2
    54    57    58    1
    55    66    65    1
    56    66    67    1
    57    62    64   ar
    58    62    61    1
    59    58    61    1
    60    58    59    1
    61     3     2    1
    62    68    67    2
    63     8     6    1
    64     5     2    1
    65     5     6    1
    66    59    60    2
    67     2     1    1
    68     6     7    1
