@<TRIPOS>MOLECULE
tmp/5j6cA00.pdb
 132 127 0 0 0
SMALL
GASTEIGER

@<TRIPOS>ATOM
      1  N          3.4680  148.2470   19.9020 N.3     8  ARG8       -0.1231
      2  CA         4.1180  149.2010   20.8010 C.3     8  ARG8        0.1694
      3  C          3.1780  150.3740   21.0650 C.2     8  ARG8        0.2592
      4  O          2.8850  151.1550   20.1530 O.2     8  ARG8       -0.2718
      5  CB         5.4340  149.7070   20.2090 C.3     8  ARG8        0.0321
      6  CG         6.1760  150.6360   21.1630 C.3     8  ARG8        0.0489
      7  CD         6.8450  151.8420   20.4740 C.3     8  ARG8        0.2205
      8  NE         5.9000  152.5710   19.6330 N.pl3   8  ARG8       -0.0865
      9  CZ         5.0310  153.4800   20.0700 C.cat   8  ARG8        0.5346
     10  NH1        4.9810  153.8160   21.3570 N.pl3   8  ARG8        0.1354
     11  NH2        4.2010  154.0510   19.2010 N.pl3   8  ARG8        0.1354
     12  N          2.7130  150.5000   22.3110 N.am    9  ARG9       -0.1966
     13  CA         1.8610  151.5970   22.7660 C.3     9  ARG9        0.1729
     14  C          2.4490  152.1790   24.0440 C.2     9  ARG9        0.2616
     15  O          2.9830  151.4400   24.8730 O.2     9  ARG9       -0.2715
     16  CB         0.4240  151.1400   23.0420 C.3     9  ARG9        0.0348
     17  CG        -0.2760  150.4770   21.8620 C.3     9  ARG9        0.0492
     18  CD        -0.4750  151.4680   20.7150 C.3     9  ARG9        0.2205
     19  NE        -0.8060  152.7990   21.2200 N.pl3   9  ARG9       -0.0865
     20  CZ        -2.0210  153.1720   21.6110 C.cat   9  ARG9        0.5346
     21  NH1       -3.0360  152.3180   21.5460 N.pl3   9  ARG9        0.1354
     22  NH2       -2.2230  154.4040   22.0680 N.pl3   9  ARG9        0.1354
     23  N          2.3490  153.4970   24.2060 N.am   10  SER10      -0.1950
     24  CA         2.8730  154.1320   25.4120 C.3    10  SER10       0.1924
     25  C          2.0580  153.7230   26.6350 C.2    10  SER10       0.2314
     26  O          0.8260  153.7200   26.6170 O.2    10  SER10      -0.2863
     27  CB         2.8780  155.6590   25.2750 C.3    10  SER10       0.2116
     28  OG         3.7850  156.0770   24.2710 O.3    10  SER10      -0.2180
     29  N          1.3850  154.2750   30.7640 N.3    12  ARG12      -0.1245
     30  CA         1.5090  155.2140   31.8670 C.3    12  ARG12       0.1563
     31  C          0.9200  154.6650   33.1610 C.2    12  ARG12       0.2260
     32  O          0.8360  155.4030   34.1500 O.2    12  ARG12      -0.2867
     33  CB         0.8420  156.5440   31.4990 C.3    12  ARG12       0.0307
     34  CG         1.2600  157.1130   30.1150 C.3    12  ARG12       0.0489
     35  CD         0.5840  158.4650   29.7940 C.3    12  ARG12       0.2205
     36  NE         1.0670  159.0210   28.5290 N.pl3  12  ARG12      -0.0865
     37  CZ         0.7070  158.5750   27.3280 C.cat  12  ARG12       0.5346
     38  NH1       -0.1490  157.5650   27.2250 N.pl3  12  ARG12       0.1354
     39  NH2        1.1920  159.1360   26.2280 N.pl3  12  ARG12       0.1354
     40  N          7.3490  168.7340   35.3760 N.3    61  ARG61      -0.1245
     41  CA         6.4680  169.6530   34.6690 C.3    61  ARG61       0.1563
     42  C          5.2110  169.7570   35.5300 C.2    61  ARG61       0.2260
     43  O          4.3660  168.8510   35.5310 O.2    61  ARG61      -0.2867
     44  CB         6.1910  169.1530   33.2590 C.3    61  ARG61       0.0307
     45  CG         7.4610  169.1430   32.4030 C.3    61  ARG61       0.0489
     46  CD         7.3210  168.2770   31.1540 C.3    61  ARG61       0.2205
     47  NE         6.1950  168.6870   30.3310 N.pl3  61  ARG61      -0.0865
     48  CZ         5.7100  167.9620   29.3340 C.cat  61  ARG61       0.5346
     49  NH1        6.2540  166.7870   29.0470 N.pl3  61  ARG61       0.1354
     50  NH2        4.6770  168.3950   28.6400 N.pl3  61  ARG61       0.1354
     51  N          2.5600  165.9880   32.3070 N.3    65  GLY65      -0.1225
     52  CA         3.5170  165.4420   31.3680 C.3    65  GLY65       0.1811
     53  C          4.1700  164.1830   31.8940 C.2    65  GLY65       0.2280
     54  O          4.3360  163.1970   31.1620 O.2    65  GLY65      -0.2866
     55  N          2.6080  160.5270   36.0230 N.3    68  PHE68      -0.1241
     56  CA         2.5170  159.0790   36.2190 C.3    68  PHE68       0.1605
     57  C          3.8470  158.4770   36.6480 C.2    68  PHE68       0.2264
     58  O          3.8830  157.3370   37.1320 O.2    68  PHE68      -0.2867
     59  CB         2.0270  158.4020   34.9370 C.3    68  PHE68       0.0534
     60  CG         2.8980  158.6830   33.7410 C.ar   68  PHE68      -0.0203
     61  CD1        3.9420  157.8230   33.4070 C.ar   68  PHE68      -0.0042
     62  CD2        2.6820  159.8080   32.9620 C.ar   68  PHE68      -0.0042
     63  CE1        4.7530  158.0810   32.3030 C.ar   68  PHE68      -0.0003
     64  CE2        3.4900  160.0840   31.8580 C.ar   68  PHE68      -0.0003
     65  CZ         4.5260  159.2170   31.5250 C.ar   68  PHE68      -0.0000
     66  N         13.1710  152.3850   24.3690 N.3   100  GLN100     -0.1245
     67  CA        11.7600  152.0180   24.3070 C.3   100  GLN100      0.1566
     68  C         11.5360  150.7410   23.5040 C.2   100  GLN100      0.2260
     69  O         10.6850  149.9230   23.8700 O.2   100  GLN100     -0.2867
     70  CB        10.9550  153.1730   23.7280 C.3   100  GLN100      0.0367
     71  CG        10.9390  154.3940   24.6480 C.3   100  GLN100      0.0905
     72  CD         9.7960  155.3400   24.3230 C.2   100  GLN100      0.2608
     73  OE1        9.9280  156.2270   23.4730 O.2   100  GLN100     -0.2717
     74  NE2        8.6470  155.1300   24.9770 N.am  100  GLN100     -0.0878
     75  N          6.9940  154.9760   28.4880 N.3   111  CYS111     -0.1221
     76  CA         6.4550  156.2320   27.9950 C.3   111  CYS111      0.1808
     77  C          7.5350  157.2990   28.0400 C.2   111  CYS111      0.2601
     78  O          8.2590  157.4220   29.0340 O.2   111  CYS111     -0.2717
     79  CB         5.2430  156.6900   28.8050 C.3   111  CYS111      0.0970
     80  SG         4.3890  158.0120   27.9180 S.3   111  CYS111     -0.0800
     81  N          7.6400  158.0520   26.9560 N.am  112  TRP112     -0.1962
     82  CA         8.5790  159.1560   26.8630 C.3   112  TRP112      0.1771
     83  C          7.9930  160.3610   27.5890 C.2   112  TRP112      0.2619
     84  O          6.8190  160.6960   27.4070 O.2   112  TRP112     -0.2715
     85  CB         8.8370  159.4500   25.3810 C.3   112  TRP112      0.0590
     86  CG         9.7100  160.6140   24.9620 C.ar  112  TRP112      0.0006
     87  CD1        9.5920  161.9230   25.3390 C.ar  112  TRP112      0.0946
     88  CD2       10.7860  160.5700   23.9970 C.ar  112  TRP112      0.0152
     89  NE1       10.5380  162.6890   24.6830 N.ar  112  TRP112     -0.2442
     90  CE2       11.2860  161.8800   23.8660 C.ar  112  TRP112      0.0810
     91  CE3       11.3840  159.5400   23.2560 C.ar  112  TRP112      0.0012
     92  CZ2       12.3530  162.1970   23.0140 C.ar  112  TRP112      0.0191
     93  CZ3       12.4440  159.8510   22.4110 C.ar  112  TRP112      0.0001
     94  CH2       12.9200  161.1730   22.3010 C.ar  112  TRP112      0.0015
     95  N          8.7950  160.9970   28.4310 N.am  113  ILE113     -0.1963
     96  CA         8.4100  162.2300   29.1060 C.3   113  ILE113      0.1727
     97  C          9.3100  163.3310   28.5590 C.2   113  ILE113      0.2616
     98  O         10.5190  163.3310   28.8200 O.2   113  ILE113     -0.2715
     99  CB         8.5360  162.1070   30.6310 C.3   113  ILE113      0.0290
    100  CG1        7.6190  160.9960   31.1440 C.3   113  ILE113      0.0022
    101  CG2        8.2180  163.4410   31.3110 C.3   113  ILE113      0.0023
    102  CD1        7.8130  160.7000   32.5920 C.3   113  ILE113      0.0001
    103  N          8.7320  164.2550   27.7850 N.am  114  GLN114     -0.1977
    104  CA         9.5120  165.3150   27.1550 C.3   114  GLN114      0.1601
    105  C         10.0460  166.2890   28.2040 C.2   114  GLN114      0.2287
    106  O          9.2950  166.7500   29.0650 O.2   114  GLN114     -0.2864
    107  CB         8.6450  166.0550   26.1370 C.3   114  GLN114      0.0394
    108  CG         9.3690  167.1060   25.3260 C.3   114  GLN114      0.0908
    109  CD        10.4880  166.5300   24.4580 C.2   114  GLN114      0.2608
    110  OE1       10.4190  165.3830   24.0220 O.2   114  GLN114     -0.2717
    111  NE2       11.5230  167.3320   24.2050 N.am  114  GLN114     -0.0878
    112  N         -4.0420  148.4170   25.8620 N.3   155  LYS155     -0.1245
    113  CA        -3.8680  149.3800   24.7860 C.3   155  LYS155      0.1561
    114  C         -4.0250  148.6670   23.4570 C.2   155  LYS155      0.2260
    115  O         -3.3700  147.6520   23.2180 O.2   155  LYS155     -0.2867
    116  CB        -2.4970  150.0560   24.8680 C.3   155  LYS155      0.0271
    117  CG        -2.3530  151.0250   26.0090 C.3   155  LYS155      0.0035
    118  CD        -2.9090  152.3930   25.6420 C.3   155  LYS155      0.0206
    119  CE        -2.7020  153.3820   26.7750 C.3   155  LYS155      0.1093
    120  NZ        -3.1830  154.7690   26.4400 N.3   155  LYS155     -0.1314
    121  N         -1.8910  149.0780   16.7760 N.3   158  TYR158     -0.1241
    122  CA        -2.1070  149.8720   15.5770 C.3   158  TYR158      0.1605
    123  C         -2.5670  148.9980   14.4090 C.2   158  TYR158      0.2264
    124  O         -2.2540  147.8090   14.3230 O.2   158  TYR158     -0.2867
    125  CB        -0.8290  150.6240   15.1960 C.3   158  TYR158      0.0534
    126  CG        -0.5710  151.8790   16.0290 C.ar  158  TYR158     -0.0201
    127  CD1       -1.3940  153.0000   15.9120 C.ar  158  TYR158     -0.0009
    128  CD2        0.4950  151.9400   16.9200 C.ar  158  TYR158     -0.0009
    129  CE1       -1.1620  154.1440   16.6710 C.ar  158  TYR158      0.0417
    130  CE2        0.7330  153.0650   17.6800 C.ar  158  TYR158      0.0417
    131  CZ        -0.1010  154.1650   17.5550 C.ar  158  TYR158      0.1957
    132  OH         0.1390  155.2900   18.3100 O.3   158  TYR158     -0.2866
@<TRIPOS>BOND
     1   124   123    2
     2   123   122    1
     3   125   122    1
     4   125   126    1
     5   122   121    1
     6   127   126   ar
     7   127   129   ar
     8   126   128   ar
     9   129   131   ar
    10   128   130   ar
    11   131   130   ar
    12   131   132    1
    13    11     9    1
    14     8     9    2
    15     8     7    1
    16     1     2    1
    17     9    10    1
    18     4     3    2
    19     5     2    1
    20     5     6    1
    21     7     6    1
    22    18    19    1
    23    18    17    1
    24     2     3    1
    25     3    12   am
    26    19    20    2
    27    21    20    1
    28    20    22    1
    29    17    16    1
    30    94    93   ar
    31    94    92   ar
    32    12    13    1
    33    93    91   ar
    34    13    16    1
    35    13    14    1
    36    92    90   ar
    37   115   114    2
    38    91    88   ar
    39   114   113    1
    40    73    72    2
    41    68    69    2
    42    68    67    1
    43    70    67    1
    44    70    71    1
    45    90    88   ar
    46    90    89   ar
    47    88    86   ar
    48   110   109    2
    49    14    23   am
    50    14    15    2
    51   111   109   am
    52    23    24    1
    53    28    27    1
    54    67    66    1
    55    72    71    1
    56    72    74   am
    57   109   108    1
    58    89    87   ar
    59   113   116    1
    60   113   112    1
    61   116   117    1
    62    86    87   ar
    63    86    85    1
    64    27    24    1
    65   108   107    1
    66    85    82    1
    67    24    25    1
    68   118   117    1
    69   118   119    1
    70   107   104    1
    71    39    37    1
    72   120   119    1
    73    26    25    2
    74    82    81    1
    75    82    83    1
    76    81    77   am
    77   104   103    1
    78   104   105    1
    79    38    37    1
    80    37    36    2
    81    84    83    2
    82    83    95   am
    83   103    97   am
    84    80    79    1
    85    76    77    1
    86    76    75    1
    87    76    79    1
    88    77    78    2
    89   105   106    2
    90    95    96    1
    91    36    35    1
    92    97    98    2
    93    97    96    1
    94    50    48    1
    95    49    48    1
    96    96    99    1
    97    48    47    2
    98    35    34    1
    99    34    33    1
   100    47    46    1
   101    99   100    1
   102    99   101    1
   103    29    30    1
   104   100   102    1
   105    46    45    1
   106    54    53    2
   107    52    53    1
   108    52    51    1
   109    33    30    1
   110    65    64   ar
   111    65    63   ar
   112    64    62   ar
   113    30    31    1
   114    63    61   ar
   115    45    44    1
   116    62    60   ar
   117    31    32    2
   118    44    41    1
   119    61    60   ar
   120    60    59    1
   121    41    40    1
   122    41    42    1
   123    59    56    1
   124    42    43    2
   125    55    56    1
   126    56    57    1
   127    57    58    2
