@<TRIPOS>MOLECULE
tmp/5j6dA01.pdb
 244 238 0 0 0
SMALL
GASTEIGER

@<TRIPOS>ATOM
      1  N        -22.5790    5.0240  -16.6870 N.3    22  LEU22      -0.1245
      2  CA       -22.5600    3.9620  -17.6980 C.3    22  LEU22       0.1561
      3  C        -23.8860    3.1930  -17.5970 C.2    22  LEU22       0.2260
      4  O        -24.2860    2.7790  -16.5010 O.2    22  LEU22      -0.2867
      5  CB       -21.3940    3.0100  -17.4500 C.3    22  LEU22       0.0270
      6  CG       -20.0190    3.6530  -17.2430 C.3    22  LEU22       0.0019
      7  CD1      -18.9390    2.5910  -17.0960 C.3    22  LEU22       0.0001
      8  CD2      -19.7050    4.6300  -18.3620 C.3    22  LEU22       0.0001
      9  N        -26.9240    0.3220  -18.9040 N.3    24  TYR24      -0.1241
     10  CA       -27.1880   -0.9890  -19.4570 C.3    24  TYR24       0.1605
     11  C        -27.8230   -0.7610  -20.7910 C.2    24  TYR24       0.2264
     12  O        -28.6820    0.0710  -20.9370 O.2    24  TYR24      -0.2867
     13  CB       -28.1070   -1.7730  -18.5380 C.3    24  TYR24       0.0534
     14  CG       -27.4770   -2.1230  -17.2210 C.ar   24  TYR24      -0.0201
     15  CD1      -26.4580   -2.9950  -17.1470 C.ar   24  TYR24      -0.0009
     16  CD2      -27.9220   -1.5690  -16.0620 C.ar   24  TYR24      -0.0009
     17  CE1      -25.8830   -3.3150  -15.9530 C.ar   24  TYR24       0.0417
     18  CE2      -27.3610   -1.8830  -14.8600 C.ar   24  TYR24       0.0417
     19  CZ       -26.3280   -2.7510  -14.8220 C.ar   24  TYR24       0.1957
     20  OH       -25.7550   -3.0690  -13.6400 O.3    24  TYR24      -0.2866
     21  N        -22.6820   -0.3730  -21.0850 N.3    28  LEU28      -0.1231
     22  CA       -22.5770   -1.6670  -20.4210 C.3    28  LEU28       0.1693
     23  C        -23.3880   -2.7120  -21.1980 C.2    28  LEU28       0.2592
     24  O        -24.5880   -2.5400  -21.4370 O.2    28  LEU28      -0.2718
     25  CB       -23.0810   -1.5770  -18.9810 C.3    28  LEU28       0.0284
     26  CG       -22.4470   -0.4940  -18.1030 C.3    28  LEU28       0.0019
     27  CD1      -23.1310   -0.4600  -16.7500 C.3    28  LEU28       0.0001
     28  CD2      -20.9500   -0.6990  -17.9260 C.3    28  LEU28       0.0001
     29  N        -22.7020   -3.7710  -21.6080 N.am   29  ASP29      -0.1960
     30  CA       -23.3040   -4.8640  -22.3690 C.3    29  ASP29       0.1840
     31  C        -23.7020   -5.9250  -21.3540 C.2    29  ASP29       0.2621
     32  O        -22.9810   -6.9010  -21.1220 O.2    29  ASP29      -0.2715
     33  CB       -22.3090   -5.4050  -23.4050 C.3    29  ASP29       0.1450
     34  CG       -22.9290   -6.4420  -24.3280 C.2    29  ASP29       0.3671
     35  OD1      -24.0150   -6.1700  -24.8910 O.co2  29  ASP29      -0.2456
     36  OD2      -22.3280   -7.5260  -24.4920 O.co2  29  ASP29      -0.2456
     37  N        -24.8380   -5.6790  -20.7130 N.am   30  ALA30      -0.1977
     38  CA       -25.3500   -6.5600  -19.6750 C.3    30  ALA30       0.1597
     39  C        -26.7980   -6.2100  -19.3510 C.2    30  ALA30       0.2287
     40  O        -27.2610   -5.0960  -19.6250 O.2    30  ALA30      -0.2864
     41  CB       -24.4860   -6.4690  -18.4240 C.3    30  ALA30       0.0319
     42  N        -22.5510    2.9880  -12.0980 N.3   134  TYR134     -0.1227
     43  CA       -21.1180    3.0640  -12.3820 C.3   134  TYR134      0.1736
     44  C        -20.7740    4.3610  -13.1420 C.2   134  TYR134      0.2595
     45  O        -21.5360    4.8250  -14.0180 O.2   134  TYR134     -0.2718
     46  CB       -20.6650    1.9160  -13.2750 C.3   134  TYR134      0.0548
     47  CG       -20.6520    0.5270  -12.7090 C.ar  134  TYR134     -0.0200
     48  CD1      -19.5290    0.0270  -12.0610 C.ar  134  TYR134     -0.0009
     49  CD2      -21.6880   -0.3430  -12.9630 C.ar  134  TYR134     -0.0009
     50  CE1      -19.4920   -1.2820  -11.6040 C.ar  134  TYR134      0.0417
     51  CE2      -21.6550   -1.6600  -12.5420 C.ar  134  TYR134      0.0417
     52  CZ       -20.5510   -2.1350  -11.8620 C.ar  134  TYR134      0.1957
     53  OH       -20.5370   -3.4520  -11.4260 O.3   134  TYR134     -0.2866
     54  N        -19.6140    4.9050  -12.8180 N.am  135  LEU135     -0.1980
     55  CA       -18.9190    5.8600  -13.6370 C.3   135  LEU135      0.1596
     56  C        -17.7310    5.1610  -14.3110 C.2   135  LEU135      0.2287
     57  O        -17.3450    4.0830  -13.8950 O.2   135  LEU135     -0.2864
     58  CB       -18.3750    6.9750  -12.7600 C.3   135  LEU135      0.0297
     59  CG       -19.3600    7.8060  -11.9450 C.3   135  LEU135      0.0022
     60  CD1      -18.6390    8.8070  -11.0510 C.3   135  LEU135      0.0001
     61  CD2      -20.3260    8.5080  -12.9060 C.3   135  LEU135      0.0001
     62  N        -13.8180    4.2460  -14.9040 N.3   137  PRO137     -0.2116
     63  CA       -12.7080    4.2230  -13.9410 C.3   137  PRO137      0.1372
     64  C        -12.0780    5.5980  -13.7220 C.2   137  PRO137      0.2244
     65  O        -11.8980    6.0080  -12.5680 O.2   137  PRO137     -0.2868
     66  CB       -11.7310    3.2090  -14.5510 C.3   137  PRO137      0.0268
     67  CG       -12.6140    2.2800  -15.3470 C.3   137  PRO137      0.0207
     68  CD       -13.7270    3.1390  -15.8830 C.3   137  PRO137      0.0892
     69  N        -14.5190    7.8080  -11.5430 N.3   140  PHE140     -0.1227
     70  CA       -14.6690    7.3300  -10.1660 C.3   140  PHE140      0.1736
     71  C        -13.4050    7.6470   -9.3630 C.2   140  PHE140      0.2595
     72  O        -13.4830    8.1980   -8.2660 O.2   140  PHE140     -0.2718
     73  CB       -15.0160    5.8340  -10.0680 C.3   140  PHE140      0.0547
     74  CG       -15.4580    5.4390   -8.6900 C.ar  140  PHE140     -0.0202
     75  CD1      -14.5240    5.1750   -7.7010 C.ar  140  PHE140     -0.0042
     76  CD2      -16.8080    5.4620   -8.3490 C.ar  140  PHE140     -0.0042
     77  CE1      -14.9290    4.9030   -6.3920 C.ar  140  PHE140     -0.0003
     78  CE2      -17.2210    5.1670   -7.0540 C.ar  140  PHE140     -0.0003
     79  CZ       -16.2790    4.9100   -6.0740 C.ar  140  PHE140     -0.0000
     80  N        -12.2490    7.3190   -9.9310 N.am  141  LEU141     -0.1980
     81  CA       -10.9790    7.5930   -9.2770 C.3   141  LEU141      0.1596
     82  C        -10.7460    9.0790   -9.1120 C.2   141  LEU141      0.2287
     83  O        -10.1710    9.4900   -8.0980 O.2   141  LEU141     -0.2864
     84  CB        -9.8060    6.9540  -10.0540 C.3   141  LEU141      0.0297
     85  CG        -9.7890    5.4350  -10.1730 C.3   141  LEU141      0.0022
     86  CD1       -8.5680    4.9990  -10.9850 C.3   141  LEU141      0.0001
     87  CD2       -9.7780    4.7730   -8.8150 C.3   141  LEU141      0.0001
     88  N        -30.1190   -3.6130   -3.4930 N.3   156  ARG156     -0.1245
     89  CA       -30.1020   -4.7490   -4.4310 C.3   156  ARG156      0.1563
     90  C        -31.4700   -5.4460   -4.4390 C.2   156  ARG156      0.2260
     91  O        -32.1830   -5.3980   -3.4450 O.2   156  ARG156     -0.2867
     92  CB       -29.0690   -5.7810   -4.0060 C.3   156  ARG156      0.0307
     93  CG       -29.3310   -6.3930   -2.6320 C.3   156  ARG156      0.0489
     94  CD       -28.1530   -7.2040   -2.1370 C.3   156  ARG156      0.2205
     95  NE       -26.9810   -6.3550   -1.9310 N.pl3 156  ARG156     -0.0865
     96  CZ       -25.7390   -6.8140   -1.8280 C.cat 156  ARG156      0.5346
     97  NH1      -25.4940   -8.1320   -1.8740 N.pl3 156  ARG156      0.1354
     98  NH2      -24.7310   -5.9560   -1.6840 N.pl3 156  ARG156      0.1354
     99  N        -25.4930  -12.1620   -3.0000 N.3   163  TYR163     -0.1227
    100  CA       -24.5220  -11.6630   -3.9670 C.3   163  TYR163      0.1736
    101  C        -25.2800  -10.9260   -5.0460 C.2   163  TYR163      0.2596
    102  O        -26.3270  -11.4020   -5.4940 O.2   163  TYR163     -0.2718
    103  CB       -23.6990  -12.8180   -4.5930 C.3   163  TYR163      0.0548
    104  CG       -22.8970  -12.3690   -5.7930 C.ar  163  TYR163     -0.0200
    105  CD1      -21.6110  -11.8690   -5.6390 C.ar  163  TYR163     -0.0009
    106  CD2      -23.4410  -12.3950   -7.0640 C.ar  163  TYR163     -0.0009
    107  CE1      -20.8870  -11.4200   -6.7270 C.ar  163  TYR163      0.0417
    108  CE2      -22.7170  -11.9460   -8.1600 C.ar  163  TYR163      0.0417
    109  CZ       -21.4330  -11.4610   -7.9720 C.ar  163  TYR163      0.1957
    110  OH       -20.7200  -10.9870   -9.0290 O.3   163  TYR163     -0.2866
    111  N        -24.7630   -9.7670   -5.4590 N.am  164  THR164     -0.1939
    112  CA       -25.3110   -9.0310   -6.5890 C.3   164  THR164      0.2013
    113  C        -24.1820   -8.6820   -7.5610 C.2   164  THR164      0.2484
    114  O        -23.0850   -8.3260   -7.1430 O.2   164  THR164     -0.2729
    115  CB       -26.1490   -7.7910   -6.1320 C.3   164  THR164      0.1807
    116  OG1      -26.6200   -7.0640   -7.2780 O.3   164  THR164     -0.2208
    117  CG2      -25.3480   -6.8670   -5.2780 C.3   164  THR164      0.0379
    118  N        -24.4390   -8.7880   -8.8760 N.am  165  PRO165     -0.2715
    119  CA       -23.3990   -8.4680   -9.8570 C.3   165  PRO165      0.1536
    120  C        -23.1840   -6.9520  -10.0510 C.2   165  PRO165      0.2598
    121  O        -22.3010   -6.5480  -10.7740 O.2   165  PRO165     -0.2715
    122  CB       -23.9480   -9.0830  -11.1370 C.3   165  PRO165      0.0310
    123  CG       -25.4360   -8.9740  -10.9770 C.3   165  PRO165      0.0237
    124  CD       -25.6680   -9.2960   -9.5300 C.3   165  PRO165      0.0939
    125  N        -24.0120   -6.1430   -9.4080 N.am  166  GLU166     -0.1964
    126  CA       -24.0010   -4.6940   -9.5320 C.3   166  GLU166      0.1718
    127  C        -23.8240   -4.0890   -8.1330 C.2   166  GLU166      0.2458
    128  O        -24.5000   -4.5410   -7.2130 O.2   166  GLU166     -0.2730
    129  CB       -25.3870   -4.3620  -10.0450 C.3   166  GLU166      0.0428
    130  CG       -25.6710   -2.9410  -10.3630 C.3   166  GLU166      0.1163
    131  CD       -27.1370   -2.7510  -10.6460 C.2   166  GLU166      0.3649
    132  OE1      -27.9860   -3.1900   -9.8440 O.co2 166  GLU166     -0.2457
    133  OE2      -27.4360   -2.1550  -11.6660 O.co2 166  GLU166     -0.2457
    134  N        -23.0110   -3.0230   -7.9650 N.am  167  PRO167     -0.2727
    135  CA       -23.0260   -2.3750   -6.6420 C.3   167  PRO167      0.1402
    136  C        -24.4010   -1.8210   -6.2250 C.2   167  PRO167      0.2269
    137  O        -25.1750   -1.4170   -7.0810 O.2   167  PRO167     -0.2865
    138  CB       -22.0320   -1.2400   -6.8090 C.3   167  PRO167      0.0296
    139  CG       -22.1200   -0.9020   -8.2430 C.3   167  PRO167      0.0237
    140  CD       -22.1590   -2.2570   -8.8970 C.3   167  PRO167      0.0939
    141  N        -23.6280   -2.4450   -0.3640 N.3   171  HIS171     -0.1241
    142  CA       -22.2220   -2.5700   -0.6840 C.3   171  HIS171      0.1621
    143  C        -21.4430   -1.3070   -0.2880 C.2   171  HIS171      0.2264
    144  O        -20.3560   -1.3790    0.3250 O.2   171  HIS171     -0.2867
    145  CB       -22.0490   -2.9160   -2.1690 C.3   171  HIS171      0.0745
    146  CG       -20.6740   -2.6400   -2.6880 C.ar  171  HIS171      0.0817
    147  ND1      -19.5560   -3.3200   -2.2480 N.ar  171  HIS171     -0.2268
    148  CD2      -20.2300   -1.7070   -3.5680 C.ar  171  HIS171      0.1154
    149  CE1      -18.4880   -2.8290   -2.8520 C.ar  171  HIS171      0.1986
    150  NE2      -18.8730   -1.8570   -3.6610 N.ar  171  HIS171     -0.2212
    151  N         -6.8430    1.5230  -11.8700 N.3   208  ALA208     -0.1245
    152  CA        -8.1760    0.9540  -11.6540 C.3   208  ALA208      0.1562
    153  C         -8.0960   -0.5340  -11.2780 C.2   208  ALA208      0.2260
    154  O         -8.8260   -0.9770  -10.3960 O.2   208  ALA208     -0.2867
    155  CB        -9.0440    1.1320  -12.8850 C.3   208  ALA208      0.0290
    156  N         -6.7390   -0.7450   -7.7130 N.3   211  TYR211     -0.1227
    157  CA        -7.9070   -0.4630   -6.8560 C.3   211  TYR211      0.1736
    158  C         -8.8200   -1.6990   -6.7210 C.2   211  TYR211      0.2595
    159  O         -9.2060   -2.0880   -5.6160 O.2   211  TYR211     -0.2718
    160  CB        -8.6770    0.7500   -7.3940 C.3   211  TYR211      0.0548
    161  CG        -9.9520    1.0880   -6.6670 C.ar  211  TYR211     -0.0200
    162  CD1      -11.1270    0.4060   -6.9420 C.ar  211  TYR211     -0.0009
    163  CD2      -10.0080    2.1280   -5.7380 C.ar  211  TYR211     -0.0009
    164  CE1      -12.3020    0.7120   -6.2920 C.ar  211  TYR211      0.0417
    165  CE2      -11.2100    2.4350   -5.0810 C.ar  211  TYR211      0.0417
    166  CZ       -12.3450    1.7220   -5.3630 C.ar  211  TYR211      0.1957
    167  OH       -13.5760    2.0070   -4.7620 O.3   211  TYR211     -0.2866
    168  N         -9.1510   -2.3010   -7.8450 N.am  212  PHE212     -0.1976
    169  CA       -10.0460   -3.4570   -7.8820 C.3   212  PHE212      0.1639
    170  C         -9.5440   -4.6000   -6.9740 C.2   212  PHE212      0.2290
    171  O        -10.3140   -5.1930   -6.1940 O.2   212  PHE212     -0.2864
    172  CB       -10.1910   -3.9450   -9.3320 C.3   212  PHE212      0.0560
    173  CG       -11.3020   -4.9180   -9.5290 C.ar  212  PHE212     -0.0200
    174  CD1      -12.6100   -4.4660   -9.6710 C.ar  212  PHE212     -0.0042
    175  CD2      -11.0460   -6.2990   -9.5590 C.ar  212  PHE212     -0.0042
    176  CE1      -13.6610   -5.3730   -9.8740 C.ar  212  PHE212     -0.0003
    177  CE2      -12.0860   -7.2040   -9.7550 C.ar  212  PHE212     -0.0003
    178  CZ       -13.3990   -6.7480   -9.9070 C.ar  212  PHE212     -0.0000
    179  N        -11.4520   -3.0450   -3.6860 N.3   216  GLU216     -0.1231
    180  CA       -12.6570   -3.7920   -4.0040 C.3   216  GLU216      0.1699
    181  C        -12.6100   -5.2550   -3.5130 C.2   216  GLU216      0.2592
    182  O        -13.5900   -5.7360   -2.9420 O.2   216  GLU216     -0.2718
    183  CB       -12.9670   -3.7490   -5.5000 C.3   216  GLU216      0.0402
    184  CG       -14.4610   -3.7850   -5.7550 C.3   216  GLU216      0.1161
    185  CD       -15.1240   -2.4210   -5.5190 C.2   216  GLU216      0.3649
    186  OE1      -14.7670   -1.4540   -6.2450 O.co2 216  GLU216     -0.2457
    187  OE2      -16.0060   -2.3170   -4.6390 O.co2 216  GLU216     -0.2457
    188  N        -11.4910   -5.9370   -3.7450 N.am  217  PHE217     -0.1976
    189  CA       -11.4280   -7.4200   -3.5450 C.3   217  PHE217      0.1639
    190  C        -10.1700   -7.9140   -2.8460 C.2   217  PHE217      0.2290
    191  O         -9.8160   -9.1000   -2.9450 O.2   217  PHE217     -0.2864
    192  CB       -11.6400   -8.1020   -4.9060 C.3   217  PHE217      0.0560
    193  CG       -13.0500   -8.0380   -5.3650 C.ar  217  PHE217     -0.0200
    194  CD1      -14.0150   -8.8460   -4.7550 C.ar  217  PHE217     -0.0042
    195  CD2      -13.4500   -7.1290   -6.3530 C.ar  217  PHE217     -0.0042
    196  CE1      -15.3440   -8.7680   -5.1140 C.ar  217  PHE217     -0.0003
    197  CE2      -14.7800   -7.0560   -6.7300 C.ar  217  PHE217     -0.0003
    198  CZ       -15.7280   -7.8780   -6.1200 C.ar  217  PHE217     -0.0000
    199  N        -16.0920   -5.2640   -2.0280 N.3   232  GLY232     -0.1225
    200  CA       -16.9400   -6.1910   -2.7800 C.3   232  GLY232      0.1811
    201  C        -17.1320   -7.5660   -2.1040 C.2   232  GLY232      0.2280
    202  O        -18.1240   -8.2480   -2.3560 O.2   232  GLY232     -0.2866
    203  N        -19.4250   -6.9830    1.4530 N.3   235  SER235     -0.1202
    204  CA       -20.8680   -6.8380    1.2730 C.3   235  SER235      0.2020
    205  C        -21.5910   -8.0490    0.6640 C.2   235  SER235      0.2619
    206  O        -22.8200   -7.9990    0.5350 O.2   235  SER235     -0.2717
    207  CB       -21.1620   -5.5690    0.4500 C.3   235  SER235      0.2103
    208  OG       -20.6250   -5.6680   -0.8420 O.3   235  SER235     -0.2182
    209  N        -20.8550   -9.1230    0.3480 N.am  236  SER236     -0.1951
    210  CA       -21.4490  -10.3740   -0.1880 C.3   236  SER236      0.1924
    211  C        -21.2800  -11.5250    0.8260 C.2   236  SER236      0.2314
    212  O        -20.1740  -11.9850    1.0680 O.2   236  SER236     -0.2863
    213  CB       -20.7800  -10.7600   -1.5140 C.3   236  SER236      0.2116
    214  OG       -21.2880  -11.9660   -2.0680 O.3   236  SER236     -0.2180
    215  N        -19.7150  -14.3590   -1.3490 N.3   239  GLU239     -0.1245
    216  CA       -18.2930  -14.2090   -1.7050 C.3   239  GLU239      0.1567
    217  C        -17.3660  -13.9870   -0.5160 C.2   239  GLU239      0.2260
    218  O        -16.1810  -14.3240   -0.5870 O.2   239  GLU239     -0.2867
    219  CB       -18.0270  -13.1730   -2.8030 C.3   239  GLU239      0.0388
    220  CG       -16.7010  -13.4690   -3.5260 C.3   239  GLU239      0.1160
    221  CD       -16.4400  -12.6520   -4.7690 C.2   239  GLU239      0.3649
    222  OE1      -15.3190  -12.7930   -5.3140 O.co2 239  GLU239     -0.2457
    223  OE2      -17.3200  -11.8870   -5.2250 O.co2 239  GLU239     -0.2457
    224  N        -10.2650   -8.1190  -14.2790 N.3   263  CYS263     -0.1235
    225  CA       -11.2720   -7.8300  -13.2620 C.3   263  CYS263      0.1677
    226  C        -12.5650   -8.5590  -13.6240 C.2   263  CYS263      0.2270
    227  O        -13.1710   -8.2550  -14.6370 O.2   263  CYS263     -0.2867
    228  CB       -11.5060   -6.3160  -13.2040 C.3   263  CYS263      0.0956
    229  SG        -9.9910   -5.4430  -12.7380 S.3   263  CYS263     -0.0801
    230  N        -16.4570   -9.4430  -13.6240 N.3   265  ILE265     -0.1231
    231  CA       -17.7450   -8.8610  -13.3530 C.3   265  ILE265      0.1692
    232  C        -18.7800   -9.9600  -13.5290 C.2   265  ILE265      0.2592
    233  O        -18.7170  -10.7280  -14.4970 O.2   265  ILE265     -0.2718
    234  CB       -18.0520   -7.6900  -14.3160 C.3   265  ILE265      0.0266
    235  CG1      -16.8400   -6.7550  -14.4670 C.3   265  ILE265      0.0019
    236  CG2      -19.2610   -6.9050  -13.8370 C.3   265  ILE265      0.0020
    237  CD1      -16.3420   -6.1130  -13.1870 C.3   265  ILE265      0.0001
    238  N        -19.7120   -9.9910  -12.5790 N.am  266  THR266     -0.1953
    239  CA       -20.8830  -10.8540  -12.5120 C.3   266  THR266      0.1897
    240  C        -20.6140  -12.2370  -11.9300 C.2   266  THR266      0.2313
    241  O        -21.5350  -13.0310  -11.8520 O.2   266  THR266     -0.2863
    242  CB       -21.6550  -10.9720  -13.8530 C.3   266  THR266      0.1794
    243  OG1      -21.0030  -11.8960  -14.7250 O.3   266  THR266     -0.2208
    244  CG2      -21.7980   -9.6250  -14.5390 C.3   266  THR266      0.0378
@<TRIPOS>BOND
     1    35    34   ar
     2    36    34   ar
     3    34    33    1
     4    33    30    1
     5    30    29    1
     6    30    31    1
     7    29    23   am
     8    24    23    2
     9    31    32    2
    10    31    37   am
    11    23    22    1
    12    21    22    1
    13    12    11    2
    14    11    10    1
    15    37    38    1
    16    22    25    1
    17    38    39    1
    18    38    41    1
    19    40    39    2
    20    10     9    1
    21    10    13    1
    22    25    26    1
    23    13    14    1
    24     8     6    1
    25    26    28    1
    26    26    27    1
    27     2     3    1
    28     2     5    1
    29     2     1    1
    30     3     4    2
    31     5     6    1
    32     6     7    1
    33    14    15   ar
    34    14    16   ar
    35    15    17   ar
    36    16    18   ar
    37    17    19   ar
    38    68    67    1
    39    68    62    1
    40    67    66    1
    41    62    63    1
    42    18    19   ar
    43    19    20    1
    44   243   242    1
    45   227   226    2
    46    66    63    1
    47   244   242    1
    48   233   232    2
    49   235   234    1
    50   235   237    1
    51   234   236    1
    52   234   231    1
    53    56    57    2
    54    56    55    1
    55   224   225    1
    56    45    44    2
    57    63    64    1
    58   242   239    1
    59    64    65    2
    60    55    54    1
    61    55    58    1
    62   230   231    1
    63   226   225    1
    64   232   231    1
    65   232   238   am
    66    46    47    1
    67    46    43    1
    68   225   228    1
    69   228   229    1
    70    44    54   am
    71    44    43    1
    72    49    47   ar
    73    49    51   ar
    74    61    59    1
    75   155   152    1
    76    58    59    1
    77    47    48   ar
    78   238   239    1
    79    51    52   ar
    80   239   240    1
    81    43    42    1
    82    48    50   ar
    83    59    60    1
    84   240   241    2
    85   151   152    1
    86    52    50   ar
    87    52    53    1
    88   133   131   ar
    89   152   153    1
    90    69    70    1
    91   153   154    2
    92   122   123    1
    93   122   119    1
    94    86    85    1
    95   123   124    1
    96   121   120    2
    97   131   130    1
    98   131   132   ar
    99   130   129    1
   100    85    84    1
   101    85    87    1
   102    70    73    1
   103    70    71    1
   104    73    74    1
   105    84    81    1
   106   120   119    1
   107   120   125   am
   108   129   126    1
   109    80    71   am
   110    80    81    1
   111   178   176   ar
   112   178   177   ar
   113   176   174   ar
   114   119   118    1
   115   177   175   ar
   116   174   173   ar
   117   175   173   ar
   118   126   125    1
   119   126   127    1
   120   124   118    1
   121   173   172    1
   122    71    72    2
   123   172   169    1
   124    81    82    1
   125    82    83    2
   126   110   109    1
   127   140   139    1
   128   140   134    1
   129   118   113   am
   130    74    76   ar
   131    74    75   ar
   132    76    78   ar
   133   139   138    1
   134   108   109   ar
   135   108   106   ar
   136   127   134   am
   137   127   128    2
   138   109   107   ar
   139   134   135    1
   140   169   168    1
   141   169   170    1
   142   168   158   am
   143   156   157    1
   144    75    77   ar
   145   113   114    2
   146   113   112    1
   147   160   157    1
   148   160   161    1
   149   116   115    1
   150   137   136    2
   151   106   104   ar
   152    78    79   ar
   153   170   171    2
   154   162   161   ar
   155   162   164   ar
   156   157   158    1
   157   138   135    1
   158   197   195   ar
   159   197   198   ar
   160   107   105   ar
   161   158   159    2
   162   161   163   ar
   163   135   136    1
   164   112   115    1
   165   112   111    1
   166    77    79   ar
   167   195   193   ar
   168   164   166   ar
   169   186   185   ar
   170   115   117    1
   171   198   196   ar
   172   104   105   ar
   173   104   103    1
   174   184   185    1
   175   184   183    1
   176   163   165   ar
   177   185   187   ar
   178   183   180    1
   179   102   101    2
   180   111   101   am
   181   193   192    1
   182   193   194   ar
   183   166   165   ar
   184   166   167    1
   185   222   221   ar
   186   223   221   ar
   187   196   194   ar
   188   101   100    1
   189   192   189    1
   190   221   220    1
   191   103   100    1
   192    90    89    1
   193    90    91    2
   194    89    92    1
   195    89    88    1
   196    92    93    1
   197   180   179    1
   198   180   181    1
   199   100    99    1
   200   188   189    1
   201   188   181   am
   202   150   148   ar
   203   150   149   ar
   204   148   146   ar
   205   189   190    1
   206   220   219    1
   207   181   182    2
   208   191   190    2
   209   149   147   ar
   210   219   216    1
   211   200   201    1
   212   200   199    1
   213   146   147   ar
   214   146   145    1
   215    93    94    1
   216   202   201    2
   217   145   142    1
   218    94    95    1
   219   214   213    1
   220    95    96    2
   221    97    96    1
   222    96    98    1
   223   216   215    1
   224   216   217    1
   225   213   210    1
   226   208   207    1
   227   142   141    1
   228   142   143    1
   229   218   217    2
   230   143   144    2
   231   210   209    1
   232   210   211    1
   233   209   205   am
   234   207   204    1
   235   206   205    2
   236   205   204    1
   237   211   212    2
   238   204   203    1
