@<TRIPOS>MOLECULE
tmp/5j6dB01.pdb
 239 233 0 0 0
SMALL
GASTEIGER

@<TRIPOS>ATOM
      1  N        -10.8710   22.5260  -21.3710 N.3    22  LEU22      -0.1245
      2  CA        -9.4360   22.2820  -21.2950 C.3    22  LEU22       0.1561
      3  C         -8.7050   23.6020  -20.9980 C.2    22  LEU22       0.2260
      4  O         -8.8250   24.5620  -21.7740 O.2    22  LEU22      -0.2867
      5  CB        -8.9380   21.6910  -22.6070 C.3    22  LEU22       0.0270
      6  CG        -9.6560   20.4490  -23.1490 C.3    22  LEU22       0.0019
      7  CD1       -8.9400   20.0570  -24.4410 C.3    22  LEU22       0.0001
      8  CD2       -9.6930   19.2890  -22.1440 C.3    22  LEU22       0.0001
      9  N         -5.2630   26.3290  -19.8770 N.3    24  TYR24      -0.1241
     10  CA        -3.8670   26.3220  -20.1770 C.3    24  TYR24       0.1605
     11  C         -3.2080   26.1170  -18.8500 C.2    24  TYR24       0.2264
     12  O         -3.6590   26.6260  -17.8650 O.2    24  TYR24      -0.2867
     13  CB        -3.4700   27.6450  -20.7880 C.3    24  TYR24       0.0534
     14  CG        -4.1710   27.9400  -22.0730 C.ar   24  TYR24      -0.0201
     15  CD1       -3.7530   27.3930  -23.2460 C.ar   24  TYR24      -0.0009
     16  CD2       -5.2470   28.7600  -22.1020 C.ar   24  TYR24      -0.0009
     17  CE1       -4.4030   27.6590  -24.4230 C.ar   24  TYR24       0.0417
     18  CE2       -5.8940   29.0270  -23.2680 C.ar   24  TYR24       0.0417
     19  CZ        -5.4670   28.4700  -24.4190 C.ar   24  TYR24       0.1957
     20  OH        -6.1390   28.7660  -25.5650 O.3    24  TYR24      -0.2866
     21  N         -3.7700   21.7480  -21.3860 N.3    28  LEU28      -0.1231
     22  CA        -3.0430   22.3710  -22.5070 C.3    28  LEU28       0.1693
     23  C         -1.6970   23.0160  -22.1090 C.2    28  LEU28       0.2592
     24  O         -1.6100   23.6910  -21.0800 O.2    28  LEU28      -0.2718
     25  CB        -3.9400   23.4380  -23.1350 C.3    28  LEU28       0.0284
     26  CG        -5.3540   22.9630  -23.5090 C.3    28  LEU28       0.0019
     27  CD1       -6.2260   24.1410  -23.9080 C.3    28  LEU28       0.0001
     28  CD2       -5.3030   21.8960  -24.5930 C.3    28  LEU28       0.0001
     29  N         -0.6760   22.8100  -22.9500 N.am   29  ASP29      -0.1974
     30  CA         0.6770   23.3690  -22.7780 C.3    29  ASP29       0.1709
     31  C          0.9560   24.4710  -23.7990 C.2    29  ASP29       0.2293
     32  O          0.3780   25.5560  -23.7430 O.2    29  ASP29      -0.2864
     33  CB         1.7260   22.2650  -22.9570 C.3    29  ASP29       0.1436
     34  CG         1.7320   21.2380  -21.8890 C.2    29  ASP29       0.3671
     35  OD1        1.2120   21.4950  -20.7610 O.co2  29  ASP29      -0.2456
     36  OD2        2.3380   20.1380  -22.1180 O.co2  29  ASP29      -0.2456
     37  N        -11.6690   25.3850  -25.4360 N.3   105  TYR105     -0.1227
     38  CA       -11.7030   24.0470  -26.0140 C.3   105  TYR105      0.1736
     39  C        -12.3910   23.0540  -25.0570 C.2   105  TYR105      0.2595
     40  O        -12.2560   23.1720  -23.8420 O.2   105  TYR105     -0.2718
     41  CB       -10.3030   23.5250  -26.2830 C.3   105  TYR105      0.0548
     42  CG        -9.4940   24.2190  -27.3630 C.ar  105  TYR105     -0.0200
     43  CD1       -9.5350   23.7760  -28.6860 C.ar  105  TYR105     -0.0009
     44  CD2       -8.6210   25.2650  -27.0480 C.ar  105  TYR105     -0.0009
     45  CE1       -8.7650   24.3790  -29.6670 C.ar  105  TYR105      0.0417
     46  CE2       -7.8440   25.8790  -28.0270 C.ar  105  TYR105      0.0417
     47  CZ        -7.9230   25.4370  -29.3300 C.ar  105  TYR105      0.1957
     48  OH        -7.1510   26.0270  -30.2960 O.3   105  TYR105     -0.2866
     49  N        -13.1390   22.1170  -25.6310 N.am  106  LEU106     -0.1980
     50  CA       -13.5700   20.8980  -24.9770 C.3   106  LEU106      0.1596
     51  C        -12.7020   19.8010  -25.5240 C.2   106  LEU106      0.2287
     52  O        -11.9870   20.0200  -26.4910 O.2   106  LEU106     -0.2864
     53  CB       -15.0340   20.5920  -25.3030 C.3   106  LEU106      0.0297
     54  CG       -16.0930   21.5770  -24.8280 C.3   106  LEU106      0.0022
     55  CD1      -17.4880   21.0760  -25.1740 C.3   106  LEU106      0.0001
     56  CD2      -15.9630   21.7960  -23.3300 C.3   106  LEU106      0.0001
     57  N        -11.7620   16.5970  -27.7690 N.3   108  PRO108     -0.2116
     58  CA       -12.3100   16.1550  -29.0530 C.3   108  PRO108      0.1372
     59  C        -13.5980   15.3320  -28.9110 C.2   108  PRO108      0.2244
     60  O        -14.5790   15.6160  -29.6020 O.2   108  PRO108     -0.2868
     61  CB       -11.1710   15.3350  -29.6430 C.3   108  PRO108      0.0268
     62  CG        -9.9450   16.0460  -29.1460 C.3   108  PRO108      0.0207
     63  CD       -10.2900   16.4830  -27.7400 C.3   108  PRO108      0.0892
     64  N        -16.6320   17.6340  -27.8690 N.3   111  PHE111     -0.1227
     65  CA       -17.0220   18.5550  -28.9440 C.3   111  PHE111      0.1736
     66  C        -17.7340   17.8090  -30.0770 C.2   111  PHE111      0.2595
     67  O        -18.7970   18.2360  -30.5240 O.2   111  PHE111     -0.2718
     68  CB       -15.8420   19.3500  -29.4870 C.3   111  PHE111      0.0547
     69  CG       -16.2630   20.5560  -30.2840 C.ar  111  PHE111     -0.0202
     70  CD1      -16.7070   20.4200  -31.6000 C.ar  111  PHE111     -0.0042
     71  CD2      -16.2680   21.8140  -29.7040 C.ar  111  PHE111     -0.0042
     72  CE1      -17.1240   21.5290  -32.3360 C.ar  111  PHE111     -0.0003
     73  CE2      -16.6820   22.9290  -30.4300 C.ar  111  PHE111     -0.0003
     74  CZ       -17.1120   22.7820  -31.7520 C.ar  111  PHE111     -0.0000
     75  N        -17.1570   16.6970  -30.5090 N.am  112  LEU112     -0.1980
     76  CA       -17.7820   15.8670  -31.5270 C.3   112  LEU112      0.1596
     77  C        -19.1150   15.2690  -31.0530 C.2   112  LEU112      0.2287
     78  O        -20.0670   15.1960  -31.8430 O.2   112  LEU112     -0.2864
     79  CB       -16.8340   14.7670  -31.9940 C.3   112  LEU112      0.0297
     80  CG       -15.5290   15.2100  -32.6660 C.3   112  LEU112      0.0022
     81  CD1      -14.7520   13.9640  -33.0360 C.3   112  LEU112      0.0001
     82  CD2      -15.7970   16.0770  -33.8830 C.3   112  LEU112      0.0001
     83  N        -10.5850   37.8900  -30.3860 N.3   127  ARG127     -0.1245
     84  CA        -9.1170   37.7860  -30.3910 C.3   127  ARG127      0.1563
     85  C         -8.4500   39.1090  -30.0170 C.2   127  ARG127      0.2260
     86  O         -9.0130   40.1870  -30.2520 O.2   127  ARG127     -0.2867
     87  CB        -8.6130   37.3650  -31.7780 C.3   127  ARG127      0.0307
     88  CG        -8.8620   38.4060  -32.8810 C.3   127  ARG127      0.0489
     89  CD        -8.5490   37.8630  -34.2610 C.3   127  ARG127      0.2205
     90  NE        -9.5030   36.8440  -34.6920 N.pl3 127  ARG127     -0.0865
     91  CZ        -9.3130   35.9910  -35.6990 C.cat 127  ARG127      0.5346
     92  NH1       -8.1860   35.9940  -36.4140 N.pl3 127  ARG127      0.1354
     93  NH2      -10.2600   35.1050  -35.9920 N.pl3 127  ARG127      0.1354
     94  N         -4.3090   36.5850  -37.9820 N.3   134  TYR134     -0.1227
     95  CA        -4.3570   35.2000  -37.4930 C.3   134  TYR134      0.1736
     96  C         -4.2000   35.1700  -35.9790 C.2   134  TYR134      0.2596
     97  O         -3.3910   35.9180  -35.4230 O.2   134  TYR134     -0.2718
     98  CB        -3.2450   34.3590  -38.1500 C.3   134  TYR134      0.0548
     99  CG        -3.0260   32.9800  -37.5400 C.ar  134  TYR134     -0.0200
    100  CD1       -3.7200   31.8560  -38.0130 C.ar  134  TYR134     -0.0009
    101  CD2       -2.1180   32.7970  -36.4910 C.ar  134  TYR134     -0.0009
    102  CE1       -3.5140   30.5980  -37.4550 C.ar  134  TYR134      0.0417
    103  CE2       -1.9110   31.5450  -35.9260 C.ar  134  TYR134      0.0417
    104  CZ        -2.6060   30.4530  -36.4100 C.ar  134  TYR134      0.1957
    105  OH        -2.3890   29.2230  -35.8470 O.3   134  TYR134     -0.2866
    106  N         -4.9640   34.2840  -35.3340 N.am  135  THR135     -0.1939
    107  CA        -4.8670   34.0360  -33.8900 C.3   135  THR135      0.2013
    108  C         -4.6760   32.5290  -33.6440 C.2   135  THR135      0.2484
    109  O         -5.2060   31.7050  -34.4110 O.2   135  THR135     -0.2729
    110  CB        -6.0850   34.5940  -33.1090 C.3   135  THR135      0.1807
    111  OG1       -5.9340   34.3250  -31.7130 O.3   135  THR135     -0.2208
    112  CG2       -7.4010   34.0050  -33.5940 C.3   135  THR135      0.0379
    113  N         -3.9030   32.1620  -32.5910 N.am  136  PRO136     -0.2715
    114  CA        -3.6440   30.7470  -32.3290 C.3   136  PRO136      0.1536
    115  C         -4.7430   30.0550  -31.5060 C.2   136  PRO136      0.2598
    116  O         -4.7080   28.8370  -31.3290 O.2   136  PRO136     -0.2715
    117  CB        -2.3190   30.7780  -31.5540 C.3   136  PRO136      0.0310
    118  CG        -2.0610   32.1940  -31.1820 C.3   136  PRO136      0.0237
    119  CD        -3.2630   32.9940  -31.5560 C.3   136  PRO136      0.0939
    120  N         -5.7070   30.8360  -31.0300 N.am  137  GLU137     -0.1964
    121  CA        -6.8000   30.3550  -30.2190 C.3   137  GLU137      0.1718
    122  C         -8.1130   30.7740  -30.8920 C.2   137  GLU137      0.2458
    123  O         -8.2320   31.9230  -31.3210 O.2   137  GLU137     -0.2730
    124  CB        -6.6690   30.9760  -28.8320 C.3   137  GLU137      0.0428
    125  CG        -7.9080   30.8800  -27.9710 C.3   137  GLU137      0.1163
    126  CD        -7.5950   30.9600  -26.4930 C.2   137  GLU137      0.3649
    127  OE1       -6.9260   31.9310  -26.0820 O.co2 137  GLU137     -0.2457
    128  OE2       -8.0300   30.0610  -25.7380 O.co2 137  GLU137     -0.2457
    129  N         -9.1000   29.8540  -30.9890 N.am  138  PRO138     -0.2727
    130  CA       -10.3740   30.2260  -31.6140 C.3   138  PRO138      0.1402
    131  C        -11.1380   31.2740  -30.8190 C.2   138  PRO138      0.2269
    132  O        -11.1140   31.2450  -29.5930 O.2   138  PRO138     -0.2865
    133  CB       -11.1500   28.9020  -31.6650 C.3   138  PRO138      0.0296
    134  CG       -10.5320   28.0540  -30.6220 C.3   138  PRO138      0.0237
    135  CD        -9.0870   28.4350  -30.5950 C.3   138  PRO138      0.0939
    136  N        -14.0680   33.7390  -35.3710 N.3   142  HIS142     -0.1241
    137  CA       -13.9100   32.4310  -35.9870 C.3   142  HIS142      0.1621
    138  C        -15.1850   31.5930  -35.9970 C.2   142  HIS142      0.2264
    139  O        -15.4400   30.8750  -36.9680 O.2   142  HIS142     -0.2867
    140  CB       -12.7580   31.6820  -35.3230 C.3   142  HIS142      0.0745
    141  CG       -12.7270   30.2230  -35.6240 C.ar  142  HIS142      0.0817
    142  ND1      -12.6100   29.7260  -36.9000 N.ar  142  HIS142     -0.2268
    143  CD2      -12.8090   29.1500  -34.8070 C.ar  142  HIS142      0.1154
    144  CE1      -12.6190   28.4070  -36.8580 C.ar  142  HIS142      0.1986
    145  NE2      -12.7400   28.0340  -35.5980 N.ar  142  HIS142     -0.2212
    146  N        -11.3180   13.1820  -35.0830 N.3   179  ALA179     -0.1245
    147  CA       -11.0010   14.5780  -34.7890 C.3   179  ALA179      0.1562
    148  C        -10.0290   15.1630  -35.8170 C.2   179  ALA179      0.2260
    149  O        -10.1690   16.3190  -36.2240 O.2   179  ALA179     -0.2867
    150  CB       -10.4110   14.7000  -33.3950 C.3   179  ALA179      0.0290
    151  N        -11.7390   15.6760  -39.0920 N.3   182  TYR182     -0.1227
    152  CA       -12.5400   16.8790  -38.8820 C.3   182  TYR182      0.1736
    153  C        -11.6850   18.1380  -39.0090 C.2   182  TYR182      0.2595
    154  O        -12.0700   19.1020  -39.6780 O.2   182  TYR182     -0.2718
    155  CB       -13.2410   16.8130  -37.5090 C.3   182  TYR182      0.0548
    156  CG       -14.0500   18.0300  -37.1690 C.ar  182  TYR182     -0.0200
    157  CD1      -13.4320   19.1840  -36.7050 C.ar  182  TYR182     -0.0009
    158  CD2      -15.4350   18.0340  -37.3010 C.ar  182  TYR182     -0.0009
    159  CE1      -14.1660   20.3100  -36.3920 C.ar  182  TYR182      0.0417
    160  CE2      -16.1760   19.1650  -36.9940 C.ar  182  TYR182      0.0417
    161  CZ       -15.5320   20.2950  -36.5320 C.ar  182  TYR182      0.1957
    162  OH       -16.2310   21.4340  -36.2120 O.3   182  TYR182     -0.2866
    163  N        -10.5360   18.1300  -38.3430 N.am  183  PHE183     -0.1976
    164  CA        -9.5900   19.2540  -38.3860 C.3   183  PHE183      0.1639
    165  C         -9.1940   19.6080  -39.8340 C.2   183  PHE183      0.2290
    166  O         -9.2130   20.7870  -40.2130 O.2   183  PHE183     -0.2864
    167  CB        -8.3440   18.9130  -37.5510 C.3   183  PHE183      0.0560
    168  CG        -7.4110   20.0680  -37.3380 C.ar  183  PHE183     -0.0200
    169  CD1       -7.6190   20.9660  -36.2970 C.ar  183  PHE183     -0.0042
    170  CD2       -6.3050   20.2460  -38.1680 C.ar  183  PHE183     -0.0042
    171  CE1       -6.7570   22.0190  -36.0960 C.ar  183  PHE183     -0.0003
    172  CE2       -5.4360   21.3030  -37.9640 C.ar  183  PHE183     -0.0003
    173  CZ        -5.6620   22.1900  -36.9250 C.ar  183  PHE183     -0.0000
    174  N        -12.3000   22.1370  -40.3380 N.3   187  GLU187     -0.1231
    175  CA       -11.5850   23.3080  -39.7980 C.3   187  GLU187      0.1699
    176  C        -10.6070   23.9790  -40.7930 C.2   187  GLU187      0.2592
    177  O        -10.4700   25.2060  -40.7730 O.2   187  GLU187     -0.2718
    178  CB       -10.8150   22.9490  -38.5200 C.3   187  GLU187      0.0402
    179  CG       -10.7250   24.1030  -37.5250 C.3   187  GLU187      0.1161
    180  CD       -11.9170   24.1640  -36.5860 C.2   187  GLU187      0.3649
    181  OE1      -12.3460   23.0950  -36.1190 O.co2 187  GLU187     -0.2457
    182  OE2      -12.4310   25.2710  -36.2810 O.co2 187  GLU187     -0.2457
    183  N         -9.9100   23.1780  -41.6040 N.am  188  PHE188     -0.1976
    184  CA        -8.8510   23.6880  -42.5090 C.3   188  PHE188      0.1639
    185  C         -8.8970   23.0830  -43.9330 C.2   188  PHE188      0.2290
    186  O         -7.8890   23.1070  -44.6530 O.2   188  PHE188     -0.2864
    187  CB        -7.4570   23.4910  -41.8540 C.3   188  PHE188      0.0560
    188  CG        -7.1800   24.4540  -40.7210 C.ar  188  PHE188     -0.0200
    189  CD1       -6.7330   25.7500  -40.9820 C.ar  188  PHE188     -0.0042
    190  CD2       -7.3840   24.0780  -39.3930 C.ar  188  PHE188     -0.0042
    191  CE1       -6.4890   26.6480  -39.9510 C.ar  188  PHE188     -0.0003
    192  CE2       -7.1420   24.9730  -38.3530 C.ar  188  PHE188     -0.0003
    193  CZ        -6.6970   26.2600  -38.6330 C.ar  188  PHE188     -0.0000
    194  N        -11.3870   27.5580  -39.9450 N.3   197  GLY197     -0.1225
    195  CA       -10.1970   28.2210  -39.4160 C.3   197  GLY197      0.1811
    196  C         -9.4460   29.0360  -40.4560 C.2   197  GLY197      0.2280
    197  O         -8.7670   30.0050  -40.1170 O.2   197  GLY197     -0.2866
    198  N        -11.6610   32.4000  -41.2240 N.3   200  SER200     -0.1202
    199  CA       -11.5740   33.4900  -40.2520 C.3   200  SER200      0.2020
    200  C        -10.1700   34.0920  -40.0780 C.2   200  SER200      0.2619
    201  O        -10.0070   35.0290  -39.2950 O.2   200  SER200     -0.2717
    202  CB       -12.1190   32.9970  -38.9070 C.3   200  SER200      0.2103
    203  OG       -11.4510   31.8190  -38.4700 O.3   200  SER200     -0.2182
    204  N         -9.1710   33.5620  -40.7900 N.am  201  SER201     -0.1951
    205  CA        -7.8120   34.1230  -40.8060 C.3   201  SER201      0.1924
    206  C         -7.5420   34.8160  -42.1460 C.2   201  SER201      0.2314
    207  O         -7.4150   34.1450  -43.1760 O.2   201  SER201     -0.2863
    208  CB        -6.7750   33.0230  -40.5980 C.3   201  SER201      0.2116
    209  OG        -5.4640   33.5440  -40.7500 O.3   201  SER201     -0.2180
    210  N         -4.0940   33.5570  -43.4480 N.3   204  GLU204     -0.1245
    211  CA        -4.0870   32.1170  -43.7340 C.3   204  GLU204      0.1567
    212  C         -5.0970   31.7550  -44.8140 C.2   204  GLU204      0.2260
    213  O         -4.9100   30.7630  -45.5220 O.2   204  GLU204     -0.2867
    214  CB        -4.2960   31.2400  -42.4860 C.3   204  GLU204      0.0388
    215  CG        -3.6760   29.8570  -42.6730 C.3   204  GLU204      0.1160
    216  CD        -3.7910   28.9250  -41.4770 C.2   204  GLU204      0.3649
    217  OE1       -3.3760   27.7580  -41.6420 O.co2 204  GLU204     -0.2457
    218  OE2       -4.2770   29.3350  -40.3920 O.co2 204  GLU204     -0.2457
    219  N         -1.9720   17.8480  -36.3780 N.3   225  CYS225     -0.1235
    220  CA        -2.7250   19.1000  -36.3910 C.3   225  CYS225      0.1677
    221  C         -1.9030   20.1890  -35.7190 C.2   225  CYS225      0.2270
    222  O         -1.6090   20.0880  -34.5270 O.2   225  CYS225     -0.2867
    223  CB        -4.0630   18.9440  -35.6450 C.3   225  CYS225      0.0956
    224  SG        -5.1080   17.5910  -36.2220 S.3   225  CYS225     -0.0801
    225  N         -1.7020   23.9010  -34.2180 N.3   227  ILE227     -0.1231
    226  CA        -2.7010   24.7360  -33.5420 C.3   227  ILE227      0.1692
    227  C         -2.3860   26.2290  -33.6340 C.2   227  ILE227      0.2592
    228  O         -3.2970   27.0570  -33.7960 O.2   227  ILE227     -0.2718
    229  CB        -2.7980   24.3240  -32.0370 C.3   227  ILE227      0.0266
    230  CG1       -2.9960   22.8070  -31.9000 C.3   227  ILE227      0.0019
    231  CG2       -3.9070   25.0810  -31.3100 C.3   227  ILE227      0.0020
    232  CD1       -4.2290   22.2680  -32.6020 C.3   227  ILE227      0.0001
    233  N         -1.0940   26.5430  -33.4910 N.am  228  THR228     -0.1953
    234  CA        -0.5610   27.8920  -33.3300 C.3   228  THR228      0.1897
    235  C          0.8190   27.9310  -33.9860 C.2   228  THR228      0.2313
    236  O          1.7170   28.5840  -33.4450 O.2   228  THR228     -0.2863
    237  CB        -0.2630   28.1330  -31.8160 C.3   228  THR228      0.1794
    238  OG1        0.8560   27.3300  -31.4090 O.3   228  THR228     -0.2208
    239  CG2       -1.4360   27.7530  -30.9320 C.3   228  THR228      0.0378
@<TRIPOS>BOND
     1   213   212    2
     2   212   211    1
     3   186   185    2
     4   185   184    1
     5   211   210    1
     6   211   214    1
     7   207   206    2
     8   215   214    1
     9   215   216    1
    10   184   187    1
    11   184   183    1
    12   206   205    1
    13   187   188    1
    14   217   216   ar
    15   183   176   am
    16   216   218   ar
    17   198   199    1
    18   189   188   ar
    19   189   191   ar
    20   205   204    1
    21   205   208    1
    22   176   177    2
    23   176   175    1
    24   204   200   am
    25   209   208    1
    26   188   190   ar
    27   196   197    2
    28   196   195    1
    29   174   175    1
    30   199   200    1
    31   199   202    1
    32   166   165    2
    33   200   201    2
    34   191   193   ar
    35   194   195    1
    36   165   164    1
    37   175   178    1
    38   154   153    2
    39   190   192   ar
    40   151   152    1
    41   153   152    1
    42   153   163   am
    43   202   203    1
    44   152   155    1
    45   193   192   ar
    46   178   179    1
    47   164   163    1
    48   164   167    1
    49   170   172   ar
    50   170   168   ar
    51    98    99    1
    52    98    95    1
    53   100    99   ar
    54   100   102   ar
    55    94    95    1
    56   172   173   ar
    57   167   168    1
    58    99   101   ar
    59   179   180    1
    60   155   156    1
    61    95    96    1
    62   102   104   ar
    63   168   169   ar
    64   158   156   ar
    65   158   160   ar
    66   156   157   ar
    67   160   161   ar
    68   139   138    2
    69   173   171   ar
    70   142   144   ar
    71   142   141   ar
    72   144   145   ar
    73   157   159   ar
    74   180   182   ar
    75   180   181   ar
    76   161   159   ar
    77   161   162    1
    78   101   103   ar
    79    92    91    1
    80   104   103   ar
    81   104   105    1
    82   220   219    1
    83   220   221    1
    84   220   223    1
    85   169   171   ar
    86   149   148    2
    87   224   223    1
    88   138   137    1
    89    93    91    1
    90   137   136    1
    91   137   140    1
    92    96    97    2
    93    96   106   am
    94   148   147    1
    95   221   222    2
    96    91    90    2
    97   141   140    1
    98   141   143   ar
    99   145   143   ar
   100   106   107    1
   101   146   147    1
   102   147   150    1
   103    90    89    1
   104   109   108    2
   105    89    88    1
   106   225   226    1
   107   235   236    2
   108   235   234    1
   109   107   108    1
   110   107   110    1
   111    82    80    1
   112   228   227    2
   113   108   113   am
   114   227   226    1
   115   227   233   am
   116   112   110    1
   117   226   229    1
   118   233   234    1
   119   234   237    1
   120   110   111    1
   121    81    80    1
   122    88    87    1
   123    80    79    1
   124   232   230    1
   125   113   114    1
   126   113   119    1
   127    72    74   ar
   128    72    70   ar
   129   114   117    1
   130   114   115    1
   131   229   230    1
   132   229   231    1
   133    79    76    1
   134    78    77    2
   135   237   238    1
   136   237   239    1
   137    87    84    1
   138    74    73   ar
   139   133   130    1
   140   133   134    1
   141   130   129    1
   142   130   131    1
   143    70    69   ar
   144   119   118    1
   145   117   118    1
   146    76    77    1
   147    76    75    1
   148   115   116    2
   149   115   120   am
   150   123   122    2
   151   120   121    1
   152   129   122   am
   153   129   135    1
   154   122   121    1
   155   131   132    2
   156   134   135    1
   157    67    66    2
   158    75    66   am
   159    73    71   ar
   160    84    83    1
   161    84    85    1
   162    48    47    1
   163    69    71   ar
   164    69    68    1
   165    86    85    2
   166   121   124    1
   167    66    65    1
   168    45    47   ar
   169    45    43   ar
   170    61    62    1
   171    61    58    1
   172    60    59    2
   173    68    65    1
   174    47    46   ar
   175    62    63    1
   176    58    59    1
   177    58    57    1
   178    65    64    1
   179   124   125    1
   180    43    42   ar
   181    46    44   ar
   182   125   126    1
   183    57    63    1
   184    42    44   ar
   185    42    41    1
   186   126   127   ar
   187   126   128   ar
   188    52    51    2
   189    41    38    1
   190    38    37    1
   191    38    39    1
   192    49    39   am
   193    49    50    1
   194    20    19    1
   195    51    50    1
   196    53    50    1
   197    53    54    1
   198    55    54    1
   199    39    40    2
   200    54    56    1
   201    28    26    1
   202     7     6    1
   203    17    19   ar
   204    17    15   ar
   205    19    18   ar
   206    27    26    1
   207    31    32    2
   208    31    30    1
   209    26    25    1
   210    18    16   ar
   211    15    14   ar
   212     6     5    1
   213     6     8    1
   214    25    22    1
   215    33    30    1
   216    33    34    1
   217    29    30    1
   218    29    23   am
   219     5     2    1
   220    22    23    1
   221    22    21    1
   222    36    34   ar
   223    23    24    2
   224    16    14   ar
   225    14    13    1
   226    34    35   ar
   227     4     3    2
   228     1     2    1
   229     2     3    1
   230    13    10    1
   231    10     9    1
   232    10    11    1
   233    11    12    2
