@<TRIPOS>MOLECULE
tmp/5j6dB00.pdb
 127 125 0 0 0
SMALL
GASTEIGER

@<TRIPOS>ATOM
      1  N        -19.1760   28.4660  -24.9180 N.3   102  VAL102     -0.1245
      2  CA       -18.1380   27.6360  -24.3120 C.3   102  VAL102      0.1561
      3  C        -16.9250   28.5040  -23.9960 C.2   102  VAL102      0.2260
      4  O        -16.5670   29.4050  -24.7710 O.2   102  VAL102     -0.2867
      5  CB       -17.7910   26.4430  -25.2370 C.3   102  VAL102      0.0252
      6  CG1      -16.8540   26.8530  -26.3760 C.3   102  VAL102      0.0019
      7  CG2      -17.2430   25.2730  -24.4370 C.3   102  VAL102      0.0019
      8  N        -13.7940   27.7550  -23.7960 N.3   104  GLY104     -0.1210
      9  CA       -12.5990   27.4180  -24.5380 C.3   104  GLY104      0.1956
     10  C        -12.7810   26.0740  -25.2050 C.2   104  GLY104      0.2612
     11  O        -13.9180   25.6680  -25.5110 O.2   104  GLY104     -0.2717
     12  N        -11.6690   25.3850  -25.4360 N.am  105  TYR105     -0.1962
     13  CA       -11.7030   24.0470  -26.0140 C.3   105  TYR105      0.1771
     14  C        -12.3910   23.0540  -25.0570 C.2   105  TYR105      0.2619
     15  O        -12.2560   23.1720  -23.8420 O.2   105  TYR105     -0.2715
     16  CB       -10.3030   23.5250  -26.2830 C.3   105  TYR105      0.0574
     17  CG        -9.4940   24.2190  -27.3630 C.ar  105  TYR105     -0.0198
     18  CD1       -9.5350   23.7760  -28.6860 C.ar  105  TYR105     -0.0009
     19  CD2       -8.6210   25.2650  -27.0480 C.ar  105  TYR105     -0.0009
     20  CE1       -8.7650   24.3790  -29.6670 C.ar  105  TYR105      0.0417
     21  CE2       -7.8440   25.8790  -28.0270 C.ar  105  TYR105      0.0417
     22  CZ        -7.9230   25.4370  -29.3300 C.ar  105  TYR105      0.1957
     23  OH        -7.1510   26.0270  -30.2960 O.3   105  TYR105     -0.2866
     24  N        -13.1390   22.1170  -25.6310 N.am  106  LEU106     -0.1977
     25  CA       -13.5700   20.8980  -24.9770 C.3   106  LEU106      0.1596
     26  C        -12.7020   19.8010  -25.5240 C.2   106  LEU106      0.2287
     27  O        -11.9870   20.0200  -26.4910 O.2   106  LEU106     -0.2864
     28  CB       -15.0340   20.5920  -25.3030 C.3   106  LEU106      0.0297
     29  CG       -16.0930   21.5770  -24.8280 C.3   106  LEU106      0.0022
     30  CD1      -17.4880   21.0760  -25.1740 C.3   106  LEU106      0.0001
     31  CD2      -15.9630   21.7960  -23.3300 C.3   106  LEU106      0.0001
     32  N        -16.6320   17.6340  -27.8690 N.3   111  PHE111     -0.1241
     33  CA       -17.0220   18.5550  -28.9440 C.3   111  PHE111      0.1605
     34  C        -17.7340   17.8090  -30.0770 C.2   111  PHE111      0.2264
     35  O        -18.7970   18.2360  -30.5240 O.2   111  PHE111     -0.2867
     36  CB       -15.8420   19.3500  -29.4870 C.3   111  PHE111      0.0534
     37  CG       -16.2630   20.5560  -30.2840 C.ar  111  PHE111     -0.0203
     38  CD1      -16.7070   20.4200  -31.6000 C.ar  111  PHE111     -0.0042
     39  CD2      -16.2680   21.8140  -29.7040 C.ar  111  PHE111     -0.0042
     40  CE1      -17.1240   21.5290  -32.3360 C.ar  111  PHE111     -0.0003
     41  CE2      -16.6820   22.9290  -30.4300 C.ar  111  PHE111     -0.0003
     42  CZ       -17.1120   22.7820  -31.7520 C.ar  111  PHE111     -0.0000
     43  N        -23.4560   22.9390  -31.8570 N.3   120  PHE120     -0.1227
     44  CA       -22.1080   23.4590  -32.0530 C.3   120  PHE120      0.1736
     45  C        -21.7760   24.3760  -30.8820 C.2   120  PHE120      0.2595
     46  O        -22.4620   25.3670  -30.6650 O.2   120  PHE120     -0.2718
     47  CB       -22.0000   24.2230  -33.3850 C.3   120  PHE120      0.0547
     48  CG       -20.5920   24.3740  -33.8680 C.ar  120  PHE120     -0.0202
     49  CD1      -19.8040   25.4140  -33.4170 C.ar  120  PHE120     -0.0042
     50  CD2      -20.0360   23.4400  -34.7370 C.ar  120  PHE120     -0.0042
     51  CE1      -18.4920   25.5500  -33.8430 C.ar  120  PHE120     -0.0003
     52  CE2      -18.7240   23.5690  -35.1620 C.ar  120  PHE120     -0.0003
     53  CZ       -17.9540   24.6280  -34.7180 C.ar  120  PHE120     -0.0000
     54  N        -20.7260   24.0470  -30.1240 N.am  121  HIS121     -0.1975
     55  CA       -20.2750   24.8920  -29.0110 C.3   121  HIS121      0.1656
     56  C        -19.4170   26.0460  -29.5490 C.2   121  HIS121      0.2291
     57  O        -18.4590   25.7960  -30.2940 O.2   121  HIS121     -0.2864
     58  CB       -19.4730   24.0710  -28.0030 C.3   121  HIS121      0.0771
     59  CG       -20.2690   23.0200  -27.2880 C.ar  121  HIS121      0.0820
     60  ND1      -20.5420   21.7870  -27.8370 N.ar  121  HIS121     -0.2267
     61  CD2      -20.7980   22.9970  -26.0370 C.ar  121  HIS121      0.1154
     62  CE1      -21.2250   21.0580  -26.9680 C.ar  121  HIS121      0.1986
     63  NE2      -21.3970   21.7710  -25.8700 N.ar  121  HIS121     -0.2212
     64  N        -17.2380   29.8620  -28.8350 N.3   123  THR123     -0.1218
     65  CA       -16.6610   30.9400  -28.0410 C.3   123  THR123      0.1862
     66  C        -17.3380   32.2870  -28.3530 C.2   123  THR123      0.2287
     67  O        -17.8370   32.5000  -29.4570 O.2   123  THR123     -0.2866
     68  CB       -15.1440   31.0540  -28.2500 C.3   123  THR123      0.1770
     69  OG1      -14.8520   31.1900  -29.6470 O.3   123  THR123     -0.2211
     70  CG2      -14.4300   29.8040  -27.6870 C.3   123  THR123      0.0375
     71  N         -9.1000   29.8540  -30.9890 N.3   138  PRO138     -0.2116
     72  CA       -10.3740   30.2260  -31.6140 C.3   138  PRO138      0.1372
     73  C        -11.1380   31.2740  -30.8190 C.2   138  PRO138      0.2244
     74  O        -11.1140   31.2450  -29.5930 O.2   138  PRO138     -0.2868
     75  CB       -11.1500   28.9020  -31.6650 C.3   138  PRO138      0.0268
     76  CG       -10.5320   28.0540  -30.6220 C.3   138  PRO138      0.0207
     77  CD        -9.0870   28.4350  -30.5950 C.3   138  PRO138      0.0892
     78  N        -14.0680   33.7390  -35.3710 N.3   142  HIS142     -0.1226
     79  CA       -13.9100   32.4310  -35.9870 C.3   142  HIS142      0.1752
     80  C        -15.1850   31.5930  -35.9970 C.2   142  HIS142      0.2595
     81  O        -15.4400   30.8750  -36.9680 O.2   142  HIS142     -0.2718
     82  CB       -12.7580   31.6820  -35.3230 C.3   142  HIS142      0.0759
     83  CG       -12.7270   30.2230  -35.6240 C.ar  142  HIS142      0.0818
     84  ND1      -12.6100   29.7260  -36.9000 N.ar  142  HIS142     -0.2268
     85  CD2      -12.8090   29.1500  -34.8070 C.ar  142  HIS142      0.1154
     86  CE1      -12.6190   28.4070  -36.8580 C.ar  142  HIS142      0.1986
     87  NE2      -12.7400   28.0340  -35.5980 N.ar  142  HIS142     -0.2212
     88  N        -15.9910   31.6800  -34.9460 N.am  143  GLU143     -0.1979
     89  CA       -17.2270   30.8980  -34.9080 C.3   143  GLU143      0.1602
     90  C        -18.2150   31.4730  -35.9330 C.2   143  GLU143      0.2287
     91  O        -18.7720   30.7420  -36.7540 O.2   143  GLU143     -0.2864
     92  CB       -17.8780   30.8770  -33.5110 C.3   143  GLU143      0.0415
     93  CG       -16.9800   30.5930  -32.2960 C.3   143  GLU143      0.1163
     94  CD       -16.2200   29.2700  -32.3300 C.2   143  GLU143      0.3649
     95  OE1      -15.3300   29.1120  -31.4730 O.co2 143  GLU143     -0.2457
     96  OE2      -16.4990   28.3940  -33.1720 O.co2 143  GLU143     -0.2457
     97  N        -17.6590   29.2590  -39.1460 N.3   147  HIS147     -0.1241
     98  CA       -18.4480   28.0320  -38.9360 C.3   147  HIS147      0.1621
     99  C        -19.9170   28.0990  -39.3280 C.2   147  HIS147      0.2264
    100  O        -20.4160   27.2020  -40.0120 O.2   147  HIS147     -0.2867
    101  CB       -18.3300   27.5700  -37.4680 C.3   147  HIS147      0.0745
    102  CG       -17.1580   26.6780  -37.2230 C.ar  147  HIS147      0.0817
    103  ND1      -17.1210   25.3790  -37.6780 N.ar  147  HIS147     -0.2268
    104  CD2      -15.9710   26.9010  -36.6140 C.ar  147  HIS147      0.1154
    105  CE1      -15.9660   24.8330  -37.3520 C.ar  147  HIS147      0.1986
    106  NE2      -15.2530   25.7300  -36.6950 N.ar  147  HIS147     -0.2212
    107  N        -11.7390   15.6760  -39.0920 N.3   182  TYR182     -0.1241
    108  CA       -12.5400   16.8790  -38.8820 C.3   182  TYR182      0.1605
    109  C        -11.6850   18.1380  -39.0090 C.2   182  TYR182      0.2264
    110  O        -12.0700   19.1020  -39.6780 O.2   182  TYR182     -0.2867
    111  CB       -13.2410   16.8130  -37.5090 C.3   182  TYR182      0.0534
    112  CG       -14.0500   18.0300  -37.1690 C.ar  182  TYR182     -0.0201
    113  CD1      -13.4320   19.1840  -36.7050 C.ar  182  TYR182     -0.0009
    114  CD2      -15.4350   18.0340  -37.3010 C.ar  182  TYR182     -0.0009
    115  CE1      -14.1660   20.3100  -36.3920 C.ar  182  TYR182      0.0417
    116  CE2      -16.1760   19.1650  -36.9940 C.ar  182  TYR182      0.0417
    117  CZ       -15.5320   20.2950  -36.5320 C.ar  182  TYR182      0.1957
    118  OH       -16.2310   21.4340  -36.2120 O.3   182  TYR182     -0.2866
    119  N        -12.3000   22.1370  -40.3380 N.3   187  GLU187     -0.1245
    120  CA       -11.5850   23.3080  -39.7980 C.3   187  GLU187      0.1567
    121  C        -10.6070   23.9790  -40.7930 C.2   187  GLU187      0.2260
    122  O        -10.4700   25.2060  -40.7730 O.2   187  GLU187     -0.2867
    123  CB       -10.8150   22.9490  -38.5200 C.3   187  GLU187      0.0388
    124  CG       -10.7250   24.1030  -37.5250 C.3   187  GLU187      0.1160
    125  CD       -11.9170   24.1640  -36.5860 C.2   187  GLU187      0.3649
    126  OE1      -12.3460   23.0950  -36.1190 O.co2 187  GLU187     -0.2457
    127  OE2      -12.4310   25.2710  -36.2810 O.co2 187  GLU187     -0.2457
@<TRIPOS>BOND
     1   121   122    2
     2   121   120    1
     3   119   120    1
     4   100    99    2
     5   120   123    1
     6   110   109    2
     7    99    98    1
     8    97    98    1
     9   107   108    1
    10   109   108    1
    11    98   101    1
    12   108   111    1
    13   123   124    1
    14   103   105   ar
    15   103   102   ar
    16   124   125    1
    17   111   112    1
    18   101   102    1
    19   105   106   ar
    20   114   112   ar
    21   114   116   ar
    22   102   104   ar
    23   112   113   ar
    24   116   117   ar
    25    81    80    2
    26    84    86   ar
    27    84    83   ar
    28    86    87   ar
    29    91    90    2
    30   113   115   ar
    31   106   104   ar
    32   125   127   ar
    33   125   126   ar
    34   117   115   ar
    35   117   118    1
    36    80    79    1
    37    80    88   am
    38    79    78    1
    39    79    82    1
    40    90    89    1
    41    83    82    1
    42    83    85   ar
    43    87    85   ar
    44    52    50   ar
    45    52    53   ar
    46    88    89    1
    47    89    92    1
    48    50    48   ar
    49    53    51   ar
    50    48    49   ar
    51    48    47    1
    52    51    49   ar
    53    92    93    1
    54    47    44    1
    55    96    94   ar
    56    40    42   ar
    57    40    38   ar
    58    94    93    1
    59    94    95   ar
    60    44    43    1
    61    44    45    1
    62    42    41   ar
    63    75    72    1
    64    75    76    1
    65    72    71    1
    66    72    73    1
    67    38    37   ar
    68    71    77    1
    69    45    46    2
    70    45    54   am
    71    73    74    2
    72    76    77    1
    73    35    34    2
    74    41    39   ar
    75    23    22    1
    76    57    56    2
    77    37    39   ar
    78    37    36    1
    79    54    55    1
    80    34    33    1
    81    20    22   ar
    82    20    18   ar
    83    69    68    1
    84    56    55    1
    85    36    33    1
    86    67    66    2
    87    22    21   ar
    88    55    58    1
    89    33    32    1
    90    64    65    1
    91    18    17   ar
    92    66    65    1
    93    68    65    1
    94    68    70    1
    95    21    19   ar
    96    58    59    1
    97    60    59   ar
    98    60    62   ar
    99    17    19   ar
   100    17    16    1
   101    59    61   ar
   102    62    63   ar
   103    27    26    2
   104     6     5    1
   105    16    13    1
   106    61    63   ar
   107    13    12    1
   108    13    14    1
   109    24    14   am
   110    24    25    1
   111    26    25    1
   112    11    10    2
   113    12    10   am
   114    28    25    1
   115    28    29    1
   116     5     7    1
   117     5     2    1
   118    10     9    1
   119    30    29    1
   120    14    15    2
   121     1     2    1
   122    29    31    1
   123     4     3    2
   124     9     8    1
   125     2     3    1
