@<TRIPOS>MOLECULE
tmp/5j6fA00.pdb
 127 119 0 0 0
SMALL
GASTEIGER

@<TRIPOS>ATOM
      1  N        -54.7280   24.3230   18.5420 N.3    25  ARG25      -0.1245
      2  CA       -53.9890   25.5500   18.3530 C.3    25  ARG25       0.1563
      3  C        -52.8360   25.4150   17.3940 C.2    25  ARG25       0.2260
      4  O        -52.6640   26.2350   16.4800 O.2    25  ARG25      -0.2867
      5  CB       -53.4210   26.0590   19.6990 C.3    25  ARG25       0.0307
      6  CG       -53.1710   27.5670   19.7300 C.3    25  ARG25       0.0489
      7  CD       -52.3340   28.0140   20.8880 C.3    25  ARG25       0.2205
      8  NE       -52.1510   29.4500   20.7250 N.pl3  25  ARG25      -0.0865
      9  CZ       -51.1660   30.0330   20.0430 C.cat  25  ARG25       0.5346
     10  NH1      -50.2060   29.3200   19.4580 N.pl3  25  ARG25       0.1354
     11  NH2      -51.1440   31.3590   19.9680 N.pl3  25  ARG25       0.1354
     12  N        -52.2820   27.2450   13.7690 N.3    29  VAL29      -0.1245
     13  CA       -51.0670   27.9200   13.5000 C.3    29  VAL29       0.1561
     14  C        -50.4190   27.4390   12.2030 C.2    29  VAL29       0.2260
     15  O        -49.7640   28.2100   11.5190 O.2    29  VAL29      -0.2867
     16  CB       -50.1450   27.7300   14.6840 C.3    29  VAL29       0.0252
     17  CG1      -48.6800   27.9920   14.3180 C.3    29  VAL29       0.0019
     18  CG2      -50.6060   28.6550   15.7980 C.3    29  VAL29       0.0019
     19  N        -52.0430   29.1040    9.4040 N.3    32  ILE32      -0.1245
     20  CA       -51.5850   30.4810    9.2610 C.3    32  ILE32       0.1561
     21  C        -50.2300   30.5530    8.5870 C.2    32  ILE32       0.2260
     22  O        -49.9660   31.4270    7.7610 O.2    32  ILE32      -0.2867
     23  CB       -51.4780   31.1590   10.6260 C.3    32  ILE32       0.0252
     24  CG1      -52.8560   31.4010   11.2110 C.3    32  ILE32       0.0019
     25  CG2      -50.7310   32.4860   10.5300 C.3    32  ILE32       0.0019
     26  CD1      -52.7890   31.7420   12.6780 C.3    32  ILE32       0.0001
     27  N        -49.0030   32.7280    5.5300 N.3    36  LYS36      -0.1245
     28  CA       -47.8300   33.5920    5.6090 C.3    36  LYS36       0.1561
     29  C        -46.7130   33.1920    4.6320 C.2    36  LYS36       0.2260
     30  O        -46.1210   34.0260    4.0080 O.2    36  LYS36      -0.2867
     31  CB       -47.3170   33.5890    7.0190 C.3    36  LYS36       0.0271
     32  CG       -48.1710   34.3590    8.0610 C.3    36  LYS36       0.0035
     33  CD       -47.3100   34.6470    9.3110 C.3    36  LYS36       0.0206
     34  CE       -47.9080   35.5360   10.3870 C.3    36  LYS36       0.1093
     35  NZ       -46.9990   35.5310   11.5830 N.3    36  LYS36      -0.1314
     36  N        -42.3330   35.3560    9.7070 N.3    43  ARG43      -0.1227
     37  CA       -42.9880   34.3250   10.5400 C.3    43  ARG43       0.1737
     38  C        -43.3440   35.0200   11.9380 C.2    43  ARG43       0.2595
     39  O        -44.4680   34.8950   12.4170 O.2    43  ARG43      -0.2718
     40  CB       -42.2170   32.9320   10.5440 C.3    43  ARG43       0.0576
     41  CG       -42.0890   32.2940    9.1840 C.2    43  ARG43       0.0160
     42  CD       -42.2260   30.7910    9.1130 C.2    43  ARG43       0.1886
     43  NE       -41.9020   30.1940    7.8280 N.pl3  43  ARG43      -0.0578
     44  CZ       -42.0820   30.6640    6.6010 C.cat  43  ARG43       0.5393
     45  NH1      -42.6100   31.8550    6.3020 N.pl3  43  ARG43       0.1358
     46  NH2      -41.6860   29.8970    5.5760 N.pl3  43  ARG43       0.1358
     47  N        -42.4710   35.8720   12.4650 N.am   44  TYR44      -0.1962
     48  CA       -42.5720   36.3240   13.8480 C.3    44  TYR44       0.1771
     49  C        -43.1750   37.6950   13.9380 C.2    44  TYR44       0.2619
     50  O        -42.5920   38.6330   13.4470 O.2    44  TYR44      -0.2715
     51  CB       -41.1760   36.3520   14.4870 C.3    44  TYR44       0.0574
     52  CG       -41.0980   37.0190   15.8570 C.ar   44  TYR44      -0.0198
     53  CD1      -41.9360   36.6320   16.9110 C.ar   44  TYR44      -0.0009
     54  CD2      -40.1610   38.0380   16.1170 C.ar   44  TYR44      -0.0009
     55  CE1      -41.8590   37.2490   18.1740 C.ar   44  TYR44       0.0417
     56  CE2      -40.0820   38.6520   17.3800 C.ar   44  TYR44       0.0417
     57  CZ       -40.9450   38.2630   18.3980 C.ar   44  TYR44       0.1957
     58  OH       -40.8930   38.8740   19.6440 O.3    44  TYR44      -0.2866
     59  N        -44.2910   37.8270   14.6560 N.am   45  ASP45      -0.1971
     60  CA       -44.9850   39.1200   14.7960 C.3    45  ASP45       0.1709
     61  C        -45.1750   39.5530   16.2660 C.2    45  ASP45       0.2293
     62  O        -46.2090   39.3000   16.8870 O.2    45  ASP45      -0.2864
     63  CB       -46.3070   39.0680   14.0580 C.3    45  ASP45       0.1436
     64  CG       -46.9520   40.4230   13.8890 C.2    45  ASP45       0.3671
     65  OD1      -46.5100   41.4620   14.4720 O.co2  45  ASP45      -0.2456
     66  OD2      -47.9400   40.4300   13.1250 O.co2  45  ASP45      -0.2456
     67  N        -48.4100   41.3630   16.9870 N.3    48  ARG48      -0.1231
     68  CA       -49.4500   40.3520   17.1600 C.3    48  ARG48       0.1694
     69  C        -49.3870   39.6360   18.5270 C.2    48  ARG48       0.2591
     70  O        -50.4290   39.3130   19.1130 O.2    48  ARG48      -0.2718
     71  CB       -49.3780   39.3150   16.0110 C.3    48  ARG48       0.0321
     72  CG       -50.2340   38.0430   16.1470 C.3    48  ARG48       0.0489
     73  CD       -51.7370   38.2380   16.3080 C.3    48  ARG48       0.2205
     74  NE       -52.3840   36.9190   16.3460 N.pl3  48  ARG48      -0.0865
     75  CZ       -53.6010   36.6450   16.8290 C.cat  48  ARG48       0.5346
     76  NH1      -54.3670   37.6060   17.3240 N.pl3  48  ARG48       0.1354
     77  NH2      -54.0680   35.3900   16.8280 N.pl3  48  ARG48       0.1354
     78  N        -48.1780   39.3290   18.9800 N.am   49  GLU49      -0.1979
     79  CA       -48.0470   38.6030   20.2140 C.3    49  GLU49       0.1602
     80  C        -48.5070   39.4400   21.3360 C.2    49  GLU49       0.2287
     81  O        -49.2940   38.9820   22.1450 O.2    49  GLU49      -0.2864
     82  CB       -46.6260   38.1290   20.4640 C.3    49  GLU49       0.0415
     83  CG       -46.3670   36.8150   19.7320 C.3    49  GLU49       0.1163
     84  CD       -45.0740   36.1350   20.0540 C.2    49  GLU49       0.3649
     85  OE1      -44.3410   36.5780   21.0180 O.co2  49  GLU49      -0.2457
     86  OE2      -44.8480   35.1280   19.3010 O.co2  49  GLU49      -0.2457
     87  N        -52.1260   39.5050   21.5770 N.3    52  MET52      -0.1245
     88  CA       -52.6730   38.2920   22.1960 C.3    52  MET52       0.1570
     89  C        -52.4370   38.2990   23.6990 C.2    52  MET52       0.2261
     90  O        -53.3090   37.9110   24.4530 O.2    52  MET52      -0.2867
     91  CB       -52.0700   37.0290   21.5810 C.3    52  MET52       0.0387
     92  CG       -52.5740   36.6400   20.1910 C.3    52  MET52       0.0595
     93  SD       -51.9730   34.9860   19.6970 S.3    52  MET52      -0.1393
     94  CE       -50.2090   35.2980   19.6200 C.3    52  MET52       0.0692
     95  N        -46.2830   30.3430   22.1120 N.3    77  PHE77      -0.1241
     96  CA       -46.1460   31.0590   20.8690 C.3    77  PHE77       0.1605
     97  C        -44.8200   30.7050   20.2390 C.2    77  PHE77       0.2264
     98  O        -44.7800   30.5510   19.0350 O.2    77  PHE77      -0.2867
     99  CB       -46.1880   32.5590   21.0710 C.3    77  PHE77       0.0534
    100  CG       -47.4020   33.0870   21.7890 C.ar   77  PHE77      -0.0203
    101  CD1      -48.5550   32.3680   21.9200 C.ar   77  PHE77      -0.0042
    102  CD2      -47.3890   34.3780   22.3110 C.ar   77  PHE77      -0.0042
    103  CE1      -49.6630   32.9090   22.5980 C.ar   77  PHE77      -0.0003
    104  CE2      -48.4990   34.9110   22.9620 C.ar   77  PHE77      -0.0003
    105  CZ       -49.6430   34.1640   23.1140 C.ar   77  PHE77      -0.0000
    106  N        -45.2550   27.4100   18.6390 N.3    80  ALA80      -0.1231
    107  CA       -46.0170   27.6400   17.4290 C.3    80  ALA80       0.1694
    108  C        -45.0910   28.2070   16.3320 C.2    80  ALA80       0.2591
    109  O        -45.0230   27.6730   15.2440 O.2    80  ALA80      -0.2718
    110  CB       -47.1500   28.5670   17.7130 C.3    80  ALA80       0.0304
    111  N        -44.3480   29.2540   16.6230 N.am   81  LEU81      -0.1980
    112  CA       -43.3840   29.7300   15.6690 C.3    81  LEU81       0.1596
    113  C        -42.4340   28.6240   15.2050 C.2    81  LEU81       0.2287
    114  O        -42.2920   28.4020   14.0260 O.2    81  LEU81      -0.2864
    115  CB       -42.5810   30.8660   16.2410 C.3    81  LEU81       0.0297
    116  CG       -41.6800   31.5770   15.2390 C.3    81  LEU81       0.0022
    117  CD1      -42.4370   32.5530   14.3590 C.3    81  LEU81       0.0001
    118  CD2      -40.5870   32.3450   15.9590 C.3    81  LEU81       0.0001
    119  N        -43.7510   26.3600   12.5010 N.3    84  GLN84      -0.1196
    120  CA       -43.8620   26.9330   11.1870 C.3    84  GLN84       0.1782
    121  C        -42.5040   26.8430   10.5900 C.2    84  GLN84       0.2306
    122  O        -42.3970   26.3550    9.4800 O.2    84  GLN84      -0.2863
    123  CB       -44.3130   28.4150   11.2040 C.2    84  GLN84       0.0051
    124  CG       -45.7170   28.6700   11.7600 C.2    84  GLN84       0.0584
    125  CD       -46.1220   30.1420   11.9000 C.2    84  GLN84       0.2840
    126  OE1      -45.2940   31.0320   12.0920 O.2    84  GLN84      -0.2667
    127  NE2      -47.4170   30.3970   11.7980 N.am   84  GLN84      -0.0837
@<TRIPOS>BOND
     1    30    29    2
     2    29    28    1
     3    27    28    1
     4    46    44    1
     5    28    31    1
     6    45    44    1
     7    44    43    2
     8    31    32    1
     9    22    21    2
    10    43    42    1
    11    32    33    1
    12    21    20    1
    13    42    41    2
    14    41    40    1
    15    20    19    1
    16    20    23    1
    17    33    34    1
    18   122   121    2
    19    36    37    1
    20    34    35    1
    21    25    23    1
    22    37    40    1
    23    37    38    1
    24   121   120    1
    25    23    24    1
    26   120   123    1
    27   120   119    1
    28   123   124    2
    29    24    26    1
    30    15    14    2
    31   124   125    1
    32   127   125   am
    33   125   126    2
    34    38    39    2
    35    38    47   am
    36    14    13    1
    37    47    48    1
    38    66    64   ar
    39    50    49    2
    40    13    12    1
    41    13    16    1
    42    48    49    1
    43    48    51    1
    44    64    63    1
    45    64    65   ar
    46    49    59   am
    47   114   113    2
    48    63    60    1
    49    17    16    1
    50   117   116    1
    51    51    52    1
    52    59    60    1
    53    16    18    1
    54    60    61    1
    55   113   112    1
    56   116   118    1
    57   116   115    1
    58   109   108    2
    59   112   115    1
    60   112   111    1
    61    52    54   ar
    62    52    53   ar
    63    71    72    1
    64    71    68    1
    65    54    56   ar
    66    72    73    1
    67    61    62    2
    68    73    74    1
    69   108   111   am
    70   108   107    1
    71    74    75    2
    72     4     3    2
    73    77    75    1
    74    75    76    1
    75    53    55   ar
    76    67    68    1
    77    68    69    1
    78    56    57   ar
    79     3     2    1
    80   107   110    1
    81   107   106    1
    82    55    57   ar
    83     2     1    1
    84     2     5    1
    85    57    58    1
    86    69    78   am
    87    69    70    2
    88    78    79    1
    89    98    97    2
    90    86    84   ar
    91    10     9    1
    92    94    93    1
    93    93    92    1
    94     5     6    1
    95     6     7    1
    96    83    84    1
    97    83    82    1
    98    11     9    1
    99     9     8    2
   100    84    85   ar
   101    92    91    1
   102    79    82    1
   103    79    80    1
   104    97    96    1
   105     8     7    1
   106    96    99    1
   107    96    95    1
   108    99   100    1
   109    80    81    2
   110    87    88    1
   111    91    88    1
   112   100   101   ar
   113   100   102   ar
   114   101   103   ar
   115    88    89    1
   116   102   104   ar
   117   103   105   ar
   118   104   105   ar
   119    89    90    2
