@<TRIPOS>MOLECULE
tmp/5j6lA00.pdb
 163 153 0 0 0
SMALL
GASTEIGER

@<TRIPOS>ATOM
      1  N        -32.6320  -11.6250   16.3740 N.3    33  LEU33      -0.1245
      2  CA       -32.0360  -12.2210   17.5840 C.3    33  LEU33       0.1561
      3  C        -30.7360  -11.5160   17.9420 C.2    33  LEU33       0.2260
      4  O        -30.5740  -11.1440   19.0960 O.2    33  LEU33      -0.2867
      5  CB       -31.8610  -13.7420   17.4230 C.3    33  LEU33       0.0270
      6  CG       -33.1780  -14.5340   17.2360 C.3    33  LEU33       0.0019
      7  CD1      -32.9000  -16.0190   16.9800 C.3    33  LEU33       0.0001
      8  CD2      -34.1240  -14.3230   18.4060 C.3    33  LEU33       0.0001
      9  N        -31.7090   -8.0280   19.4360 N.3    36  ASN36      -0.1225
     10  CA       -32.1420   -8.1990   20.8120 C.3    36  ASN36       0.1785
     11  C        -30.9340   -8.4030   21.7250 C.2    36  ASN36       0.2597
     12  O        -30.8630   -7.7590   22.7690 O.2    36  ASN36      -0.2718
     13  CB       -33.1400   -9.3490   20.9160 C.3    36  ASN36       0.1169
     14  CG       -34.5370   -8.9550   20.4650 C.2    36  ASN36       0.2627
     15  OD1      -34.7390   -7.9380   19.7980 O.2    36  ASN36      -0.2716
     16  ND2      -35.5360   -9.7240   20.8610 N.am   36  ASN36      -0.0877
     17  N        -29.9770   -9.2540   21.3100 N.am   37  SER37      -0.1952
     18  CA       -28.7370   -9.4980   22.0820 C.3    37  SER37       0.1924
     19  C        -27.9560   -8.1720   22.2660 C.2    37  SER37       0.2314
     20  O        -27.5580   -7.8540   23.3880 O.2    37  SER37      -0.2863
     21  CB       -27.8640  -10.5480   21.4000 C.3    37  SER37       0.2116
     22  OG       -28.4330  -11.8520   21.4860 O.3    37  SER37      -0.2180
     23  N        -29.0990   -5.0640   22.1690 N.3    39  ASP39      -0.1225
     24  CA       -29.8950   -4.2410   23.0930 C.3    39  ASP39       0.1805
     25  C        -29.6280   -4.6460   24.5520 C.2    39  ASP39       0.2597
     26  O        -29.3440   -3.7720   25.3670 O.2    39  ASP39      -0.2718
     27  CB       -31.3860   -4.3360   22.7560 C.3    39  ASP39       0.1424
     28  CG       -31.7740   -3.6590   21.4490 C.2    39  ASP39       0.3668
     29  OD1      -30.8910   -3.0300   20.8110 O.co2  39  ASP39      -0.2456
     30  OD2      -32.9470   -3.7680   21.0570 O.co2  39  ASP39      -0.2456
     31  N        -29.6520   -5.9720   24.8680 N.am   40  ALA40      -0.1979
     32  CA       -29.3560   -6.4960   26.2210 C.3    40  ALA40       0.1597
     33  C        -27.9050   -6.1610   26.6600 C.2    40  ALA40       0.2287
     34  O        -27.6470   -5.8850   27.8360 O.2    40  ALA40      -0.2864
     35  CB       -29.5740   -7.9990   26.2550 C.3    40  ALA40       0.0319
     36  N        -27.7490   -2.5000   27.6410 N.3    43  LYS43      -0.1245
     37  CA       -28.3640   -2.3640   28.9670 C.3    43  LYS43       0.1561
     38  C        -27.3740   -2.6290   30.1010 C.2    43  LYS43       0.2260
     39  O        -27.2820   -1.8130   31.0240 O.2    43  LYS43      -0.2867
     40  CB       -29.6110   -3.2620   29.1070 C.3    43  LYS43       0.0271
     41  CG       -30.7880   -2.8220   28.2400 C.3    43  LYS43       0.0035
     42  CD       -32.0090   -3.7320   28.4340 C.3    43  LYS43       0.0206
     43  CE       -33.0780   -3.4310   27.4100 C.3    43  LYS43       0.1093
     44  NZ       -34.2250   -4.3770   27.5080 N.3    43  LYS43      -0.1314
     45  N        -25.5200  -14.5180   24.3430 N.3    78  ASP78      -0.1239
     46  CA       -25.0290  -13.1830   24.6520 C.3    78  ASP78       0.1674
     47  C        -24.7500  -13.0650   26.1470 C.2    78  ASP78       0.2266
     48  O        -25.3380  -13.7920   26.9430 O.2    78  ASP78      -0.2867
     49  CB       -25.9520  -12.0660   24.1270 C.3    78  ASP78       0.1410
     50  CG       -27.2680  -11.9130   24.8540 C.2    78  ASP78       0.3668
     51  OD1      -27.2470  -11.5300   26.0520 O.co2  78  ASP78      -0.2456
     52  OD2      -28.3300  -12.1600   24.2240 O.co2  78  ASP78      -0.2456
     53  N        -27.6540   -8.1770   29.8010 N.3    81  ILE81      -0.1231
     54  CA       -28.2310   -8.0150   31.1280 C.3    81  ILE81       0.1692
     55  C        -29.0610   -9.2480   31.6020 C.2    81  ILE81       0.2593
     56  O        -29.2370   -9.4410   32.8020 O.2    81  ILE81      -0.2718
     57  CB       -29.0360   -6.6810   31.2130 C.3    81  ILE81       0.0266
     58  CG1      -29.2420   -6.2450   32.6900 C.3    81  ILE81       0.0019
     59  CG2      -30.3410   -6.7200   30.4140 C.3    81  ILE81       0.0020
     60  CD1      -29.6430   -4.7760   32.8690 C.3    81  ILE81       0.0001
     61  N        -29.5450  -10.0550   30.6640 N.am   82  GLY82      -0.1942
     62  CA       -30.3560  -11.2180   31.0020 C.3    82  GLY82       0.2014
     63  C        -31.7750  -10.8320   31.3630 C.2    82  GLY82       0.2638
     64  O        -32.1570   -9.6560   31.2740 O.2    82  GLY82      -0.2714
     65  N        -32.5850  -11.8280   31.7400 N.am   83  MET83      -0.1976
     66  CA       -33.9680  -11.5820   32.0960 C.3    83  MET83       0.1605
     67  C        -34.3350  -12.2900   33.3880 C.2    83  MET83       0.2287
     68  O        -33.9770  -13.4540   33.5900 O.2    83  MET83      -0.2864
     69  CB       -34.9060  -12.0700   30.9650 C.3    83  MET83       0.0413
     70  CG       -34.8040  -11.2450   29.7010 C.3    83  MET83       0.0598
     71  SD       -35.7300  -11.9780   28.3270 S.3    83  MET83      -0.1393
     72  CE       -34.6430  -13.2880   27.8850 C.3    83  MET83       0.0692
     73  N        -39.4630  -10.7410   33.8160 N.3    87  ASP87      -0.1225
     74  CA       -39.1140  -10.2400   32.4780 C.3    87  ASP87       0.1805
     75  C        -39.5690  -11.2140   31.3980 C.2    87  ASP87       0.2597
     76  O        -40.1300  -10.7900   30.3880 O.2    87  ASP87      -0.2718
     77  CB       -37.6000  -10.0000   32.3540 C.3    87  ASP87       0.1424
     78  CG       -37.0600   -8.7920   33.0920 C.2    87  ASP87       0.3668
     79  OD1      -37.8490   -7.8350   33.3380 O.co2  87  ASP87      -0.2456
     80  OD2      -35.8530   -8.7970   33.4310 O.co2  87  ASP87      -0.2456
     81  N        -39.3190  -12.5190   31.6110 N.am   88  LEU88      -0.1979
     82  CA       -39.7090  -13.5880   30.6950 C.3    88  LEU88       0.1596
     83  C        -41.2090  -13.5950   30.4610 C.2    88  LEU88       0.2287
     84  O        -41.6460  -13.5360   29.3110 O.2    88  LEU88      -0.2864
     85  CB       -39.2610  -14.9570   31.2350 C.3    88  LEU88       0.0297
     86  CG       -37.8170  -15.3580   30.9880 C.3    88  LEU88       0.0022
     87  CD1      -37.5170  -16.6940   31.6770 C.3    88  LEU88       0.0001
     88  CD2      -37.5230  -15.5090   29.4630 C.3    88  LEU88       0.0001
     89  N        -42.4020  -10.1960   28.8000 N.3    91  ASN91      -0.1225
     90  CA       -42.0380  -10.1590   27.3750 C.3    91  ASN91       0.1785
     91  C        -42.8500  -11.1440   26.5160 C.2    91  ASN91       0.2597
     92  O        -43.0150  -10.9170   25.3130 O.2    91  ASN91      -0.2718
     93  CB       -40.5450  -10.3400   27.1750 C.3    91  ASN91       0.1169
     94  CG       -39.8050   -9.0410   27.3760 C.2    91  ASN91       0.2627
     95  OD1      -39.7650   -8.1830   26.4920 O.2    91  ASN91      -0.2716
     96  ND2      -39.2590   -8.8390   28.5590 N.am   91  ASN91      -0.0877
     97  N        -43.3660  -12.2200   27.1340 N.am   92  ALA92      -0.1979
     98  CA       -44.2180  -13.1930   26.4500 C.3    92  ALA92       0.1597
     99  C        -45.6970  -12.8080   26.6320 C.2    92  ALA92       0.2287
    100  O        -46.5580  -13.4460   26.0380 O.2    92  ALA92      -0.2864
    101  CB       -43.9590  -14.5990   26.9860 C.3    92  ALA92       0.0319
    102  N        -41.1390   -4.4100   18.0370 N.3   120  GLY120     -0.1225
    103  CA       -40.6420   -4.9910   19.2780 C.3   120  GLY120      0.1811
    104  C        -40.9360   -6.4740   19.4660 C.2   120  GLY120      0.2280
    105  O        -40.7560   -7.0070   20.5670 O.2   120  GLY120     -0.2866
    106  N        -38.1980  -11.2200   18.0720 N.3   123  PHE123     -0.1227
    107  CA       -37.8560  -12.5470   18.6110 C.3   123  PHE123      0.1736
    108  C        -38.6960  -13.6590   17.9520 C.2   123  PHE123      0.2595
    109  O        -38.1380  -14.6890   17.6130 O.2   123  PHE123     -0.2718
    110  CB       -38.0540  -12.6060   20.1430 C.3   123  PHE123      0.0547
    111  CG       -38.0270  -14.0260   20.6810 C.ar  123  PHE123     -0.0202
    112  CD1      -36.8190  -14.6960   20.8650 C.ar  123  PHE123     -0.0042
    113  CD2      -39.2170  -14.7060   20.9690 C.ar  123  PHE123     -0.0042
    114  CE1      -36.8010  -16.0270   21.3250 C.ar  123  PHE123     -0.0003
    115  CE2      -39.1930  -16.0290   21.4500 C.ar  123  PHE123     -0.0003
    116  CZ       -37.9920  -16.6830   21.6080 C.ar  123  PHE123     -0.0000
    117  N        -40.0100  -13.4200   17.7350 N.am  124  TYR124     -0.1976
    118  CA       -40.9470  -14.4200   17.2200 C.3   124  TYR124      0.1639
    119  C        -40.6740  -14.8340   15.7580 C.2   124  TYR124      0.2290
    120  O        -41.1520  -15.9040   15.3470 O.2   124  TYR124     -0.2864
    121  CB       -42.3980  -13.9910   17.4730 C.3   124  TYR124      0.0560
    122  CG       -42.6770  -13.8880   18.9610 C.ar  124  TYR124     -0.0198
    123  CD1      -42.9540  -15.0270   19.7200 C.ar  124  TYR124     -0.0009
    124  CD2      -42.5270  -12.6750   19.6360 C.ar  124  TYR124     -0.0009
    125  CE1      -43.1270  -14.9540   21.1070 C.ar  124  TYR124      0.0417
    126  CE2      -42.6840  -12.5930   21.0250 C.ar  124  TYR124      0.0417
    127  CZ       -42.9960  -13.7360   21.7530 C.ar  124  TYR124      0.1957
    128  OH       -43.1600  -13.6760   23.1180 O.3   124  TYR124     -0.2866
    129  N        -35.0210  -20.8670   25.6490 N.3   135  VAL135     -0.1245
    130  CA       -34.2930  -19.6840   26.0810 C.3   135  VAL135      0.1561
    131  C        -33.7770  -19.9360   27.5070 C.2   135  VAL135      0.2260
    132  O        -34.5770  -20.1830   28.4140 O.2   135  VAL135     -0.2867
    133  CB       -35.2000  -18.4250   26.0260 C.3   135  VAL135      0.0252
    134  CG1      -34.5300  -17.2250   26.6950 C.3   135  VAL135      0.0019
    135  CG2      -35.6490  -18.0990   24.5910 C.3   135  VAL135      0.0019
    136  N        -36.9840  -21.0150   29.5240 N.3   147  TRP147     -0.1241
    137  CA       -38.2660  -20.7090   28.8760 C.3   147  TRP147      0.1605
    138  C        -38.3060  -21.5660   27.6020 C.2   147  TRP147      0.2264
    139  O        -37.2760  -21.7310   26.9630 O.2   147  TRP147     -0.2867
    140  CB       -38.3350  -19.2080   28.5150 C.3   147  TRP147      0.0550
    141  CG       -39.5690  -18.7620   27.7770 C.ar  147  TRP147      0.0003
    142  CD1      -40.6440  -18.1140   28.3090 C.ar  147  TRP147      0.0946
    143  CD2      -39.8040  -18.8300   26.3570 C.ar  147  TRP147      0.0152
    144  NE1      -41.5450  -17.7900   27.3160 N.ar  147  TRP147     -0.2442
    145  CE2      -41.0560  -18.2200   26.1100 C.ar  147  TRP147      0.0810
    146  CE3      -39.0940  -19.3760   25.2690 C.ar  147  TRP147      0.0012
    147  CZ2      -41.6060  -18.1300   24.8220 C.ar  147  TRP147      0.0191
    148  CZ3      -39.6540  -19.3090   23.9970 C.ar  147  TRP147      0.0001
    149  CH2      -40.8800  -18.6680   23.7820 C.ar  147  TRP147      0.0015
    150  N        -28.1810  -14.2830   28.0200 N.3   169  THR169     -0.1218
    151  CA       -29.2590  -15.0640   27.4310 C.3   169  THR169      0.1862
    152  C        -28.7110  -15.9630   26.3310 C.2   169  THR169      0.2287
    153  O        -27.8870  -15.5320   25.5170 O.2   169  THR169     -0.2866
    154  CB       -30.3630  -14.1160   26.9030 C.3   169  THR169      0.1770
    155  OG1      -30.8500  -13.3200   27.9880 O.3   169  THR169     -0.2211
    156  CG2      -31.5600  -14.8690   26.2130 C.3   169  THR169      0.0375
    157  N        -30.3510  -18.3610   23.2860 N.3   171  VAL171     -0.1245
    158  CA       -31.5370  -18.7250   22.5000 C.3   171  VAL171      0.1561
    159  C        -31.1600  -19.9530   21.6720 C.2   171  VAL171      0.2260
    160  O        -30.2940  -19.8680   20.7970 O.2   171  VAL171     -0.2867
    161  CB       -32.0760  -17.5770   21.6030 C.3   171  VAL171      0.0252
    162  CG1      -33.2720  -18.0480   20.7670 C.3   171  VAL171      0.0019
    163  CG2      -32.4340  -16.3380   22.4380 C.3   171  VAL171      0.0019
@<TRIPOS>BOND
     1   120   119    2
     2   119   118    1
     3     1     2    1
     4     7     6    1
     5   118   121    1
     6   118   117    1
     7     6     5    1
     8     6     8    1
     9     5     2    1
    10   121   122    1
    11     2     3    1
    12   109   108    2
    13   117   108   am
    14     3     4    2
    15   108   107    1
    16   102   103    1
    17   106   107    1
    18   107   110    1
    19   122   124   ar
    20   122   123   ar
    21   103   104    1
    22     9    10    1
    23   104   105    2
    24   124   126   ar
    25   123   125   ar
    26    15    14    2
    27   110   111    1
    28    14    16   am
    29    14    13    1
    30   111   112   ar
    31   111   113   ar
    32   162   161    1
    33   160   159    2
    34    29    28   ar
    35    10    13    1
    36    10    11    1
    37   112   114   ar
    38   113   115   ar
    39   126   127   ar
    40    30    28   ar
    41   125   127   ar
    42    17    11   am
    43    17    18    1
    44   114   116   ar
    45    21    22    1
    46    21    18    1
    47    28    27    1
    48   115   116   ar
    49   161   163    1
    50   161   158    1
    51   159   158    1
    52    11    12    2
    53   127   128    1
    54    18    19    1
    55    23    24    1
    56    19    20    2
    57   158   157    1
    58    27    24    1
    59    24    25    1
    60   149   148   ar
    61   149   147   ar
    62   148   146   ar
    63    49    46    1
    64    49    50    1
    65    52    50   ar
    66    45    46    1
    67    25    31   am
    68    25    26    2
    69   135   133    1
    70    46    47    1
    71   147   145   ar
    72    50    51   ar
    73    31    32    1
    74   146   143   ar
    75    92    91    2
    76   153   152    2
    77   129   130    1
    78   133   130    1
    79   133   134    1
    80   100    99    2
    81   130   131    1
    82   145   143   ar
    83   145   144   ar
    84    47    48    2
    85   156   154    1
    86    32    35    1
    87    32    33    1
    88   152   151    1
    89   143   141   ar
    90    98    99    1
    91    98   101    1
    92    98    97    1
    93    95    94    2
    94    91    97   am
    95    91    90    1
    96    33    34    2
    97   154   151    1
    98   154   155    1
    99   139   138    2
   100    93    90    1
   101    93    94    1
   102   144   142   ar
   103    90    89    1
   104    94    96   am
   105    43    44    1
   106    43    42    1
   107   151   150    1
   108   131   132    2
   109   138   137    1
   110    36    37    1
   111   141   142   ar
   112   141   140    1
   113    72    71    1
   114    41    42    1
   115    41    40    1
   116    71    70    1
   117   140   137    1
   118   137   136    1
   119    37    40    1
   120    37    38    1
   121    84    83    2
   122    88    86    1
   123    70    69    1
   124    53    54    1
   125    38    39    2
   126    76    75    2
   127    59    57    1
   128    83    82    1
   129    61    62    1
   130    61    55   am
   131    82    85    1
   132    82    81    1
   133    69    66    1
   134    86    85    1
   135    86    87    1
   136    62    63    1
   137    54    57    1
   138    54    55    1
   139    57    58    1
   140    64    63    2
   141    63    65   am
   142    75    81   am
   143    75    74    1
   144    55    56    2
   145    65    66    1
   146    66    67    1
   147    77    74    1
   148    77    78    1
   149    74    73    1
   150    58    60    1
   151    78    79   ar
   152    78    80   ar
   153    67    68    2
