@<TRIPOS>MOLECULE
tmp/5j6sB05.pdb
 191 185 0 0 0
SMALL
GASTEIGER

@<TRIPOS>ATOM
      1  N         94.4700   16.2270  115.0710 N.3   145  ASP145     -0.1239
      2  CA        93.9300   15.5850  116.2570 C.3   145  ASP145      0.1674
      3  C         95.0580   15.2470  117.1980 C.2   145  ASP145      0.2266
      4  O         95.8400   14.3450  116.9270 O.2   145  ASP145     -0.2867
      5  CB        93.1620   14.3320  115.9130 C.3   145  ASP145      0.1410
      6  CG        92.3350   13.8400  117.0760 C.2   145  ASP145      0.3668
      7  OD1       92.8740   13.1150  117.9400 O.co2 145  ASP145     -0.2456
      8  OD2       91.1490   14.2090  117.1370 O.co2 145  ASP145     -0.2456
      9  N         94.9350   15.1530  120.9880 N.3   147  GLU147     -0.1231
     10  CA        94.8310   14.6340  122.3520 C.3   147  GLU147      0.1684
     11  C         95.1740   13.1430  122.3600 C.2   147  GLU147      0.2434
     12  O         94.6750   12.3900  121.5350 O.2   147  GLU147     -0.2733
     13  CB        93.4420   14.8710  122.9560 C.3   147  GLU147      0.0402
     14  CG        93.4290   14.6200  124.4610 C.3   147  GLU147      0.1161
     15  CD        92.0970   14.8860  125.1410 C.2   147  GLU147      0.3649
     16  OE1       91.0500   14.9560  124.4390 O.co2 147  GLU147     -0.2457
     17  OE2       92.1220   15.0200  126.3910 O.co2 147  GLU147     -0.2457
     18  N         96.0160   12.7100  123.3050 N.am  148  PRO148     -0.2729
     19  CA        96.6860   13.4810  124.3590 C.3   148  PRO148      0.1401
     20  C         98.0180   14.0240  123.9300 C.2   148  PRO148      0.2269
     21  O         98.3450   15.1970  124.1400 O.2   148  PRO148     -0.2865
     22  CB        96.8990   12.4560  125.4790 C.3   148  PRO148      0.0296
     23  CG        96.1390   11.2320  125.0640 C.3   148  PRO148      0.0237
     24  CD        96.0780   11.2710  123.5750 C.3   148  PRO148      0.0939
     25  N        100.6720   13.4770  120.5770 N.3   150  GLN150     -0.1245
     26  CA       100.3390   13.7520  119.1690 C.3   150  GLN150      0.1566
     27  C        100.4710   15.1810  118.5850 C.2   150  GLN150      0.2260
     28  O        100.5860   15.3290  117.3860 O.2   150  GLN150     -0.2867
     29  CB        98.9140   13.2450  118.9360 C.3   150  GLN150      0.0367
     30  CG        98.7810   11.7940  119.3560 C.3   150  GLN150      0.0905
     31  CD        97.3580   11.3630  119.5530 C.2   150  GLN150      0.2608
     32  OE1       96.4460   11.9220  118.9460 O.2   150  GLN150     -0.2717
     33  NE2       97.1500   10.3570  120.4060 N.am  150  GLN150     -0.0878
     34  N         88.3440    9.4350  117.2820 N.3   280  PRO280     -0.2102
     35  CA        87.3150    9.4320  118.3220 C.3   280  PRO280      0.1504
     36  C         85.9670    9.8140  117.7600 C.2   280  PRO280      0.2576
     37  O         85.8100    9.8790  116.5300 O.2   280  PRO280     -0.2718
     38  CB        87.7980   10.4890  119.3170 C.3   280  PRO280      0.0282
     39  CG        89.1320   10.9300  118.8220 C.3   280  PRO280      0.0208
     40  CD        89.1110   10.6850  117.3610 C.3   280  PRO280      0.0893
     41  N         85.0060   10.0340  118.6500 N.am  281  GLY281     -0.1943
     42  CA        83.6710   10.3830  118.2290 C.3   281  GLY281      0.2014
     43  C         83.5710   11.8790  118.1000 C.2   281  GLY281      0.2639
     44  O         82.6800   12.3830  117.4450 O.2   281  GLY281     -0.2714
     45  N         84.5070   12.5700  118.7360 N.am  282  ALA282     -0.1963
     46  CA        84.6180   14.0070  118.6800 C.3   282  ALA282      0.1728
     47  C         85.8190   14.4440  119.4810 C.2   282  ALA282      0.2616
     48  O         86.2620   13.7280  120.3740 O.2   282  ALA282     -0.2715
     49  CB        83.3670   14.6730  119.2040 C.3   282  ALA282      0.0334
     50  N         86.3440   15.6260  119.1610 N.am  283  MET283     -0.1963
     51  CA        87.4680   16.1930  119.9060 C.3   283  MET283      0.1736
     52  C         87.1860   17.6510  120.1960 C.2   283  MET283      0.2616
     53  O         86.6710   18.3590  119.3480 O.2   283  MET283     -0.2715
     54  CB        88.7760   16.0270  119.1360 C.3   283  MET283      0.0427
     55  CG        89.9960   16.5900  119.8160 C.3   283  MET283      0.0599
     56  SD        90.0400   16.2050  121.5630 S.3   283  MET283     -0.1393
     57  CE        91.2450   17.3950  122.1320 C.3   283  MET283      0.0692
     58  N         87.5550   18.0960  121.3930 N.am  284  GLU284     -0.1977
     59  CA        87.0480   19.3340  121.9950 C.3   284  GLU284      0.1602
     60  C         87.8180   20.6190  121.6610 C.2   284  GLU284      0.2287
     61  O         87.8670   21.5430  122.4740 O.2   284  GLU284     -0.2864
     62  CB        87.0370   19.1510  123.5100 C.3   284  GLU284      0.0415
     63  CG        88.4350   19.0080  124.0900 C.3   284  GLU284      0.1163
     64  CD        88.5660   17.8920  125.1180 C.2   284  GLU284      0.3649
     65  OE1       88.2460   16.7180  124.7910 O.co2 284  GLU284     -0.2457
     66  OE2       89.0200   18.1960  126.2550 O.co2 284  GLU284     -0.2457
     67  N         76.5490   14.1230  122.1650 N.3   314  VAL314     -0.1245
     68  CA        77.9710   14.3520  121.9020 C.3   314  VAL314      0.1561
     69  C         78.2570   15.8350  121.7020 C.2   314  VAL314      0.2260
     70  O         79.3020   16.3180  122.1240 O.2   314  VAL314     -0.2867
     71  CB        78.4910   13.5390  120.6870 C.3   314  VAL314      0.0252
     72  CG1       79.9660   13.7300  120.5410 C.3   314  VAL314      0.0019
     73  CG2       78.2040   12.0350  120.8700 C.3   314  VAL314      0.0019
     74  N         78.2400   17.0500  125.1670 N.3   317  HIS317     -0.1226
     75  CA        79.4860   16.6060  125.8080 C.3   317  HIS317      0.1752
     76  C         80.6750   17.4760  125.4230 C.2   317  HIS317      0.2595
     77  O         81.5580   17.7020  126.2430 O.2   317  HIS317     -0.2718
     78  CB        79.8100   15.1440  125.4580 C.3   317  HIS317      0.0759
     79  CG        81.1800   14.7150  125.8850 C.ar  317  HIS317      0.0818
     80  ND1       81.4090   13.9810  127.0270 N.ar  317  HIS317     -0.2268
     81  CD2       82.3970   14.9280  125.3310 C.ar  317  HIS317      0.1154
     82  CE1       82.7050   13.7680  127.1610 C.ar  317  HIS317      0.1986
     83  NE2       83.3270   14.3290  126.1420 N.ar  317  HIS317     -0.2212
     84  N         80.7050   17.9370  124.1720 N.am  318  GLU318     -0.1979
     85  CA        81.8540   18.6630  123.6480 C.3   318  GLU318      0.1602
     86  C         81.8220   20.1590  123.9930 C.2   318  GLU318      0.2287
     87  O         82.8630   20.7650  124.2820 O.2   318  GLU318     -0.2864
     88  CB        81.9480   18.4870  122.1260 C.3   318  GLU318      0.0415
     89  CG        82.2650   17.0620  121.6670 C.3   318  GLU318      0.1163
     90  CD        83.5930   16.5520  122.1910 C.2   318  GLU318      0.3649
     91  OE1       83.6900   15.3540  122.5000 O.co2 318  GLU318     -0.2457
     92  OE2       84.5490   17.3490  122.2870 O.co2 318  GLU318     -0.2457
     93  N         83.0100   20.8190  127.3380 N.3   321  HIS321     -0.1241
     94  CA        84.4590   20.7340  127.4080 C.3   321  HIS321      0.1621
     95  C         85.1020   22.1210  127.2410 C.2   321  HIS321      0.2264
     96  O         86.2540   22.3500  127.6780 O.2   321  HIS321     -0.2867
     97  CB        84.9730   19.7920  126.3310 C.3   321  HIS321      0.0745
     98  CG        85.3730   18.4450  126.8300 C.ar  321  HIS321      0.0817
     99  ND1       86.1880   18.2680  127.9250 N.ar  321  HIS321     -0.2268
    100  CD2       85.1060   17.2080  126.3550 C.ar  321  HIS321      0.1154
    101  CE1       86.3830   16.9770  128.1220 C.ar  321  HIS321      0.1986
    102  NE2       85.7470   16.3120  127.1760 N.ar  321  HIS321     -0.2212
    103  N         86.9080   14.7310  131.7490 N.3   340  GLU340     -0.1245
    104  CA        86.1050   13.7740  131.0280 C.3   340  GLU340      0.1567
    105  C         84.9900   13.2410  131.9100 C.2   340  GLU340      0.2260
    106  O         83.9160   12.8950  131.4120 O.2   340  GLU340     -0.2867
    107  CB        86.9970   12.6580  130.4510 C.3   340  GLU340      0.0388
    108  CG        87.8240   13.1030  129.2050 C.3   340  GLU340      0.1160
    109  CD        86.9370   13.5670  128.0340 C.2   340  GLU340      0.3649
    110  OE1       85.7390   13.2300  128.0670 O.co2 340  GLU340     -0.2457
    111  OE2       87.4180   14.2430  127.0860 O.co2 340  GLU340     -0.2457
    112  N         96.9440    6.9100  126.8960 N.3   394  GLN394     -0.1245
    113  CA        95.7800    6.7020  126.0480 C.3   394  GLN394      0.1566
    114  C         94.8700    5.6580  126.6500 C.2   394  GLN394      0.2260
    115  O         93.6610    5.6730  126.4280 O.2   394  GLN394     -0.2867
    116  CB        96.1790    6.2890  124.6470 C.3   394  GLN394      0.0367
    117  CG        96.8420    7.3820  123.8410 C.3   394  GLN394      0.0905
    118  CD        97.1400    6.9410  122.4300 C.2   394  GLN394      0.2608
    119  OE1       96.5290    7.4340  121.4710 O.2   394  GLN394     -0.2717
    120  NE2       98.0800    6.0020  122.2880 N.am  394  GLN394     -0.0878
    121  N         91.7890    6.9230  128.8760 N.3   397  PHE397     -0.1227
    122  CA        90.5120    7.3600  128.3570 C.3   397  PHE397      0.1736
    123  C         89.5850    6.1640  128.3070 C.2   397  PHE397      0.2595
    124  O         89.1980    5.7120  127.2340 O.2   397  PHE397     -0.2718
    125  CB        90.6740    8.0000  126.9700 C.3   397  PHE397      0.0547
    126  CG        91.3680    9.3450  126.9940 C.ar  397  PHE397     -0.0202
    127  CD1       92.7410    9.4350  127.1770 C.ar  397  PHE397     -0.0042
    128  CD2       90.6380   10.5240  126.8420 C.ar  397  PHE397     -0.0042
    129  CE1       93.3700   10.6790  127.2130 C.ar  397  PHE397     -0.0003
    130  CE2       91.2550   11.7530  126.8780 C.ar  397  PHE397     -0.0003
    131  CZ        92.6280   11.8310  127.0630 C.ar  397  PHE397     -0.0000
    132  N         89.2470    5.6530  129.4870 N.am  398  ASP398     -0.1960
    133  CA        88.3470    4.5020  129.6410 C.3   398  ASP398      0.1840
    134  C         87.0170    4.8540  130.3160 C.2   398  ASP398      0.2621
    135  O         86.7400    6.0230  130.6190 O.2   398  ASP398     -0.2715
    136  CB        89.0360    3.3860  130.4430 C.3   398  ASP398      0.1450
    137  CG        89.4880    3.8390  131.8290 C.2   398  ASP398      0.3671
    138  OD1       88.9420    4.8270  132.3420 O.co2 398  ASP398     -0.2456
    139  OD2       90.3930    3.1990  132.4090 O.co2 398  ASP398     -0.2456
    140  N         86.2210    3.8210  130.5840 N.am  399  GLU399     -0.1977
    141  CA        84.8820    3.9800  131.1360 C.3   399  GLU399      0.1602
    142  C         84.9760    4.3130  132.6240 C.2   399  GLU399      0.2287
    143  O         83.9840    4.6530  133.2560 O.2   399  GLU399     -0.2864
    144  CB        84.0440    2.7190  130.8940 C.3   399  GLU399      0.0415
    145  CG        84.1500    2.1220  129.4710 C.3   399  GLU399      0.1163
    146  CD        85.4810    1.3800  129.2150 C.2   399  GLU399      0.3649
    147  OE1       86.1530    1.0330  130.2150 O.co2 399  GLU399     -0.2457
    148  OE2       85.8680    1.1620  128.0290 O.co2 399  GLU399     -0.2457
    149  N         85.4030    8.2510  132.4690 N.3   402  TYR402     -0.1227
    150  CA        84.2540    8.8700  131.8430 C.3   402  TYR402      0.1736
    151  C         82.9940    8.6010  132.6300 C.2   402  TYR402      0.2595
    152  O         82.3300    9.5380  133.0860 O.2   402  TYR402     -0.2718
    153  CB        84.0830    8.3630  130.4120 C.3   402  TYR402      0.0548
    154  CG        84.9650    9.0520  129.4030 C.ar  402  TYR402     -0.0200
    155  CD1       86.3440    9.0970  129.5710 C.ar  402  TYR402     -0.0009
    156  CD2       84.4230    9.6490  128.2810 C.ar  402  TYR402     -0.0009
    157  CE1       87.1500    9.7200  128.6590 C.ar  402  TYR402      0.0417
    158  CE2       85.2230   10.2710  127.3630 C.ar  402  TYR402      0.0417
    159  CZ        86.5770   10.2970  127.5610 C.ar  402  TYR402      0.1957
    160  OH        87.3690   10.9110  126.6480 O.3   402  TYR402     -0.2866
    161  N         82.6690    7.3140  132.7770 N.am  403  ASN403     -0.1974
    162  CA        81.4430    6.8910  133.4420 C.3   403  ASN403      0.1688
    163  C         81.5520    6.9260  134.9660 C.2   403  ASN403      0.2292
    164  O         80.7160    7.5470  135.6200 O.2   403  ASN403     -0.2864
    165  CB        81.0430    5.4950  132.9710 C.3   403  ASN403      0.1181
    166  CG        80.7310    5.4520  131.4930 C.2   403  ASN403      0.2629
    167  OD1       81.2890    6.2170  130.7090 O.2   403  ASN403     -0.2716
    168  ND2       79.8220    4.5660  131.1030 N.am  403  ASN403     -0.0877
    169  N         91.7580    3.4840  120.9830 N.3   809  TYR809     -0.1241
    170  CA        90.4990    2.9190  121.4240 C.3   809  TYR809      0.1605
    171  C         90.0270    1.9570  120.3490 C.2   809  TYR809      0.2264
    172  O         89.1240    1.1640  120.5530 O.2   809  TYR809     -0.2867
    173  CB        89.4530    4.0200  121.6940 C.3   809  TYR809      0.0534
    174  CG        88.0620    3.4730  121.9510 C.ar  809  TYR809     -0.0201
    175  CD1       87.7530    2.8530  123.1580 C.ar  809  TYR809     -0.0009
    176  CD2       87.0600    3.5440  120.9790 C.ar  809  TYR809     -0.0009
    177  CE1       86.4810    2.3330  123.4030 C.ar  809  TYR809      0.0417
    178  CE2       85.7780    3.0260  121.2110 C.ar  809  TYR809      0.0417
    179  CZ        85.4950    2.4220  122.4320 C.ar  809  TYR809      0.1957
    180  OH        84.2380    1.9010  122.7040 O.3   809  TYR809     -0.2866
    181  N         91.9290   -1.5280  121.3620 N.3   812  ARG812     -0.1245
    182  CA        91.3130   -1.9370  122.6120 C.3   812  ARG812      0.1563
    183  C         89.9400   -2.5240  122.3640 C.2   812  ARG812      0.2260
    184  O         89.5670   -3.5350  122.9560 O.2   812  ARG812     -0.2867
    185  CB        91.2120   -0.7570  123.5670 C.3   812  ARG812      0.0307
    186  CG        90.2690   -0.9950  124.7460 C.3   812  ARG812      0.0489
    187  CD        89.7590    0.3120  125.3590 C.3   812  ARG812      0.2205
    188  NE        90.8460    1.1420  125.8700 N.pl3 812  ARG812     -0.0865
    189  CZ        90.7130    2.4240  126.1860 C.cat 812  ARG812      0.5346
    190  NH1       89.5370    3.0120  126.0410 N.pl3 812  ARG812      0.1354
    191  NH2       91.7520    3.1160  126.6410 N.pl3 812  ARG812      0.1354
@<TRIPOS>BOND
     1     1     2    1
     2     5     2    1
     3     5     6    1
     4     2     3    1
     5    37    36    2
     6     4     3    2
     7     6     8   ar
     8     6     7   ar
     9    34    40    1
    10    34    35    1
    11    40    39    1
    12    28    27    2
    13    44    43    2
    14    36    35    1
    15    36    41   am
    16    43    42    1
    17    43    45   am
    18    42    41    1
    19    35    38    1
    20    27    26    1
    21    46    45    1
    22    46    49    1
    23    46    47    1
    24    39    38    1
    25    29    26    1
    26    29    30    1
    27    32    31    2
    28    54    55    1
    29    54    51    1
    30    50    47   am
    31    50    51    1
    32    26    25    1
    33    53    52    2
    34    30    31    1
    35    47    48    2
    36    31    33   am
    37    55    56    1
    38    51    52    1
    39    52    58   am
    40   171   172    2
    41   171   170    1
    42    72    71    1
    43    71    73    1
    44    71    68    1
    45   176   178   ar
    46   176   174   ar
    47   169   170    1
    48     9    10    1
    49   178   179   ar
    50   181   182    1
    51    58    59    1
    52   170   173    1
    53   119   118    2
    54    12    11    2
    55    56    57    1
    56    60    59    1
    57    60    61    2
    58    89    88    1
    59    89    90    1
    60   173   174    1
    61    69    68    1
    62    69    70    2
    63    68    67    1
    64   174   175   ar
    65    59    62    1
    66    88    85    1
    67    90    92   ar
    68    90    91   ar
    69   120   118   am
    70    10    11    1
    71    10    13    1
    72    11    18   am
    73   183   182    1
    74   183   184    2
    75   118   117    1
    76   179   180    1
    77   179   177   ar
    78   182   185    1
    79    13    14    1
    80   175   177   ar
    81    18    24    1
    82    18    19    1
    83    62    63    1
    84   185   186    1
    85    24    23    1
    86    85    86    1
    87    85    84    1
    88   117   116    1
    89    20    21    2
    90    20    19    1
    91    86    87    2
    92    63    64    1
    93    84    76   am
    94    19    22    1
    95    16    15   ar
    96    14    15    1
    97   116   113    1
    98   186   187    1
    99    65    64   ar
   100    23    22    1
   101    64    66   ar
   102    15    17   ar
   103    74    75    1
   104    81    79   ar
   105    81    83   ar
   106   187   188    1
   107    76    75    1
   108    76    77    2
   109    78    75    1
   110    78    79    1
   111   188   189    2
   112    79    80   ar
   113   190   189    1
   114   113   114    1
   115   113   112    1
   116    83    82   ar
   117   189   191    1
   118    97    98    1
   119    97    94    1
   120   100    98   ar
   121   100   102   ar
   122   115   114    2
   123   160   159    1
   124    98    99   ar
   125   128   130   ar
   126   128   126   ar
   127   130   131   ar
   128   125   126    1
   129   125   122    1
   130   126   127   ar
   131    80    82   ar
   132   131   129   ar
   133   111   109   ar
   134   102   101   ar
   135   127   129   ar
   136   124   123    2
   137    95    94    1
   138    95    96    2
   139    93    94    1
   140   158   159   ar
   141   158   156   ar
   142   159   157   ar
   143    99   101   ar
   144   148   146   ar
   145   109   110   ar
   146   109   108    1
   147   156   154   ar
   148   123   122    1
   149   123   132   am
   150   122   121    1
   151   157   155   ar
   152   108   107    1
   153   146   145    1
   154   146   147   ar
   155   154   155   ar
   156   154   153    1
   157   145   144    1
   158   132   133    1
   159   133   134    1
   160   133   136    1
   161   134   140   am
   162   134   135    2
   163   153   150    1
   164   136   137    1
   165   107   104    1
   166   140   141    1
   167   167   166    2
   168   144   141    1
   169   104   103    1
   170   104   105    1
   171   168   166   am
   172   141   142    1
   173   106   105    2
   174   166   165    1
   175   137   138   ar
   176   137   139   ar
   177   150   149    1
   178   150   151    1
   179   142   143    2
   180   151   161   am
   181   151   152    2
   182   161   162    1
   183   165   162    1
   184   162   163    1
   185   163   164    2
