@<TRIPOS>MOLECULE
tmp/5j6sA06.pdb
 183 179 0 0 0
SMALL
GASTEIGER

@<TRIPOS>ATOM
      1  N         82.3830    9.8320   72.4720 N.3   146  ASP146     -0.1239
      2  CA        82.8960    9.0580   71.3640 C.3   146  ASP146      0.1674
      3  C         81.7440    8.5660   70.5200 C.2   146  ASP146      0.2266
      4  O         80.9200    7.8260   70.9920 O.2   146  ASP146     -0.2867
      5  CB        83.7470    7.8850   71.8180 C.3   146  ASP146      0.1410
      6  CG        84.6130    7.3380   70.6770 C.2   146  ASP146      0.3668
      7  OD1       85.2890    8.1710   70.0300 O.co2 146  ASP146     -0.2456
      8  OD2       84.5830    6.1140   70.3850 O.co2 146  ASP146     -0.2456
      9  N         81.9210    7.5850   66.8610 N.3   148  GLU148     -0.1231
     10  CA        82.1250    6.6930   65.7300 C.3   148  GLU148      0.1684
     11  C         81.8940    5.2000   66.0610 C.2   148  GLU148      0.2434
     12  O         82.3500    4.7120   67.0960 O.2   148  GLU148     -0.2733
     13  CB        83.5140    6.8800   65.1710 C.3   148  GLU148      0.0402
     14  CG        83.6540    6.1910   63.8510 C.3   148  GLU148      0.1161
     15  CD        84.9510    6.4650   63.2160 C.2   148  GLU148      0.3649
     16  OE1       85.9050    6.7320   63.9700 O.co2 148  GLU148     -0.2457
     17  OE2       85.0170    6.4210   61.9680 O.co2 148  GLU148     -0.2457
     18  N         81.1800    4.4680   65.1870 N.am  149  PRO149     -0.2729
     19  CA        80.5210    4.8360   63.9270 C.3   149  PRO149      0.1401
     20  C         79.1730    5.5580   64.0730 C.2   149  PRO149      0.2269
     21  O         78.8990    6.5060   63.3380 O.2   149  PRO149     -0.2865
     22  CB        80.2950    3.4810   63.2410 C.3   149  PRO149      0.0296
     23  CG        81.0220    2.4840   64.0310 C.3   149  PRO149      0.0237
     24  CD        81.1170    3.0220   65.4120 C.3   149  PRO149      0.0939
     25  N         87.8430    3.7500   75.0610 N.3   280  ALA280     -0.1231
     26  CA        87.8480    2.3600   74.6000 C.3   280  ALA280      0.1679
     27  C         88.7880    2.1790   73.4170 C.2   280  ALA280      0.2434
     28  O         89.6640    1.3200   73.4690 O.2   280  ALA280     -0.2733
     29  CB        86.4220    1.8630   74.2600 C.3   280  ALA280      0.0304
     30  N         88.6300    2.9710   72.3460 N.am  281  PRO281     -0.2718
     31  CA        89.6140    2.7480   71.2890 C.3   281  PRO281      0.1535
     32  C         90.9420    3.3760   71.6920 C.2   281  PRO281      0.2599
     33  O         91.0230    3.8450   72.8350 O.2   281  PRO281     -0.2715
     34  CB        89.0000    3.4310   70.0780 C.3   281  PRO281      0.0310
     35  CG        88.0930    4.4680   70.6430 C.3   281  PRO281      0.0237
     36  CD        87.6530    4.0150   71.9910 C.3   281  PRO281      0.0939
     37  N         91.9500    3.3550   70.8200 N.am  282  GLY282     -0.1941
     38  CA        93.2610    3.8420   71.1970 C.3   282  GLY282      0.2014
     39  C         93.2870    5.3380   71.0450 C.2   282  GLY282      0.2639
     40  O         93.9320    6.0410   71.8110 O.2   282  GLY282     -0.2714
     41  N         92.5310    5.8120   70.0640 N.am  283  ALA283     -0.1963
     42  CA        92.3570    7.2190   69.8250 C.3   283  ALA283      0.1728
     43  C         91.1700    7.4730   68.8960 C.2   283  ALA283      0.2616
     44  O         90.8390    6.6260   68.0920 O.2   283  ALA283     -0.2715
     45  CB        93.6180    7.7960   69.2310 C.3   283  ALA283      0.0334
     46  N         90.5580    8.6540   68.9800 N.am  284  MET284     -0.1963
     47  CA        89.4850    9.0210   68.0530 C.3   284  MET284      0.1736
     48  C         89.7040   10.3930   67.3600 C.2   284  MET284      0.2616
     49  O         89.9160   11.4070   68.0100 O.2   284  MET284     -0.2715
     50  CB        88.1430    9.0210   68.7790 C.3   284  MET284      0.0427
     51  CG        87.0050    9.5490   67.9440 C.3   284  MET284      0.0599
     52  SD        86.8370    8.5400   66.5110 S.3   284  MET284     -0.1393
     53  CE        86.5770    9.6950   65.1870 C.3   284  MET284      0.0692
     54  N         89.5610   10.3980   66.0390 N.am  285  GLU285     -0.1977
     55  CA        90.0980   11.4200   65.1740 C.3   285  GLU285      0.1602
     56  C         89.2820   12.6940   65.0630 C.2   285  GLU285      0.2287
     57  O         89.5200   13.5050   64.1780 O.2   285  GLU285     -0.2864
     58  CB        90.3010   10.8180   63.7800 C.3   285  GLU285      0.0415
     59  CG        89.0860   10.7480   62.8890 C.3   285  GLU285      0.1163
     60  CD        88.6080    9.3270   62.5670 C.2   285  GLU285      0.3649
     61  OE1       88.8920    8.4060   63.3630 O.co2 285  GLU285     -0.2457
     62  OE2       87.9310    9.1500   61.5160 O.co2 285  GLU285     -0.2457
     63  N         93.7400    7.2280   74.4050 N.3   293  ARG293     -0.1245
     64  CA        94.1500    6.5660   75.6320 C.3   293  ARG293      0.1563
     65  C         95.3320    7.3140   76.1450 C.2   293  ARG293      0.2260
     66  O         96.1960    7.6330   75.3860 O.2   293  ARG293     -0.2867
     67  CB        94.5870    5.1180   75.4250 C.3   293  ARG293      0.0307
     68  CG        93.5620    4.2260   74.8980 C.3   293  ARG293      0.0489
     69  CD        93.5350    2.9690   75.6870 C.3   293  ARG293      0.2205
     70  NE        92.4180    2.1500   75.2810 N.pl3 293  ARG293     -0.0865
     71  CZ        92.2670    0.8920   75.6450 C.cat 293  ARG293      0.5346
     72  NH1       93.1700    0.3290   76.4130 N.pl3 293  ARG293      0.1354
     73  NH2       91.2030    0.2230   75.2650 N.pl3 293  ARG293      0.1354
     74  N        105.0240    3.8360   69.6410 N.3   311  TRP311     -0.1241
     75  CA       103.5890    3.6620   69.6180 C.3   311  TRP311      0.1605
     76  C        102.8550    5.0100   69.6700 C.2   311  TRP311      0.2264
     77  O        101.9210    5.2550   68.9020 O.2   311  TRP311     -0.2867
     78  CB       103.1680    2.7700   70.7740 C.3   311  TRP311      0.0550
     79  CG       101.6850    2.6630   70.9150 C.ar  311  TRP311      0.0003
     80  CD1      100.9120    3.2370   71.8870 C.ar  311  TRP311      0.0946
     81  CD2      100.7860    1.9830   70.0370 C.ar  311  TRP311      0.0152
     82  NE1       99.6100    2.9510   71.6680 N.ar  311  TRP311     -0.2442
     83  CE2       99.4890    2.1880   70.5420 C.ar  311  TRP311      0.0810
     84  CE3      100.9480    1.2350   68.8680 C.ar  311  TRP311      0.0012
     85  CZ2       98.3570    1.6610   69.9340 C.ar  311  TRP311      0.0191
     86  CZ3       99.8270    0.7100   68.2660 C.ar  311  TRP311      0.0001
     87  CH2       98.5440    0.9180   68.8090 C.ar  311  TRP311      0.0015
     88  N        100.4320    6.4300   66.8010 N.3   315  VAL315     -0.1245
     89  CA        99.0170    6.7710   67.0010 C.3   315  VAL315      0.1561
     90  C         98.7200    8.2610   66.6970 C.2   315  VAL315      0.2260
     91  O         97.7520    8.5560   65.9950 O.2   315  VAL315     -0.2867
     92  CB        98.5330    6.3870   68.4430 C.3   315  VAL315      0.0252
     93  CG1       97.0710    6.6710   68.5980 C.3   315  VAL315      0.0019
     94  CG2       98.7730    4.8840   68.7350 C.3   315  VAL315      0.0019
     95  N         98.6580    8.6030   63.0660 N.3   318  HIS318     -0.1226
     96  CA        97.4800    7.9820   62.4920 C.3   318  HIS318      0.1752
     97  C         96.3330    8.9590   62.5720 C.2   318  HIS318      0.2595
     98  O         95.6550    9.2200   61.5860 O.2   318  HIS318     -0.2718
     99  CB        97.1500    6.6790   63.2370 C.3   318  HIS318      0.0759
    100  CG        95.9460    5.9620   62.7160 C.ar  318  HIS318      0.0818
    101  ND1       96.0190    5.0660   61.6780 N.ar  318  HIS318     -0.2268
    102  CD2       94.6490    5.9840   63.1060 C.ar  318  HIS318      0.1154
    103  CE1       94.8200    4.5720   61.4330 C.ar  318  HIS318      0.1986
    104  NE2       93.9710    5.1060   62.2880 N.ar  318  HIS318     -0.2212
    105  N         96.1450    9.5180   63.7620 N.am  319  GLU319     -0.1979
    106  CA        95.1110   10.4970   63.9820 C.3   319  GLU319      0.1602
    107  C         95.2180   11.7050   63.0920 C.2   319  GLU319      0.2287
    108  O         94.2110   12.0940   62.4960 O.2   319  GLU319     -0.2864
    109  CB        95.1120   10.9620   65.4300 C.3   319  GLU319      0.0415
    110  CG        94.7170    9.8820   66.3890 C.3   319  GLU319      0.1163
    111  CD        93.5840    9.0350   65.8620 C.2   319  GLU319      0.3649
    112  OE1       93.5950    7.8090   66.0340 O.co2 319  GLU319     -0.2457
    113  OE2       92.6690    9.5930   65.2670 O.co2 319  GLU319     -0.2457
    114  N         94.0550   11.4570   59.7230 N.3   322  HIS322     -0.1241
    115  CA        92.6190   11.3240   59.5640 C.3   322  HIS322      0.1621
    116  C         91.9410   12.6630   59.2990 C.2   322  HIS322      0.2264
    117  O         90.8380   12.7000   58.7380 O.2   322  HIS322     -0.2867
    118  CB        92.0300   10.7040   60.8020 C.3   322  HIS322      0.0745
    119  CG        91.8280    9.2290   60.7250 C.ar  322  HIS322      0.0817
    120  ND1       91.2360    8.6180   59.6450 N.ar  322  HIS322     -0.2268
    121  CD2       92.0660    8.2520   61.6300 C.ar  322  HIS322      0.1154
    122  CE1       91.1570    7.3220   59.8730 C.ar  322  HIS322      0.1986
    123  NE2       91.6400    7.0770   61.0740 N.ar  322  HIS322     -0.2212
    124  N         90.4280    4.3450   56.8730 N.3   341  GLU341     -0.1245
    125  CA        91.2650    3.6780   57.8490 C.3   341  GLU341      0.1567
    126  C         92.4830    3.0160   57.2760 C.2   341  GLU341      0.2260
    127  O         93.4960    2.8610   57.9730 O.2   341  GLU341     -0.2867
    128  CB        90.4310    2.6800   58.6550 C.3   341  GLU341      0.0388
    129  CG        89.6820    3.3810   59.8250 C.3   341  GLU341      0.1160
    130  CD        90.6150    4.0950   60.8070 C.2   341  GLU341      0.3649
    131  OE1       90.4160    3.9640   62.0020 O.co2 341  GLU341     -0.2457
    132  OE2       91.5630    4.7880   60.4210 O.co2 341  GLU341     -0.2457
    133  N         85.6070   -2.5280   61.2050 N.3   398  PHE398     -0.1241
    134  CA        86.8520   -1.9970   61.7690 C.3   398  PHE398      0.1605
    135  C         87.8040   -3.1040   62.2360 C.2   398  PHE398      0.2264
    136  O         87.9030   -3.3950   63.4340 O.2   398  PHE398     -0.2867
    137  CB        86.5450   -1.0610   62.9540 C.3   398  PHE398      0.0534
    138  CG        85.9530    0.2540   62.5640 C.ar  398  PHE398     -0.0203
    139  CD1       84.6290    0.3470   62.1830 C.ar  398  PHE398     -0.0042
    140  CD2       86.7230    1.4110   62.5950 C.ar  398  PHE398     -0.0042
    141  CE1       84.0720    1.5740   61.8210 C.ar  398  PHE398     -0.0003
    142  CE2       86.1820    2.6560   62.2360 C.ar  398  PHE398     -0.0003
    143  CZ        84.8560    2.7360   61.8500 C.ar  398  PHE398     -0.0000
    144  N         92.0870   -2.0200   57.9470 N.3   403  TYR403     -0.1241
    145  CA        93.2560   -1.2680   58.3950 C.3   403  TYR403      0.1605
    146  C         94.5250   -1.7260   57.7090 C.2   403  TYR403      0.2264
    147  O         94.9500   -1.1260   56.7430 O.2   403  TYR403     -0.2867
    148  CB        93.4440   -1.3960   59.8980 C.3   403  TYR403      0.0534
    149  CG        92.5430   -0.5430   60.7470 C.ar  403  TYR403     -0.0201
    150  CD1       91.2140   -0.8820   60.9450 C.ar  403  TYR403     -0.0009
    151  CD2       93.0370    0.5740   61.3940 C.ar  403  TYR403     -0.0009
    152  CE1       90.3830   -0.1050   61.7520 C.ar  403  TYR403      0.0417
    153  CE2       92.2350    1.3510   62.2030 C.ar  403  TYR403      0.0417
    154  CZ        90.9000    1.0210   62.3770 C.ar  403  TYR403      0.1957
    155  OH        90.0910    1.8010   63.1860 O.3   403  TYR403     -0.2866
    156  N         85.5560   -3.7220   70.1350 N.3   840  TYR840     -0.1227
    157  CA        86.9090   -4.2610   70.0560 C.3   840  TYR840      0.1736
    158  C         87.2110   -5.1140   71.2560 C.2   840  TYR840      0.2595
    159  O         87.9670   -6.0750   71.1830 O.2   840  TYR840     -0.2718
    160  CB        87.9500   -3.1440   70.0220 C.3   840  TYR840      0.0548
    161  CG        88.0490   -2.3860   68.7420 C.ar  840  TYR840     -0.0200
    162  CD1       87.7880   -2.9960   67.5310 C.ar  840  TYR840     -0.0009
    163  CD2       88.4180   -1.0540   68.7470 C.ar  840  TYR840     -0.0009
    164  CE1       87.8880   -2.3020   66.3660 C.ar  840  TYR840      0.0417
    165  CE2       88.5210   -0.3540   67.5920 C.ar  840  TYR840      0.0417
    166  CZ        88.2530   -0.9770   66.4010 C.ar  840  TYR840      0.1957
    167  OH        88.3600   -0.2750   65.2320 O.3   840  TYR840     -0.2866
    168  N         86.6540   -4.7100   72.3970 N.am  841  ASP841     -0.1974
    169  CA        86.9480   -5.3960   73.6530 C.3   841  ASP841      0.1709
    170  C         86.3410   -6.8220   73.6340 C.2   841  ASP841      0.2293
    171  O         86.9350   -7.7680   74.1280 O.2   841  ASP841     -0.2864
    172  CB        86.4430   -4.5940   74.8630 C.3   841  ASP841      0.1436
    173  CG        86.7830   -3.0700   74.7930 C.2   841  ASP841      0.3671
    174  OD1       87.7660   -2.6450   74.1430 O.co2 841  ASP841     -0.2456
    175  OD2       86.0570   -2.2640   75.4150 O.co2 841  ASP841     -0.2456
    176  N         88.4560   -9.1430   71.3420 N.3   844  MET844     -0.1245
    177  CA        89.7300   -9.5330   71.9160 C.3   844  MET844      0.1570
    178  C         89.4970  -10.4600   73.0850 C.2   844  MET844      0.2261
    179  O         90.3580  -11.2630   73.4450 O.2   844  MET844     -0.2867
    180  CB        90.5270   -8.3020   72.3600 C.3   844  MET844      0.0387
    181  CG        92.0270   -8.5320   72.4490 C.3   844  MET844      0.0595
    182  SD        92.8600   -7.5450   73.7190 S.3   844  MET844     -0.1393
    183  CE        92.8570   -5.8780   73.0250 C.3   844  MET844      0.0692
@<TRIPOS>BOND
     1   147   146    2
     2   124   125    1
     3   126   125    1
     4   126   127    2
     5   146   145    1
     6   125   128    1
     7   144   145    1
     8   145   148    1
     9   128   129    1
    10   117   116    2
    11   116   115    1
    12   115   114    1
    13   115   118    1
    14   120   122   ar
    15   120   119   ar
    16   129   130    1
    17   122   123   ar
    18   148   149    1
    19   132   130   ar
    20   119   118    1
    21   119   121   ar
    22   149   150   ar
    23   149   151   ar
    24   130   131   ar
    25   150   152   ar
    26   123   121   ar
    27   133   134    1
    28   151   153   ar
    29   103   101   ar
    30   103   104   ar
    31    62    60   ar
    32    98    97    2
    33   101   100   ar
    34   152   154   ar
    35   134   135    1
    36   134   137    1
    37   141   143   ar
    38   141   139   ar
    39   143   142   ar
    40    17    15   ar
    41   139   138   ar
    42   153   154   ar
    43   142   140   ar
    44   135   136    2
    45   104   102   ar
    46   154   155    1
    47    96    97    1
    48    96    95    1
    49    96    99    1
    50   108   107    2
    51   138   140   ar
    52   138   137    1
    53    60    59    1
    54    60    61   ar
    55    97   105   am
    56   100   102   ar
    57   100    99    1
    58    59    58    1
    59   107   106    1
    60    15    14    1
    61    15    16   ar
    62    22    19    1
    63    22    23    1
    64    21    20    2
    65   105   106    1
    66    58    55    1
    67    14    13    1
    68    19    20    1
    69    19    18    1
    70   106   109    1
    71    23    24    1
    72    57    56    2
    73    56    55    1
    74    13    10    1
    75    55    54    1
    76    53    52    1
    77    18    24    1
    78    18    11   am
    79   167   166    1
    80   113   111   ar
    81   109   110    1
    82    10    11    1
    83    10     9    1
    84   111   112   ar
    85   111   110    1
    86    91    90    2
    87    54    48   am
    88    11    12    2
    89   164   166   ar
    90   164   162   ar
    91   166   165   ar
    92    52    51    1
    93    90    89    1
    94    88    89    1
    95    89    92    1
    96    48    49    2
    97    48    47    1
    98   162   161   ar
    99   165   163   ar
   100    51    50    1
   101    47    50    1
   102    47    46    1
   103    44    43    2
   104    86    87   ar
   105    86    84   ar
   106    92    93    1
   107    92    94    1
   108   161   163   ar
   109   161   160    1
   110    87    85   ar
   111    84    81   ar
   112    43    46   am
   113    43    42    1
   114    77    76    2
   115    45    42    1
   116    75    74    1
   117    75    76    1
   118    75    78    1
   119    42    41    1
   120    85    83   ar
   121   160   157    1
   122     7     6   ar
   123    81    83   ar
   124    81    79   ar
   125   157   156    1
   126   157   158    1
   127    41    39   am
   128    34    35    1
   129    34    31    1
   130     8     6   ar
   131     3     4    2
   132     3     2    1
   133    83    82   ar
   134    35    36    1
   135     6     5    1
   136    78    79    1
   137    37    38    1
   138    37    32   am
   139    79    80   ar
   140    39    38    1
   141    39    40    2
   142   159   158    2
   143   158   168   am
   144    31    32    1
   145    31    30    1
   146   176   177    1
   147     2     5    1
   148     2     1    1
   149    82    80   ar
   150    32    33    2
   151   177   180    1
   152   177   178    1
   153    36    30    1
   154    30    27   am
   155   180   181    1
   156   168   169    1
   157   181   182    1
   158   183   182    1
   159   178   179    2
   160    27    28    2
   161    27    26    1
   162   170   169    1
   163   170   171    2
   164   169   172    1
   165   174   173   ar
   166    29    26    1
   167    63    64    1
   168    26    25    1
   169   173   172    1
   170   173   175   ar
   171    68    67    1
   172    68    69    1
   173    73    71    1
   174    70    71    2
   175    70    69    1
   176    66    65    2
   177    67    64    1
   178    64    65    1
   179    71    72    1
