@<TRIPOS>MOLECULE
tmp/5j71A01.pdb
 131 118 0 0 0
SMALL
GASTEIGER

@<TRIPOS>ATOM
      1  N         10.5200   11.3810  -36.5290 N.3   224  LEU224     -0.1245
      2  CA        10.0770   10.1800  -37.2270 C.3   224  LEU224      0.1561
      3  C         10.7600   10.0120  -38.5860 C.2   224  LEU224      0.2260
      4  O         11.1560    8.9000  -38.9540 O.2   224  LEU224     -0.2867
      5  CB         8.5510   10.1900  -37.3920 C.3   224  LEU224      0.0270
      6  CG         7.7840   10.1080  -36.0750 C.3   224  LEU224      0.0019
      7  CD1        6.3120   10.2040  -36.4030 C.3   224  LEU224      0.0001
      8  CD2        8.0800    8.8060  -35.3350 C.3   224  LEU224      0.0001
      9  N         14.3940    8.6120  -38.2060 N.3   227  ASN227     -0.1225
     10  CA        14.4100    7.1790  -37.9800 C.3   227  ASN227      0.1785
     11  C         14.0360    6.4040  -39.2420 C.2   227  ASN227      0.2597
     12  O         14.6670    5.3960  -39.5680 O.2   227  ASN227     -0.2718
     13  CB        13.4670    6.8450  -36.8340 C.3   227  ASN227      0.1169
     14  CG        14.0320    7.2320  -35.4990 C.2   227  ASN227      0.2627
     15  OD1       14.9360    6.5690  -34.9890 O.2   227  ASN227     -0.2716
     16  ND2       13.4710    8.2480  -34.8990 N.am  227  ASN227     -0.0877
     17  N         12.9580    6.8090  -39.9220 N.am  228  ALA228     -0.1979
     18  CA        12.5240    6.1060  -41.1250 C.3   228  ALA228      0.1597
     19  C         13.5730    6.1640  -42.2320 C.2   228  ALA228      0.2287
     20  O         13.7910    5.1660  -42.9350 O.2   228  ALA228     -0.2864
     21  CB        11.2150    6.6960  -41.6290 C.3   228  ALA228      0.0319
     22  N         16.9520    6.6420  -41.8570 N.3   230  ARG230     -0.1231
     23  CA        18.0910    5.8290  -41.4620 C.3   230  ARG230      0.1694
     24  C         17.7890    4.3510  -41.6670 C.2   230  ARG230      0.2591
     25  O         18.5870    3.6160  -42.2400 O.2   230  ARG230     -0.2718
     26  CB        18.4660    6.1220  -40.0170 C.3   230  ARG230      0.0321
     27  CG        19.7590    5.4460  -39.6430 C.3   230  ARG230      0.0489
     28  CD        20.2650    5.7430  -38.2180 C.3   230  ARG230      0.2205
     29  NE        21.2680    4.7290  -37.8830 N.pl3 230  ARG230     -0.0865
     30  CZ        21.3040    4.0090  -36.7610 C.cat 230  ARG230      0.5346
     31  NH1       20.4250    4.2080  -35.7830 N.pl3 230  ARG230      0.1354
     32  NH2       22.2520    3.0880  -36.6080 N.pl3 230  ARG230      0.1354
     33  N         16.6040    3.9030  -41.2400 N.am  231  ALA231     -0.1980
     34  CA        16.2420    2.5060  -41.4510 C.3   231  ALA231      0.1597
     35  C         16.2700    2.1400  -42.9290 C.2   231  ALA231      0.2287
     36  O         16.7840    1.0780  -43.3170 O.2   231  ALA231     -0.2864
     37  CB        14.8400    2.2280  -40.8740 C.3   231  ALA231      0.0319
     38  N         20.0110    2.1800  -44.3780 N.3   234  GLU234     -0.1231
     39  CA        20.8780    1.1520  -43.8190 C.3   234  GLU234      0.1699
     40  C         20.4010   -0.2560  -44.1430 C.2   234  GLU234      0.2592
     41  O         21.2110   -1.1940  -44.1580 O.2   234  GLU234     -0.2718
     42  CB        21.0230    1.3470  -42.3170 C.3   234  GLU234      0.0402
     43  CG        21.7020    2.6600  -41.9410 C.3   234  GLU234      0.1161
     44  CD        22.2230    2.6960  -40.5180 C.2   234  GLU234      0.3649
     45  OE1       22.0280    1.7290  -39.7450 O.co2 234  GLU234     -0.2457
     46  OE2       22.8510    3.7140  -40.1390 O.co2 234  GLU234     -0.2457
     47  N         19.1110   -0.4380  -44.4080 N.am  235  SER235     -0.1952
     48  CA        18.6230   -1.7480  -44.7970 C.3   235  SER235      0.1924
     49  C         18.7410   -1.9980  -46.2910 C.2   235  SER235      0.2314
     50  O         18.3510   -3.0780  -46.7640 O.2   235  SER235     -0.2863
     51  CB        17.1550   -1.9140  -44.3620 C.3   235  SER235      0.2116
     52  OG        16.3200   -0.9820  -45.0030 O.3   235  SER235     -0.2180
     53  N          3.3480    7.4600  -40.9190 N.3   260  MET260     -0.1245
     54  CA         4.5930    7.4070  -41.6730 C.3   260  MET260      0.1570
     55  C          5.0140    5.9480  -41.8120 C.2   260  MET260      0.2261
     56  O          5.2730    5.2640  -40.8080 O.2   260  MET260     -0.2867
     57  CB         5.7020    8.2190  -40.9900 C.3   260  MET260      0.0387
     58  CG         6.9470    8.3060  -41.8540 C.3   260  MET260      0.0595
     59  SD         8.2500    9.2950  -41.0590 S.3   260  MET260     -0.1393
     60  CE         7.4420   10.8360  -40.8100 C.3   260  MET260      0.0692
     61  N          7.5840    3.1010  -43.5390 N.3   262  ASP262     -0.1239
     62  CA         8.8490    2.8210  -44.1860 C.3   262  ASP262      0.1674
     63  C          9.0050    1.3250  -44.4380 C.2   262  ASP262      0.2266
     64  O          8.3050    0.4890  -43.8490 O.2   262  ASP262     -0.2867
     65  CB        10.0260    3.4090  -43.3680 C.3   262  ASP262      0.1410
     66  CG        10.3210    2.6740  -42.0580 C.2   262  ASP262      0.3668
     67  OD1       10.5720    1.4620  -42.1230 O.co2 262  ASP262     -0.2456
     68  OD2       10.3050    3.3300  -40.9760 O.co2 262  ASP262     -0.2456
     69  N         12.1150   -0.1140  -44.0280 N.3   264  GLY264     -0.1210
     70  CA        13.4440   -0.1710  -43.4720 C.3   264  GLY264      0.1956
     71  C         13.8120   -1.4320  -42.7350 C.2   264  GLY264      0.2612
     72  O         14.8310   -1.4430  -42.0290 O.2   264  GLY264     -0.2717
     73  N         13.0310   -2.4920  -42.8870 N.am  265  GLY265     -0.1942
     74  CA        13.3370   -3.7750  -42.3070 C.3   265  GLY265      0.2014
     75  C         12.7830   -4.0120  -40.9150 C.2   265  GLY265      0.2639
     76  O         12.8070   -5.1620  -40.4370 O.2   265  GLY265     -0.2714
     77  N         12.3450   -2.9700  -40.2350 N.am  266  GLY266     -0.1939
     78  CA        11.6650   -3.1070  -38.9650 C.3   266  GLY266      0.2014
     79  C         12.5610   -3.5210  -37.8150 C.2   266  GLY266      0.2638
     80  O         13.7970   -3.5340  -37.8860 O.2   266  GLY266     -0.2714
     81  N         11.8860   -3.8710  -36.7230 N.am  267  VAL267     -0.1977
     82  CA        12.5180   -4.1880  -35.4500 C.3   267  VAL267      0.1596
     83  C         11.6080   -5.1960  -34.7620 C.2   267  VAL267      0.2287
     84  O         10.3900   -5.1070  -34.9220 O.2   267  VAL267     -0.2864
     85  CB        12.7250   -2.9110  -34.6170 C.3   267  VAL267      0.0276
     86  CG1       11.4270   -2.2050  -34.3420 C.3   267  VAL267      0.0022
     87  CG2       13.4270   -3.2140  -33.3060 C.3   267  VAL267      0.0022
     88  N         10.4840   -2.7200  -29.1310 N.3   272  ILE272     -0.1245
     89  CA         9.7200   -1.4920  -29.3660 C.3   272  ILE272      0.1561
     90  C          9.7090   -0.6130  -28.1220 C.2   272  ILE272      0.2260
     91  O          9.9120    0.6030  -28.2040 O.2   272  ILE272     -0.2867
     92  CB         8.2940   -1.8380  -29.8230 C.3   272  ILE272      0.0252
     93  CG1        8.3040   -2.3070  -31.2680 C.3   272  ILE272      0.0019
     94  CG2        7.3710   -0.6320  -29.6610 C.3   272  ILE272      0.0019
     95  CD1        8.6080   -1.2130  -32.2720 C.3   272  ILE272      0.0001
     96  N         12.4130    1.8850  -27.3480 N.3   275  LEU275     -0.1245
     97  CA        12.5090    3.1030  -28.1300 C.3   275  LEU275      0.1561
     98  C         11.9350    4.2900  -27.3830 C.2   275  LEU275      0.2260
     99  O         12.2970    5.4310  -27.6980 O.2   275  LEU275     -0.2867
    100  CB        11.7920    2.9680  -29.4660 C.3   275  LEU275      0.0270
    101  CG        12.4630    1.9560  -30.4010 C.3   275  LEU275      0.0019
    102  CD1       11.7270    1.9300  -31.7130 C.3   275  LEU275      0.0001
    103  CD2       13.9320    2.2680  -30.6210 C.3   275  LEU275      0.0001
    104  N         12.4060   10.1890  -29.5270 N.3   283  LEU283     -0.1245
    105  CA        11.1060    9.5260  -29.6280 C.3   283  LEU283      0.1561
    106  C         10.2640    9.7200  -28.3820 C.2   283  LEU283      0.2260
    107  O          9.0740   10.0630  -28.5140 O.2   283  LEU283     -0.2867
    108  CB        11.2700    8.0440  -29.9650 C.3   283  LEU283      0.0270
    109  CG        11.6030    7.7530  -31.4290 C.3   283  LEU283      0.0019
    110  CD1       11.9780    6.2980  -31.6110 C.3   283  LEU283      0.0001
    111  CD2       10.4060    8.1540  -32.3150 C.3   283  LEU283      0.0001
    112  N          4.0530    3.2700  -32.4750 N.3   299  LEU299     -0.1245
    113  CA         4.9250    2.5840  -33.4170 C.3   299  LEU299      0.1561
    114  C          4.4940    1.1400  -33.5320 C.2   299  LEU299      0.2260
    115  O          4.2420    0.4700  -32.5170 O.2   299  LEU299     -0.2867
    116  CB         6.4040    2.6000  -32.9830 C.3   299  LEU299      0.0270
    117  CG         7.0650    3.9500  -32.7990 C.3   299  LEU299      0.0019
    118  CD1        8.5060    3.7860  -32.2480 C.3   299  LEU299      0.0001
    119  CD2        7.1340    4.6560  -34.1130 C.3   299  LEU299      0.0001
    120  N          8.3080   -0.3810  -40.7650 N.3   307  THR307     -0.1218
    121  CA         7.6410    0.1840  -39.6010 C.3   307  THR307      0.1862
    122  C          6.6580    1.2630  -39.9930 C.2   307  THR307      0.2287
    123  O          6.9200    2.0780  -40.8790 O.2   307  THR307     -0.2866
    124  CB         8.6980    0.7350  -38.6360 C.3   307  THR307      0.1770
    125  OG1        9.5010   -0.3650  -38.2140 O.3   307  THR307     -0.2211
    126  CG2        8.0790    1.4210  -37.4440 C.3   307  THR307      0.0375
    127  N          4.6920    4.4360  -38.1390 N.3   309  ALA309     -0.1245
    128  CA         4.5540    5.3220  -36.9960 C.3   309  ALA309      0.1562
    129  C          3.3090    6.1590  -37.2040 C.2   309  ALA309      0.2260
    130  O          3.1000    6.6860  -38.3020 O.2   309  ALA309     -0.2867
    131  CB         5.7640    6.2440  -36.8650 C.3   309  ALA309      0.0290
@<TRIPOS>BOND
     1    50    49    2
     2    49    48    1
     3    52    51    1
     4    48    47    1
     5    48    51    1
     6    63    62    1
     7    63    64    2
     8    47    40   am
     9    38    39    1
    10    62    61    1
    11    62    65    1
    12    41    40    2
    13    40    39    1
    14    69    70    1
    15    39    42    1
    16    70    71    1
    17    65    66    1
    18    36    35    2
    19    20    19    2
    20    35    34    1
    21    73    71   am
    22    73    74    1
    23    71    72    2
    24    42    43    1
    25    74    75    1
    26    25    24    2
    27    19    18    1
    28    67    66   ar
    29    66    68   ar
    30    43    44    1
    31    22    23    1
    32    58    59    1
    33    58    57    1
    34    55    54    1
    35    55    56    2
    36    54    57    1
    37    54    53    1
    38    24    23    1
    39    24    33   am
    40    21    18    1
    41    23    26    1
    42    34    33    1
    43    34    37    1
    44    18    17    1
    45    59    60    1
    46    75    76    2
    47    75    77   am
    48   123   122    2
    49   120   121    1
    50    44    46   ar
    51    44    45   ar
    52    77    78    1
    53    26    27    1
    54   122   121    1
    55    17    11   am
    56    27    28    1
    57   121   124    1
    58    12    11    2
    59    11    10    1
    60    78    79    1
    61     4     3    2
    62   124   125    1
    63   124   126    1
    64     3     2    1
    65   130   129    2
    66    28    29    1
    67     9    10    1
    68   127   128    1
    69    10    13    1
    70    80    79    2
    71    29    30    2
    72    79    81   am
    73     5     2    1
    74     5     6    1
    75     2     1    1
    76   129   128    1
    77   128   131    1
    78    13    14    1
    79    30    32    1
    80    30    31    1
    81    81    82    1
    82     7     6    1
    83     6     8    1
    84    14    15    2
    85    14    16   am
    86    82    83    1
    87    82    85    1
    88    84    83    2
    89    85    86    1
    90    85    87    1
    91   119   117    1
    92   114   113    1
    93   114   115    2
    94   113   116    1
    95   113   112    1
    96   116   117    1
    97   117   118    1
    98   111   109    1
    99    95    93    1
   100   102   101    1
   101   110   109    1
   102   109   108    1
   103    93    92    1
   104   103   101    1
   105   101   100    1
   106   108   105    1
   107    92    94    1
   108    92    89    1
   109   105   104    1
   110   105   106    1
   111   100    97    1
   112    89    88    1
   113    89    90    1
   114   107   106    2
   115    91    90    2
   116    97    98    1
   117    97    96    1
   118    99    98    2
