@<TRIPOS>MOLECULE
tmp/5j72B01.pdb
 82 77 0 0 0
SMALL
GASTEIGER

@<TRIPOS>ATOM
      1  N        -17.1670   73.3260   40.7050 N.3   268  ALA268     -0.1231
      2  CA       -16.6270   74.1910   39.6410 C.3   268  ALA268      0.1694
      3  C        -15.3540   73.7180   39.0180 C.2   268  ALA268      0.2592
      4  O        -15.0170   74.2080   37.9540 O.2   268  ALA268     -0.2718
      5  CB       -16.3770   75.6100   40.2040 C.3   268  ALA268      0.0304
      6  N        -14.6320   72.7620   39.6120 N.am  269  GLY269     -0.1957
      7  CA       -13.3590   72.3290   39.0460 C.3   269  GLY269      0.1869
      8  C        -13.2540   70.8370   38.8010 C.2   269  GLY269      0.2309
      9  O        -12.2390   70.1980   39.0740 O.2   269  GLY269     -0.2863
     10  N        -12.8450   69.4520   36.0190 N.3   271  TYR271     -0.1227
     11  CA       -11.7060   69.1380   35.1310 C.3   271  TYR271      0.1736
     12  C        -10.3640   69.4820   35.8100 C.2   271  TYR271      0.2595
     13  O         -9.3720   68.9300   35.4550 O.2   271  TYR271     -0.2718
     14  CB       -11.8560   69.8860   33.7540 C.3   271  TYR271      0.0548
     15  CG       -12.8310   69.1020   32.8980 C.ar  271  TYR271     -0.0200
     16  CD1      -14.2010   69.3960   32.9120 C.ar  271  TYR271     -0.0009
     17  CD2      -12.3920   68.0510   32.1050 C.ar  271  TYR271     -0.0009
     18  CE1      -15.1050   68.6610   32.1510 C.ar  271  TYR271      0.0417
     19  CE2      -13.2870   67.3010   31.3400 C.ar  271  TYR271      0.0417
     20  CZ       -14.6400   67.6110   31.3600 C.ar  271  TYR271      0.1957
     21  OH       -15.4730   66.8790   30.5600 O.3   271  TYR271     -0.2866
     22  N        -10.3510   70.3830   36.7890 N.am  272  ASP272     -0.1974
     23  CA        -9.0880   70.6140   37.5210 C.3   272  ASP272      0.1709
     24  C         -8.6720   69.3030   38.2760 C.2   272  ASP272      0.2293
     25  O         -7.5060   68.8800   38.2530 O.2   272  ASP272     -0.2864
     26  CB        -9.3200   71.7810   38.4850 C.3   272  ASP272      0.1436
     27  CG        -9.5540   73.0800   37.7140 C.2   272  ASP272      0.3671
     28  OD1       -8.8290   73.3190   36.7180 O.co2 272  ASP272     -0.2456
     29  OD2      -10.4620   73.8490   38.0980 O.co2 272  ASP272     -0.2456
     30  N        -11.0600   82.3070   39.7960 N.3   318  GLN318     -0.1245
     31  CA       -12.5160   82.2010   39.7370 C.3   318  GLN318      0.1566
     32  C        -12.9960   80.8890   40.4240 C.2   318  GLN318      0.2260
     33  O        -14.1220   80.8500   40.8980 O.2   318  GLN318     -0.2867
     34  CB       -12.9950   82.1940   38.2670 C.3   318  GLN318      0.0367
     35  CG       -12.6780   80.8750   37.5240 C.3   318  GLN318      0.0905
     36  CD       -11.2370   80.8110   37.0250 C.2   318  GLN318      0.2608
     37  OE1      -10.3920   81.6440   37.3830 O.2   318  GLN318     -0.2717
     38  NE2      -10.9110   79.7940   36.1890 N.am  318  GLN318     -0.0878
     39  N         -5.2110   77.8840   34.1950 N.3   343  GLY343     -0.1210
     40  CA        -5.3000   77.8820   32.7520 C.3   343  GLY343      0.1956
     41  C         -6.6240   78.5380   32.4240 C.2   343  GLY343      0.2612
     42  O         -7.5270   78.6080   33.2520 O.2   343  GLY343     -0.2717
     43  N         -6.7610   79.0010   31.1770 N.am  344  ALA344     -0.1965
     44  CA        -7.9790   79.6900   30.7550 C.3   344  ALA344      0.1728
     45  C         -9.1410   78.7320   30.6010 C.2   344  ALA344      0.2616
     46  O        -10.2890   79.1510   30.6460 O.2   344  ALA344     -0.2715
     47  CB        -7.7130   80.3840   29.4190 C.3   344  ALA344      0.0334
     48  N         -8.8470   77.4340   30.3680 N.am  345  ASP345     -0.1957
     49  CA        -9.9100   76.4430   30.2360 C.3   345  ASP345      0.1840
     50  C         -9.2820   75.0620   30.5740 C.2   345  ASP345      0.2621
     51  O         -8.1080   75.0180   30.8990 O.2   345  ASP345     -0.2715
     52  CB       -10.5460   76.4260   28.7970 C.3   345  ASP345      0.1450
     53  CG        -9.5830   76.1540   27.6650 C.2   345  ASP345      0.3671
     54  OD1       -8.5700   75.4590   27.8930 O.co2 345  ASP345     -0.2456
     55  OD2       -9.8280   76.6520   26.5390 O.co2 345  ASP345     -0.2456
     56  N        -10.0600   73.9590   30.4610 N.am  346  ARG346     -0.1977
     57  CA        -9.5520   72.6230   30.8380 C.3   346  ARG346      0.1597
     58  C         -8.3240   72.2190   30.0290 C.2   346  ARG346      0.2287
     59  O         -7.4880   71.4580   30.5470 O.2   346  ARG346     -0.2864
     60  CB       -10.6750   71.5680   30.6710 C.3   346  ARG346      0.0334
     61  CG       -11.0690   71.2960   29.1810 C.3   346  ARG346      0.0492
     62  CD       -12.4240   70.4800   29.0210 C.3   346  ARG346      0.2205
     63  NE       -13.5500   71.2730   29.5080 N.pl3 346  ARG346     -0.0865
     64  CZ       -14.8210   70.9030   29.3920 C.cat 346  ARG346      0.5346
     65  NH1      -15.1400   69.7420   28.8130 N.pl3 346  ARG346      0.1354
     66  NH2      -15.7840   71.6850   29.8500 N.pl3 346  ARG346      0.1354
     67  N         -5.2320   74.2350   31.3470 N.3   349  THR349     -0.1218
     68  CA        -4.8790   73.7340   32.6730 C.3   349  THR349      0.1862
     69  C         -4.1970   72.3770   32.5210 C.2   349  THR349      0.2287
     70  O         -3.2100   72.0900   33.1690 O.2   349  THR349     -0.2866
     71  CB        -6.1410   73.6420   33.5690 C.3   349  THR349      0.1770
     72  OG1       -6.6710   74.9680   33.7380 O.3   349  THR349     -0.2211
     73  CG2       -5.8220   73.0250   34.9430 C.3   349  THR349      0.0375
     74  N         -9.1730   86.0820   27.9360 N.3   623  LYS623     -0.1245
     75  CA        -9.9040   85.0550   27.1910 C.3   623  LYS623      0.1561
     76  C        -11.1770   85.6820   26.5480 C.2   623  LYS623      0.2260
     77  O        -11.5430   85.3290   25.4360 O.2   623  LYS623     -0.2867
     78  CB       -10.2960   83.8930   28.1360 C.3   623  LYS623      0.0271
     79  CG       -11.1020   82.7880   27.4550 C.3   623  LYS623      0.0035
     80  CD       -11.4350   81.6650   28.4830 C.3   623  LYS623      0.0206
     81  CE       -12.0620   80.5260   27.7350 C.3   623  LYS623      0.1093
     82  NZ       -13.1890   79.9610   28.5030 N.3   623  LYS623     -0.1314
@<TRIPOS>BOND
     1    77    76    2
     2    55    53   ar
     3    76    75    1
     4    75    74    1
     5    75    78    1
     6    79    78    1
     7    79    80    1
     8    53    54   ar
     9    53    52    1
    10    81    80    1
    11    81    82    1
    12    52    49    1
    13    65    64    1
    14    62    61    1
    15    62    63    1
    16    61    60    1
    17    64    63    2
    18    64    66    1
    19    47    44    1
    20    58    59    2
    21    58    57    1
    22    49    48    1
    23    49    50    1
    24    48    45   am
    25    56    50   am
    26    56    57    1
    27    21    20    1
    28    50    51    2
    29    45    46    2
    30    45    44    1
    31    60    57    1
    32    44    43    1
    33    43    41   am
    34    19    20   ar
    35    19    17   ar
    36    67    68    1
    37    20    18   ar
    38    17    15   ar
    39    18    16   ar
    40    41    40    1
    41    41    42    2
    42    69    68    1
    43    69    70    2
    44    68    71    1
    45    40    39    1
    46    15    16   ar
    47    15    14    1
    48    71    72    1
    49    71    73    1
    50    14    11    1
    51    11    12    1
    52    11    10    1
    53    13    12    2
    54    12    22   am
    55    38    36   am
    56    28    27   ar
    57    22    23    1
    58    36    37    2
    59    36    35    1
    60    23    24    1
    61    23    26    1
    62    35    34    1
    63    27    29   ar
    64    27    26    1
    65     4     3    2
    66    25    24    2
    67    34    31    1
    68     8     7    1
    69     8     9    2
    70     3     6   am
    71     3     2    1
    72     7     6    1
    73     2     5    1
    74     2     1    1
    75    31    30    1
    76    31    32    1
    77    32    33    2
