@<TRIPOS>MOLECULE
tmp/5j74B00.pdb
 182 173 0 0 0
SMALL
GASTEIGER

@<TRIPOS>ATOM
      1  N        -13.9330  -10.9960  -37.0950 N.3    34  SER34      -0.1217
      2  CA       -13.5160  -11.8890  -36.0350 C.3    34  SER34       0.1889
      3  C        -12.7880  -11.1180  -34.9250 C.2    34  SER34       0.2288
      4  O        -12.2860  -10.0160  -35.1480 O.2    34  SER34      -0.2866
      5  CB       -12.6260  -12.9800  -36.6280 C.3    34  SER34       0.2089
      6  OG       -12.8420  -14.1950  -35.9490 O.3    34  SER34      -0.2183
      7  N         -9.7610  -11.5320  -31.8830 N.3    36  VAL36      -0.1245
      8  CA        -8.6090  -12.3230  -31.4450 C.3    36  VAL36       0.1561
      9  C         -7.8790  -11.5320  -30.3690 C.2    36  VAL36       0.2260
     10  O         -7.6670  -10.3330  -30.5160 O.2    36  VAL36      -0.2867
     11  CB        -7.6590  -12.6300  -32.6360 C.3    36  VAL36       0.0252
     12  CG1       -6.3980  -13.3830  -32.1980 C.3    36  VAL36       0.0019
     13  CG2       -8.3920  -13.4460  -33.6940 C.3    36  VAL36       0.0019
     14  N         -8.3350  -16.8950  -30.5850 N.3    46  TRP46      -0.1241
     15  CA        -9.6020  -16.5550  -31.1990 C.3    46  TRP46       0.1605
     16  C        -10.7190  -16.6450  -30.1850 C.2    46  TRP46       0.2264
     17  O        -10.8620  -17.6590  -29.4950 O.2    46  TRP46      -0.2867
     18  CB        -9.8940  -17.5210  -32.3310 C.3    46  TRP46       0.0550
     19  CG       -11.1730  -17.2810  -33.1090 C.ar   46  TRP46       0.0003
     20  CD1      -11.4070  -16.3160  -34.0490 C.ar   46  TRP46       0.0946
     21  CD2      -12.3480  -18.0810  -33.0640 C.ar   46  TRP46       0.0152
     22  NE1      -12.6630  -16.4640  -34.5760 N.ar   46  TRP46      -0.2442
     23  CE2      -13.2670  -17.5370  -33.9860 C.ar   46  TRP46       0.0810
     24  CE3      -12.7210  -19.2000  -32.3200 C.ar   46  TRP46       0.0012
     25  CZ2      -14.5320  -18.0770  -34.1870 C.ar   46  TRP46       0.0191
     26  CZ3      -13.9760  -19.7460  -32.5180 C.ar   46  TRP46       0.0001
     27  CH2      -14.8670  -19.1890  -33.4490 C.ar   46  TRP46       0.0015
     28  N        -16.5060  -14.6150  -33.8300 N.3    49  GLY49      -0.1225
     29  CA       -16.7420  -13.7410  -34.9650 C.3    49  GLY49       0.1811
     30  C        -18.1470  -13.8270  -35.5160 C.2    49  GLY49       0.2280
     31  O        -18.9170  -14.7010  -35.1420 O.2    49  GLY49      -0.2866
     32  N        -20.4270  -13.7950  -39.2420 N.3    51  ILE51      -0.1245
     33  CA       -20.2860  -14.1440  -40.6570 C.3    51  ILE51       0.1561
     34  C        -21.3110  -13.3570  -41.4620 C.2    51  ILE51       0.2260
     35  O        -22.4360  -13.1500  -40.9990 O.2    51  ILE51      -0.2867
     36  CB       -20.3760  -15.6690  -40.8990 C.3    51  ILE51       0.0252
     37  CG1      -21.7220  -16.2480  -40.4530 C.3    51  ILE51       0.0019
     38  CG2      -19.2500  -16.3660  -40.1480 C.3    51  ILE51       0.0019
     39  CD1      -21.8960  -17.7000  -40.8280 C.3    51  ILE51       0.0001
     40  N        -20.4890  -16.5720  -33.6220 N.3    58  ASP58      -0.1239
     41  CA       -20.0370  -17.8430  -33.0800 C.3    58  ASP58       0.1674
     42  C        -18.8270  -17.6270  -32.1850 C.2    58  ASP58       0.2266
     43  O        -18.1550  -16.5990  -32.2930 O.2    58  ASP58      -0.2867
     44  CB       -19.8440  -18.8780  -34.2060 C.3    58  ASP58       0.1410
     45  CG       -18.5490  -18.7270  -34.9750 C.2    58  ASP58       0.3668
     46  OD1      -17.9880  -17.6240  -35.1060 O.co2  58  ASP58      -0.2456
     47  OD2      -18.0960  -19.7610  -35.4810 O.co2  58  ASP58      -0.2456
     48  N        -10.5170   -8.2130  -36.4710 N.3    96  VAL96      -0.1245
     49  CA        -9.9350   -8.6840  -37.7420 C.3    96  VAL96       0.1561
     50  C        -11.0210   -8.7510  -38.8320 C.2    96  VAL96       0.2260
     51  O        -12.0400   -9.4400  -38.6450 O.2    96  VAL96      -0.2867
     52  CB        -9.3320  -10.1030  -37.5830 C.3    96  VAL96       0.0252
     53  CG1       -8.5140  -10.4890  -38.8070 C.3    96  VAL96       0.0019
     54  CG2       -8.4660  -10.2080  -36.3330 C.3    96  VAL96       0.0019
     55  N        -12.1330  -10.1540  -42.3170 N.3    98  LEU98      -0.1245
     56  CA       -11.8700  -11.2460  -43.2450 C.3    98  LEU98       0.1561
     57  C        -12.7550  -10.9650  -44.4390 C.2    98  LEU98       0.2260
     58  O        -13.9270  -10.6030  -44.2720 O.2    98  LEU98      -0.2867
     59  CB       -12.2360  -12.6010  -42.6040 C.3    98  LEU98       0.0270
     60  CG       -11.9060  -12.8410  -41.1160 C.3    98  LEU98       0.0019
     61  CD1      -12.4120  -14.1950  -40.6580 C.3    98  LEU98       0.0001
     62  CD2      -10.4140  -12.7530  -40.8430 C.3    98  LEU98       0.0001
     63  N         -8.9380  -14.7140  -50.9290 N.3   107  TYR107     -0.1241
     64  CA        -9.0440  -14.3770  -49.5090 C.3   107  TYR107      0.1605
     65  C         -8.0990  -13.2400  -49.0660 C.2   107  TYR107      0.2264
     66  O         -6.9940  -13.0760  -49.5920 O.2   107  TYR107     -0.2867
     67  CB        -8.7880  -15.6310  -48.6520 C.3   107  TYR107      0.0534
     68  CG        -8.7170  -15.3710  -47.1570 C.ar  107  TYR107     -0.0201
     69  CD1       -9.8700  -15.2820  -46.3920 C.ar  107  TYR107     -0.0009
     70  CD2       -7.4930  -15.1790  -46.5240 C.ar  107  TYR107     -0.0009
     71  CE1       -9.8080  -15.0270  -45.0430 C.ar  107  TYR107      0.0417
     72  CE2       -7.4230  -14.9260  -45.1730 C.ar  107  TYR107      0.0417
     73  CZ        -8.5750  -14.8480  -44.4360 C.ar  107  TYR107      0.1957
     74  OH        -8.5200  -14.5950  -43.0820 O.3   107  TYR107     -0.2866
     75  N         -7.4210  -10.5100  -45.2460 N.3   109  ASP109     -0.1239
     76  CA        -7.3240  -10.5950  -43.8270 C.3   109  ASP109      0.1674
     77  C         -6.6820   -9.2500  -43.4200 C.2   109  ASP109      0.2266
     78  O         -5.5490   -8.9870  -43.8110 O.2   109  ASP109     -0.2867
     79  CB        -6.3740  -11.7870  -43.6120 C.3   109  ASP109      0.1410
     80  CG        -6.2920  -12.2420  -42.2190 C.2   109  ASP109      0.3668
     81  OD1       -5.7970  -11.4670  -41.4070 O.co2 109  ASP109     -0.2456
     82  OD2       -6.6530  -13.4060  -41.9660 O.co2 109  ASP109     -0.2456
     83  N         -5.9530   -6.8300  -39.9510 N.3   111  TRP111     -0.1241
     84  CA        -6.0240   -6.7560  -38.4720 C.3   111  TRP111      0.1605
     85  C         -5.9900   -5.3160  -37.9570 C.2   111  TRP111      0.2264
     86  O         -5.1710   -4.5180  -38.3910 O.2   111  TRP111     -0.2867
     87  CB        -4.8570   -7.5050  -37.8310 C.3   111  TRP111      0.0550
     88  CG        -4.8590   -8.9930  -38.0190 C.ar  111  TRP111      0.0003
     89  CD1       -4.8170   -9.6520  -39.1920 C.ar  111  TRP111      0.0946
     90  CD2       -4.8700   -9.9990  -36.9950 C.ar  111  TRP111      0.0152
     91  NE1       -4.8180  -11.0070  -38.9830 N.ar  111  TRP111     -0.2442
     92  CE2       -4.8520  -11.2500  -37.6400 C.ar  111  TRP111      0.0810
     93  CE3       -4.9220   -9.9640  -35.6010 C.ar  111  TRP111      0.0012
     94  CZ2       -4.8750  -12.4670  -36.9380 C.ar  111  TRP111      0.0191
     95  CZ3       -4.9480  -11.1700  -34.9020 C.ar  111  TRP111      0.0001
     96  CH2       -4.9230  -12.4050  -35.5770 C.ar  111  TRP111      0.0015
     97  N         -8.5180  -28.6340  -43.1570 N.3   152  ASN152     -0.1225
     98  CA        -8.7990  -27.2080  -43.2950 C.3   152  ASN152      0.1785
     99  C         -7.6300  -26.4120  -43.7990 C.2   152  ASN152      0.2597
    100  O         -6.4840  -26.8060  -43.6510 O.2   152  ASN152     -0.2718
    101  CB        -9.2410  -26.6120  -41.9680 C.3   152  ASN152      0.1169
    102  CG       -10.6300  -27.0490  -41.5780 C.2   152  ASN152      0.2627
    103  OD1      -11.5960  -26.7000  -42.2440 O.2   152  ASN152     -0.2716
    104  ND2      -10.7420  -27.8040  -40.4910 N.am  152  ASN152     -0.0877
    105  N         -7.9550  -25.2840  -44.4220 N.am  153  LYS153     -0.1980
    106  CA        -6.9730  -24.4240  -45.0460 C.3   153  LYS153      0.1596
    107  C         -6.1060  -23.8050  -43.9510 C.2   153  LYS153      0.2287
    108  O         -6.6220  -23.4180  -42.8930 O.2   153  LYS153     -0.2864
    109  CB        -7.6790  -23.3550  -45.9090 C.3   153  LYS153      0.0298
    110  CG        -8.3360  -23.9300  -47.1600 C.3   153  LYS153      0.0038
    111  CD        -9.0250  -22.8780  -48.0150 C.3   153  LYS153      0.0206
    112  CE       -10.3930  -22.5060  -47.4780 C.3   153  LYS153      0.1093
    113  NZ       -10.8390  -21.1500  -47.9250 N.3   153  LYS153     -0.1314
    114  N         -3.4040  -20.9380  -42.6070 N.3   155  ASN155     -0.1240
    115  CA        -2.8790  -19.5770  -42.7760 C.3   155  ASN155      0.1653
    116  C         -1.5880  -19.4360  -41.9940 C.2   155  ASN155      0.2266
    117  O         -1.4110  -20.1060  -40.9900 O.2   155  ASN155     -0.2867
    118  CB        -3.8810  -18.5260  -42.3000 C.3   155  ASN155      0.1155
    119  CG        -4.9890  -18.2480  -43.3060 C.2   155  ASN155      0.2627
    120  OD1       -5.1480  -18.9430  -44.3040 O.2   155  ASN155     -0.2716
    121  ND2       -5.7860  -17.2260  -43.0210 N.am  155  ASN155     -0.0877
    122  N          0.8020  -16.1830  -40.3000 N.3   157  TYR157     -0.1241
    123  CA         0.8180  -14.7620  -39.9070 C.3   157  TYR157      0.1605
    124  C          2.2130  -14.4010  -39.4120 C.2   157  TYR157      0.2264
    125  O          2.8190  -15.1410  -38.6280 O.2   157  TYR157     -0.2867
    126  CB        -0.2170  -14.4990  -38.7910 C.3   157  TYR157      0.0534
    127  CG        -1.6200  -14.7280  -39.2690 C.ar  157  TYR157     -0.0201
    128  CD1       -2.2540  -13.7760  -40.0470 C.ar  157  TYR157     -0.0009
    129  CD2       -2.2890  -15.9290  -39.0150 C.ar  157  TYR157     -0.0009
    130  CE1       -3.5270  -13.9850  -40.5400 C.ar  157  TYR157      0.0417
    131  CE2       -3.5660  -16.1550  -39.5020 C.ar  157  TYR157      0.0417
    132  CZ        -4.1770  -15.1750  -40.2700 C.ar  157  TYR157      0.1957
    133  OH        -5.4380  -15.3500  -40.7600 O.3   157  TYR157     -0.2866
    134  N         -4.6550  -20.2420  -47.5850 N.3   171  SER171     -0.1217
    135  CA        -5.0010  -21.4270  -48.3590 C.3   171  SER171      0.1889
    136  C         -3.7940  -22.3620  -48.5770 C.2   171  SER171      0.2288
    137  O         -3.4990  -22.7900  -49.6960 O.2   171  SER171     -0.2866
    138  CB        -5.6450  -21.0000  -49.6750 C.3   171  SER171      0.2089
    139  OG        -6.3120  -22.0920  -50.2610 O.3   171  SER171     -0.2183
    140  N         -8.8680  -23.6380  -38.9220 N.3   212  TRP212     -0.1241
    141  CA       -10.1090  -24.0000  -38.2960 C.3   212  TRP212      0.1605
    142  C        -10.0630  -25.4530  -37.8260 C.2   212  TRP212      0.2264
    143  O         -9.4360  -26.2910  -38.4710 O.2   212  TRP212     -0.2867
    144  CB       -11.2340  -23.8370  -39.3000 C.3   212  TRP212      0.0550
    145  CG       -12.5370  -24.1240  -38.7440 C.ar  212  TRP212      0.0003
    146  CD1      -13.2710  -25.2440  -38.9320 C.ar  212  TRP212      0.0946
    147  CD2      -13.2860  -23.2830  -37.8690 C.ar  212  TRP212      0.0152
    148  NE1      -14.4550  -25.1490  -38.2550 N.ar  212  TRP212     -0.2442
    149  CE2      -14.4930  -23.9500  -37.5910 C.ar  212  TRP212      0.0810
    150  CE3      -13.0610  -22.0270  -37.3030 C.ar  212  TRP212      0.0012
    151  CZ2      -15.4840  -23.4030  -36.7610 C.ar  212  TRP212      0.0191
    152  CZ3      -14.0400  -21.4840  -36.4840 C.ar  212  TRP212      0.0001
    153  CH2      -15.2330  -22.1780  -36.2120 C.ar  212  TRP212      0.0015
    154  N        -14.7730  -26.7120  -33.2390 N.3   217  SER217     -0.1217
    155  CA       -15.6050  -25.7010  -33.8700 C.3   217  SER217      0.1889
    156  C        -15.0260  -24.3240  -33.5430 C.2   217  SER217      0.2288
    157  O        -15.7400  -23.4180  -33.1380 O.2   217  SER217     -0.2866
    158  CB       -17.0820  -25.8600  -33.4420 C.3   217  SER217      0.2089
    159  OG       -17.9650  -25.5790  -34.5240 O.3   217  SER217     -0.2183
    160  N        -11.3320  -21.4890  -34.4320 N.3   219  TYR219     -0.1241
    161  CA       -10.1010  -21.1510  -35.1280 C.3   219  TYR219      0.1605
    162  C         -8.9270  -21.2310  -34.1810 C.2   219  TYR219      0.2264
    163  O         -8.9510  -20.6520  -33.1080 O.2   219  TYR219     -0.2867
    164  CB       -10.1870  -19.7500  -35.7370 C.3   219  TYR219      0.0534
    165  CG        -9.1840  -19.5300  -36.8280 C.ar  219  TYR219     -0.0201
    166  CD1       -9.2190  -20.3130  -37.9830 C.ar  219  TYR219     -0.0009
    167  CD2       -8.2000  -18.5490  -36.7310 C.ar  219  TYR219     -0.0009
    168  CE1       -8.2970  -20.1380  -39.0040 C.ar  219  TYR219      0.0417
    169  CE2       -7.2780  -18.3610  -37.7550 C.ar  219  TYR219      0.0417
    170  CZ        -7.3370  -19.1580  -38.8890 C.ar  219  TYR219      0.1957
    171  OH        -6.4580  -18.9880  -39.9250 O.3   219  TYR219     -0.2866
    172  N         -4.7460  -21.0880  -33.3930 N.3   221  PHE221     -0.1241
    173  CA        -3.4030  -20.6130  -33.7110 C.3   221  PHE221      0.1605
    174  C         -2.3400  -21.5630  -33.1830 C.2   221  PHE221      0.2264
    175  O         -2.5420  -22.2640  -32.1880 O.2   221  PHE221     -0.2867
    176  CB        -3.1820  -19.2090  -33.1430 C.3   221  PHE221      0.0534
    177  CG        -4.0040  -18.1740  -33.8250 C.ar  221  PHE221     -0.0203
    178  CD1       -3.5360  -17.5360  -34.9800 C.ar  221  PHE221     -0.0042
    179  CD2       -5.2670  -17.8660  -33.3570 C.ar  221  PHE221     -0.0042
    180  CE1       -4.3190  -16.5930  -35.6450 C.ar  221  PHE221     -0.0003
    181  CE2       -6.0440  -16.9160  -34.0030 C.ar  221  PHE221     -0.0003
    182  CZ        -5.5690  -16.2730  -35.1470 C.ar  221  PHE221     -0.0000
@<TRIPOS>BOND
     1    63    64    1
     2   139   138    1
     3   137   136    2
     4   138   135    1
     5    66    65    2
     6    64    65    1
     7    64    67    1
     8    67    68    1
     9   136   135    1
    10   135   134    1
    11   111   112    1
    12   111   110    1
    13   113   112    1
    14   110   109    1
    15    68    70   ar
    16    68    69   ar
    17    70    72   ar
    18    69    71   ar
    19   109   106    1
    20    75    76    1
    21    72    73   ar
    22   106   105    1
    23   106   107    1
    24    71    73   ar
    25    57    58    2
    26    57    56    1
    27    73    74    1
    28   105    99   am
    29   120   119    2
    30   107   108    2
    31    76    79    1
    32    76    77    1
    33    78    77    2
    34    99   100    2
    35    99    98    1
    36    79    80    1
    37   119   121   am
    38   119   118    1
    39    98    97    1
    40    98   101    1
    41    56    59    1
    42    56    55    1
    43   115   114    1
    44   115   118    1
    45   115   116    1
    46    59    60    1
    47   103   102    2
    48    80    82   ar
    49    80    81   ar
    50   116   117    2
    51   101   102    1
    52   102   104   am
    53    34    35    2
    54    34    33    1
    55    60    62    1
    56    60    61    1
    57    36    33    1
    58    36    37    1
    59    36    38    1
    60    39    37    1
    61   133   132    1
    62    33    32    1
    63   130   132   ar
    64   130   128   ar
    65   122   123    1
    66   132   131   ar
    67   128   127   ar
    68    83    84    1
    69   171   170    1
    70   123   124    1
    71   123   126    1
    72   131   129   ar
    73   124   125    2
    74   144   145    1
    75   144   141    1
    76   127   129   ar
    77   127   126    1
    78    89    91   ar
    79    89    88   ar
    80   168   170   ar
    81   168   166   ar
    82    91    92   ar
    83   146   145   ar
    84   146   148   ar
    85   140   141    1
    86   170   169   ar
    87    50    51    2
    88    50    49    1
    89    53    52    1
    90   145   147   ar
    91    84    85    1
    92    84    87    1
    93   143   142    2
    94    86    85    2
    95   141   142    1
    96   148   149   ar
    97    88    87    1
    98    88    90   ar
    99   166   165   ar
   100   147   149   ar
   101   147   150   ar
   102   169   167   ar
   103    49    52    1
   104    49    48    1
   105    92    90   ar
   106    92    94   ar
   107   149   151   ar
   108    52    54    1
   109   150   152   ar
   110     1     2    1
   111    90    93   ar
   112    94    96   ar
   113   165   167   ar
   114   165   164    1
   115   151   153   ar
   116     5     2    1
   117     5     6    1
   118   152   153   ar
   119     2     3    1
   120   164   161    1
   121   180   182   ar
   122   180   178   ar
   123    93    95   ar
   124    96    95   ar
   125    30    31    2
   126    30    29    1
   127    47    45   ar
   128     4     3    2
   129   182   181   ar
   130   161   160    1
   131   161   162    1
   132    46    45   ar
   133   178   177   ar
   134    45    44    1
   135    29    28    1
   136    22    20   ar
   137    22    23   ar
   138   159   158    1
   139    44    41    1
   140    25    23   ar
   141    25    27   ar
   142   162   163    2
   143    20    19   ar
   144   181   179   ar
   145    23    21   ar
   146   155   156    1
   147   155   158    1
   148   155   154    1
   149   177   179   ar
   150   177   176    1
   151   173   172    1
   152   173   174    1
   153   173   176    1
   154    13    11    1
   155    40    41    1
   156   156   157    2
   157    27    26   ar
   158   174   175    2
   159    19    21   ar
   160    19    18    1
   161    41    42    1
   162    21    24   ar
   163    11    12    1
   164    11     8    1
   165    26    24   ar
   166    18    15    1
   167    43    42    2
   168     7     8    1
   169     8     9    1
   170    15    14    1
   171    15    16    1
   172    10     9    2
   173    16    17    2
