@<TRIPOS>MOLECULE
tmp/5j75B01.pdb
 185 180 0 0 0
SMALL
GASTEIGER

@<TRIPOS>ATOM
      1  N          1.0420  -31.4020  103.0780 N.3    32  ALA32      -0.1231
      2  CA         1.3790  -30.0290  103.4820 C.3    32  ALA32       0.1694
      3  C          1.0880  -29.8240  104.9700 C.2    32  ALA32       0.2592
      4  O          0.3930  -30.6010  105.5680 O.2    32  ALA32      -0.2718
      5  CB         0.6090  -29.0190  102.6610 C.3    32  ALA32       0.0304
      6  N          1.6230  -28.7470  105.5310 N.am   33  ILE33      -0.1966
      7  CA         1.4900  -28.4180  106.9580 C.3    33  ILE33       0.1727
      8  C          1.0490  -26.9630  107.0590 C.2    33  ILE33       0.2616
      9  O          1.6730  -26.0530  106.4650 O.2    33  ILE33      -0.2715
     10  CB         2.7910  -28.6830  107.7480 C.3    33  ILE33       0.0290
     11  CG1        3.1470  -30.1780  107.6440 C.3    33  ILE33       0.0022
     12  CG2        2.6500  -28.2990  109.2230 C.3    33  ILE33       0.0023
     13  CD1        4.5990  -30.4670  107.8090 C.3    33  ILE33       0.0001
     14  N         -0.0460  -26.7760  107.7830 N.am   34  SER34      -0.1950
     15  CA        -0.6040  -25.4890  108.0550 C.3    34  SER34       0.1924
     16  C         -0.5680  -25.2620  109.5350 C.2    34  SER34       0.2314
     17  O         -0.5440  -26.2000  110.3150 O.2    34  SER34      -0.2863
     18  CB        -2.0660  -25.4060  107.5660 C.3    34  SER34       0.2116
     19  OG        -2.1510  -24.5450  106.5080 O.3    34  SER34      -0.2180
     20  N         -2.5670  -22.8610  112.5120 N.3    36  VAL36      -0.1245
     21  CA        -3.8190  -22.1320  112.7920 C.3    36  VAL36       0.1561
     22  C         -3.8210  -21.8800  114.2950 C.2    36  VAL36       0.2260
     23  O         -3.5650  -22.8270  115.0090 O.2    36  VAL36      -0.2867
     24  CB        -5.0280  -23.0030  112.4390 C.3    36  VAL36       0.0252
     25  CG1       -6.3360  -22.2950  112.7690 C.3    36  VAL36       0.0019
     26  CG2       -5.0210  -23.3360  110.9500 C.3    36  VAL36       0.0019
     27  N         -5.7350  -18.5870  110.6280 N.3    46  TRP46      -0.1241
     28  CA        -4.6120  -19.1390  109.8770 C.3    46  TRP46       0.1605
     29  C         -3.3580  -18.2890  110.0430 C.2    46  TRP46       0.2264
     30  O         -3.4160  -17.0710  109.9160 O.2    46  TRP46      -0.2867
     31  CB        -4.9570  -19.1640  108.3650 C.3    46  TRP46       0.0550
     32  CG        -4.0370  -19.9450  107.5710 C.ar   46  TRP46       0.0003
     33  CD1       -3.8080  -21.2620  107.6860 C.ar   46  TRP46       0.0946
     34  CD2       -3.2260  -19.4840  106.4820 C.ar   46  TRP46       0.0152
     35  NE1       -2.9030  -21.6810  106.7290 N.ar   46  TRP46      -0.2442
     36  CE2       -2.5430  -20.6030  105.9730 C.ar   46  TRP46       0.0810
     37  CE3       -3.0240  -18.2430  105.8810 C.ar   46  TRP46       0.0012
     38  CZ2       -1.6710  -20.5310  104.8720 C.ar   46  TRP46       0.0191
     39  CZ3       -2.1430  -18.1690  104.8060 C.ar   46  TRP46       0.0001
     40  CH2       -1.4730  -19.3320  104.3170 C.ar   46  TRP46       0.0015
     41  N          1.4120  -21.6560  105.9700 N.3    49  GLY49      -0.1210
     42  CA         1.6490  -23.0310  105.6960 C.3    49  GLY49       0.1956
     43  C          2.8380  -23.2310  104.7670 C.2    49  GLY49       0.2613
     44  O          3.3180  -22.2900  104.1310 O.2    49  GLY49      -0.2717
     45  N          3.2550  -24.4820  104.6940 N.am   50  THR50      -0.1938
     46  CA         4.3790  -24.9000  103.9100 C.3    50  THR50       0.2028
     47  C          4.0940  -26.2560  103.2310 C.2    50  THR50       0.2642
     48  O          3.2910  -27.0600  103.7150 O.2    50  THR50      -0.2714
     49  CB         5.6450  -24.9970  104.8000 C.3    50  THR50       0.1808
     50  OG1        6.7600  -25.2810  103.9880 O.3    50  THR50      -0.2208
     51  CG2        5.4940  -26.1490  105.8760 C.3    50  THR50       0.0379
     52  N          4.7450  -26.4610  102.0830 N.am   51  ILE51      -0.1977
     53  CA         4.8190  -27.7490  101.4240 C.3    51  ILE51       0.1596
     54  C          6.2630  -28.2190  101.5520 C.2    51  ILE51       0.2287
     55  O          7.1440  -27.7170  100.8520 O.2    51  ILE51      -0.2864
     56  CB         4.4000  -27.6860   99.9420 C.3    51  ILE51       0.0276
     57  CG1        2.9860  -27.1270   99.8130 C.3    51  ILE51       0.0022
     58  CG2        4.4150  -29.0890   99.3160 C.3    51  ILE51       0.0022
     59  CD1        2.6460  -26.6980   98.4170 C.3    51  ILE51       0.0001
     60  N          8.7080  -24.4890  100.2500 N.3    56  THR56      -0.1203
     61  CA         8.0860  -23.1800  100.0800 C.3    56  THR56       0.1994
     62  C          6.9560  -22.9900  101.0860 C.2    56  THR56       0.2618
     63  O          6.3890  -23.9690  101.6170 O.2    56  THR56      -0.2717
     64  CB         7.4630  -23.0120   98.6600 C.3    56  THR56       0.1784
     65  OG1        6.5650  -24.1060   98.4010 O.3    56  THR56      -0.2211
     66  CG2        8.5670  -23.0250   97.6080 C.3    56  THR56       0.0376
     67  N          6.6740  -21.7190  101.3740 N.am   57  ALA57      -0.1965
     68  CA         5.6980  -21.3470  102.3900 C.3    57  ALA57       0.1728
     69  C          4.9690  -20.0470  102.0280 C.2    57  ALA57       0.2616
     70  O          5.4150  -19.2570  101.1940 O.2    57  ALA57      -0.2715
     71  CB         6.3640  -21.2340  103.7460 C.3    57  ALA57       0.0334
     72  N          3.8500  -19.8430  102.7000 N.am   58  ASP58      -0.1971
     73  CA         3.0460  -18.6530  102.5460 C.3    58  ASP58       0.1709
     74  C          2.5820  -18.2440  103.9380 C.2    58  ASP58       0.2293
     75  O          2.2620  -19.1120  104.7160 O.2    58  ASP58      -0.2864
     76  CB         1.8650  -19.0570  101.6800 C.3    58  ASP58       0.1436
     77  CG         1.1570  -17.9010  101.0520 C.2    58  ASP58       0.3671
     78  OD1        1.1610  -16.7870  101.6410 O.co2  58  ASP58      -0.2456
     79  OD2        0.5640  -18.1090   99.9540 O.co2  58  ASP58      -0.2456
     80  N         -1.5810  -28.4540  111.5430 N.3    96  VAL96      -0.1245
     81  CA        -2.5470  -29.1900  110.6780 C.3    96  VAL96       0.1561
     82  C         -1.8160  -29.8830  109.5220 C.2    96  VAL96       0.2260
     83  O         -1.0580  -29.2500  108.7670 O.2    96  VAL96      -0.2867
     84  CB        -3.6320  -28.2750  110.1160 C.3    96  VAL96       0.0252
     85  CG1       -4.7320  -29.0640  109.3410 C.3    96  VAL96       0.0019
     86  CG2       -4.2330  -27.4270  111.2320 C.3    96  VAL96       0.0019
     87  N         -2.2310  -31.8570  106.0330 N.3    98  LEU98      -0.1245
     88  CA        -3.2100  -31.9390  104.9430 C.3    98  LEU98       0.1561
     89  C         -2.6550  -32.5830  103.6910 C.2    98  LEU98       0.2260
     90  O         -1.4720  -32.4460  103.3950 O.2    98  LEU98      -0.2867
     91  CB        -3.7450  -30.5660  104.5130 C.3    98  LEU98       0.0270
     92  CG        -3.5810  -29.2190  105.1780 C.3    98  LEU98       0.0019
     93  CD1       -2.1580  -28.8600  105.4670 C.3    98  LEU98       0.0001
     94  CD2       -4.1510  -28.1580  104.2760 C.3    98  LEU98       0.0001
     95  N         -9.0000  -35.9030   99.7350 N.3   107  TYR107     -0.1241
     96  CA        -8.5030  -34.9150  100.6880 C.3   107  TYR107      0.1605
     97  C         -8.6540  -35.4040  102.1220 C.2   107  TYR107      0.2264
     98  O         -9.6230  -36.1210  102.4350 O.2   107  TYR107     -0.2867
     99  CB        -9.2000  -33.5530  100.4950 C.3   107  TYR107      0.0534
    100  CG        -8.8270  -32.5120  101.5250 C.ar  107  TYR107     -0.0201
    101  CD1       -9.5480  -32.4080  102.7270 C.ar  107  TYR107     -0.0009
    102  CD2       -7.7690  -31.6430  101.3290 C.ar  107  TYR107     -0.0009
    103  CE1       -9.2250  -31.4800  103.6730 C.ar  107  TYR107      0.0417
    104  CE2       -7.4390  -30.7050  102.2920 C.ar  107  TYR107      0.0417
    105  CZ        -8.1960  -30.6210  103.4610 C.ar  107  TYR107      0.1957
    106  OH        -7.8830  -29.7140  104.4210 O.3   107  TYR107     -0.2866
    107  N         -7.5690  -33.8040  106.3620 N.3   109  ASP109     -0.1239
    108  CA        -6.7440  -33.0340  107.2370 C.3   109  ASP109      0.1674
    109  C         -6.8210  -33.5560  108.6510 C.2   109  ASP109      0.2266
    110  O         -7.7650  -34.2390  108.9930 O.2   109  ASP109     -0.2867
    111  CB        -6.9160  -31.5080  107.1060 C.3   109  ASP109      0.1410
    112  CG        -8.2460  -30.9870  107.5660 C.2   109  ASP109      0.3668
    113  OD1       -8.7040  -31.3640  108.6630 O.co2 109  ASP109     -0.2456
    114  OD2       -8.7970  -30.1400  106.8250 O.co2 109  ASP109     -0.2456
    115  N         -5.6460  -32.4240  112.7390 N.3   111  TRP111     -0.1241
    116  CA        -5.1400  -31.3540  113.5840 C.3   111  TRP111      0.1605
    117  C         -4.4330  -32.0110  114.7730 C.2   111  TRP111      0.2264
    118  O         -4.8520  -33.0600  115.2490 O.2   111  TRP111     -0.2867
    119  CB        -6.2640  -30.4370  114.0570 C.3   111  TRP111      0.0550
    120  CG        -7.0150  -29.7130  112.9610 C.ar  111  TRP111      0.0003
    121  CD1       -7.6530  -30.2830  111.8760 C.ar  111  TRP111      0.0946
    122  CD2       -7.2990  -28.2980  112.8890 C.ar  111  TRP111      0.0152
    123  NE1       -8.2440  -29.3060  111.1050 N.ar  111  TRP111     -0.2442
    124  CE2       -8.0460  -28.0770  111.6980 C.ar  111  TRP111      0.0810
    125  CE3       -6.9680  -27.1920  113.6850 C.ar  111  TRP111      0.0012
    126  CZ2       -8.4890  -26.7880  111.3020 C.ar  111  TRP111      0.0191
    127  CZ3       -7.4010  -25.8890  113.2830 C.ar  111  TRP111      0.0001
    128  CH2       -8.1510  -25.7060  112.1040 C.ar  111  TRP111      0.0015
    129  N        -14.4670  -25.8480  103.2200 N.3   156  ASN156     -0.1240
    130  CA       -14.4780  -26.8880  104.2270 C.3   156  ASN156      0.1653
    131  C        -15.3250  -26.4850  105.4280 C.2   156  ASN156      0.2266
    132  O        -15.4470  -25.3040  105.7130 O.2   156  ASN156     -0.2867
    133  CB       -13.0580  -27.2280  104.7180 C.3   156  ASN156      0.1155
    134  CG       -12.2260  -27.9700  103.6930 C.2   156  ASN156      0.2627
    135  OD1      -12.6660  -28.2770  102.5610 O.2   156  ASN156     -0.2716
    136  ND2      -11.0000  -28.2770  104.0860 N.am  156  ASN156     -0.0877
    137  N        -15.6140  -27.3860  109.7510 N.3   158  TYR158     -0.1241
    138  CA       -14.9610  -27.9200  110.9450 C.3   158  TYR158      0.1605
    139  C        -15.9230  -27.9350  112.1550 C.2   158  TYR158      0.2264
    140  O        -16.6060  -26.9810  112.3850 O.2   158  TYR158     -0.2867
    141  CB       -13.7330  -27.0790  111.2630 C.3   158  TYR158      0.0534
    142  CG       -12.6890  -27.2400  110.1830 C.ar  158  TYR158     -0.0201
    143  CD1      -11.9180  -28.4010  110.0980 C.ar  158  TYR158     -0.0009
    144  CD2      -12.5600  -26.2930  109.1880 C.ar  158  TYR158     -0.0009
    145  CE1      -11.0090  -28.5790  109.0480 C.ar  158  TYR158      0.0417
    146  CE2      -11.6680  -26.4550  108.1360 C.ar  158  TYR158      0.0417
    147  CZ       -10.9010  -27.5960  108.0720 C.ar  158  TYR158      0.1957
    148  OH       -10.0330  -27.7370  107.0150 O.3   158  TYR158     -0.2866
    149  N         -9.8370  -20.8200  100.9590 N.3   213  TRP213     -0.1241
    150  CA        -8.7750  -19.9610  100.4510 C.3   213  TRP213      0.1605
    151  C         -9.3640  -18.6960   99.8510 C.2   213  TRP213      0.2264
    152  O        -10.4700  -18.6970   99.2980 O.2   213  TRP213     -0.2867
    153  CB        -7.9520  -20.7030   99.4030 C.3   213  TRP213      0.0550
    154  CG        -6.6990  -20.0090   98.9810 C.ar  213  TRP213      0.0003
    155  CD1       -6.4860  -19.3710   97.8200 C.ar  213  TRP213      0.0946
    156  CD2       -5.4680  -19.9630   99.7010 C.ar  213  TRP213      0.0152
    157  NE1       -5.1930  -18.9110   97.7520 N.ar  213  TRP213     -0.2442
    158  CE2       -4.5470  -19.2440   98.9080 C.ar  213  TRP213      0.0810
    159  CE3       -5.0580  -20.4330  100.9390 C.ar  213  TRP213      0.0012
    160  CZ2       -3.2390  -18.9720   99.3280 C.ar  213  TRP213      0.0191
    161  CZ3       -3.7490  -20.1740  101.3510 C.ar  213  TRP213      0.0001
    162  CH2       -2.8750  -19.4480  100.5550 C.ar  213  TRP213      0.0015
    163  N         -5.7360  -18.3500  103.8500 N.3   220  TYR220     -0.1241
    164  CA        -6.8510  -19.1970  104.1460 C.3   220  TYR220      0.1605
    165  C         -7.6550  -18.5010  105.2020 C.2   220  TYR220      0.2264
    166  O         -7.1170  -18.0210  106.1560 O.2   220  TYR220     -0.2867
    167  CB        -6.3710  -20.5240  104.6890 C.3   220  TYR220      0.0534
    168  CG        -7.3940  -21.6270  104.6950 C.ar  220  TYR220     -0.0201
    169  CD1       -7.9270  -22.1100  103.4920 C.ar  220  TYR220     -0.0009
    170  CD2       -7.8410  -22.2040  105.8840 C.ar  220  TYR220     -0.0009
    171  CE1       -8.8020  -23.1760  103.4910 C.ar  220  TYR220      0.0417
    172  CE2       -8.7310  -23.2780  105.8770 C.ar  220  TYR220      0.0417
    173  CZ        -9.2220  -23.7600  104.6920 C.ar  220  TYR220      0.1957
    174  OH       -10.1840  -24.7940  104.6760 O.3   220  TYR220     -0.2866
    175  N        -11.1020  -18.3260  107.7710 N.3   222  PHE222     -0.1241
    176  CA       -12.1580  -18.9990  108.5170 C.3   222  PHE222      0.1605
    177  C        -13.3630  -18.0800  108.6910 C.2   222  PHE222      0.2264
    178  O        -13.2500  -16.8530  108.7340 O.2   222  PHE222     -0.2867
    179  CB       -11.6300  -19.3830  109.8960 C.3   222  PHE222      0.0534
    180  CG       -10.6130  -20.4580  109.8560 C.ar  222  PHE222     -0.0203
    181  CD1      -11.0100  -21.7900  109.8240 C.ar  222  PHE222     -0.0042
    182  CD2       -9.2590  -20.1530  109.7620 C.ar  222  PHE222     -0.0042
    183  CE1      -10.0900  -22.8010  109.7490 C.ar  222  PHE222     -0.0003
    184  CE2       -8.3450  -21.1680  109.6880 C.ar  222  PHE222     -0.0003
    185  CZ        -8.7560  -22.4860  109.6620 C.ar  222  PHE222     -0.0000
@<TRIPOS>BOND
     1    66    64    1
     2   157   155   ar
     3   157   158   ar
     4   155   154   ar
     5    65    64    1
     6    59    57    1
     7    64    61    1
     8   158   160   ar
     9   158   156   ar
    10   154   153    1
    11   154   156   ar
    12   152   151    2
    13    58    56    1
    14   160   162   ar
    15   153   150    1
    16   156   159   ar
    17    95    96    1
    18    57    56    1
    19   151   150    1
    20    56    53    1
    21    79    77   ar
    22    61    60    1
    23    61    62    1
    24   150   149    1
    25    99    96    1
    26    99   100    1
    27   162   161   ar
    28    96    97    1
    29    55    54    2
    30   159   161   ar
    31    77    78   ar
    32    77    76    1
    33    62    67   am
    34    62    63    2
    35    70    69    2
    36   102   100   ar
    37   102   104   ar
    38    67    68    1
    39    53    54    1
    40    53    52    1
    41   100   101   ar
    42    76    73    1
    43    69    68    1
    44    69    72   am
    45    52    47   am
    46    97    98    2
    47   104   105   ar
    48    68    71    1
    49    73    72    1
    50    73    74    1
    51   135   134    2
    52     5     2    1
    53   101   103   ar
    54     1     2    1
    55   129   130    1
    56    47    48    2
    57    47    46    1
    58    90    89    2
    59   105   103   ar
    60   105   106    1
    61     2     3    1
    62   171   169   ar
    63   171   173   ar
    64   169   168   ar
    65    89    88    1
    66   134   136   am
    67   134   133    1
    68   163   164    1
    69    46    45    1
    70    46    49    1
    71    74    75    2
    72    50    49    1
    73    44    43    2
    74   164   167    1
    75   164   165    1
    76   130   133    1
    77   130   131    1
    78    94    92    1
    79    40    39   ar
    80    40    38   ar
    81    91    88    1
    82    91    92    1
    83   174   173    1
    84   167   168    1
    85   173   172   ar
    86    45    43   am
    87   168   170   ar
    88    43    42    1
    89    49    51    1
    90    39    37   ar
    91    38    36   ar
    92    88    87    1
    93     3     6   am
    94     3     4    2
    95    92    93    1
    96   165   166    2
    97   131   132    2
    98     6     7    1
    99    42    41    1
   100   172   170   ar
   101    37    34   ar
   102    36    34   ar
   103    36    35   ar
   104   107   108    1
   105     9     8    2
   106    34    32   ar
   107    19    18    1
   108    35    33   ar
   109   114   112   ar
   110     7     8    1
   111     7    10    1
   112   148   147    1
   113     8    14   am
   114   111   108    1
   115   111   112    1
   116   108   109    1
   117   112   113   ar
   118    18    15    1
   119    32    33   ar
   120    32    31    1
   121    11    10    1
   122    11    13    1
   123    10    12    1
   124   175   176    1
   125    14    15    1
   126    15    16    1
   127   147   146   ar
   128   147   145   ar
   129   146   144   ar
   130    31    28    1
   131   176   177    1
   132   176   179    1
   133   109   110    2
   134   177   178    2
   135    83    82    2
   136   145   143   ar
   137   144   142   ar
   138    85    84    1
   139    82    81    1
   140    16    17    2
   141   185   184   ar
   142   185   183   ar
   143   184   182   ar
   144   183   181   ar
   145   137   138    1
   146   182   180   ar
   147   181   180   ar
   148   180   179    1
   149    28    29    1
   150    28    27    1
   151    30    29    2
   152   143   142   ar
   153    84    81    1
   154    84    86    1
   155   142   141    1
   156    81    80    1
   157   138   141    1
   158   138   139    1
   159    26    24    1
   160   123   124   ar
   161   123   121   ar
   162   126   124   ar
   163   126   128   ar
   164   124   122   ar
   165   121   120   ar
   166   128   127   ar
   167   139   140    2
   168    24    25    1
   169    24    21    1
   170    20    21    1
   171   115   116    1
   172    21    22    1
   173   122   120   ar
   174   122   125   ar
   175   120   119    1
   176   127   125   ar
   177   116   119    1
   178   116   117    1
   179    22    23    2
   180   117   118    2
