@<TRIPOS>MOLECULE
tmp/5j79A00.pdb
 160 148 0 0 0
SMALL
GASTEIGER

@<TRIPOS>ATOM
      1  N         45.1990   45.9460   21.0700 N.3    23  LEU23      -0.1231
      2  CA        45.8130   46.2150   22.3840 C.3    23  LEU23       0.1693
      3  C         44.7970   46.7790   23.3700 C.2    23  LEU23       0.2592
      4  O         44.7370   46.3100   24.4990 O.2    23  LEU23      -0.2718
      5  CB        47.0270   47.1490   22.3140 C.3    23  LEU23       0.0284
      6  CG        48.4020   46.6480   21.8870 C.3    23  LEU23       0.0019
      7  CD1       49.3820   47.8090   21.9250 C.3    23  LEU23       0.0001
      8  CD2       48.9000   45.5240   22.7840 C.3    23  LEU23       0.0001
      9  N         44.0140   47.7790   22.9420 N.am   24  SER24      -0.1952
     10  CA        42.9920   48.4020   23.7860 C.3    24  SER24       0.1924
     11  C         42.0550   49.3160   23.0050 C.2    24  SER24       0.2314
     12  O         42.3330   49.6590   21.8510 O.2    24  SER24      -0.2863
     13  CB        43.6450   49.2330   24.8870 C.3    24  SER24       0.2116
     14  OG        44.2120   50.4060   24.3440 O.3    24  SER24      -0.2180
     15  N         43.7580   50.9860   19.8110 N.3    31  VAL31      -0.1245
     16  CA        45.2110   50.8990   19.6910 C.3    31  VAL31       0.1561
     17  C         45.6460   49.4570   19.4200 C.2    31  VAL31       0.2260
     18  O         45.2770   48.5360   20.1560 O.2    31  VAL31      -0.2867
     19  CB        45.9240   51.4440   20.9530 C.3    31  VAL31       0.0252
     20  CG1       47.4340   51.2520   20.8510 C.3    31  VAL31       0.0019
     21  CG2       45.5960   52.9130   21.1580 C.3    31  VAL31       0.0019
     22  N         53.0350   50.6770   17.1530 N.3    44  ALA44      -0.1231
     23  CA        51.6930   50.7490   17.7300 C.3    44  ALA44       0.1694
     24  C         50.9270   51.6980   16.8200 C.2    44  ALA44       0.2592
     25  O         51.4950   52.6790   16.3160 O.2    44  ALA44      -0.2718
     26  CB        51.7270   51.2780   19.1540 C.3    44  ALA44       0.0304
     27  N         49.6580   51.3990   16.5780 N.am   45  VAL45      -0.1966
     28  CA        48.8600   52.2480   15.7180 C.3    45  VAL45       0.1727
     29  C         47.5390   52.5620   16.3890 C.2    45  VAL45       0.2616
     30  O         46.8580   51.6630   16.8680 O.2    45  VAL45      -0.2715
     31  CB        48.6750   51.6440   14.3010 C.3    45  VAL45       0.0290
     32  CG1       48.0390   50.2720   14.3660 C.3    45  VAL45       0.0023
     33  CG2       47.8460   52.5620   13.4250 C.3    45  VAL45       0.0023
     34  N         47.2240   53.8510   16.4630 N.am   46  LYS46      -0.1977
     35  CA        45.9720   54.3150   17.0250 C.3    46  LYS46       0.1596
     36  C         45.0380   54.7220   15.8830 C.2    46  LYS46       0.2287
     37  O         45.3630   55.6260   15.1040 O.2    46  LYS46      -0.2864
     38  CB        46.2060   55.5060   17.9540 C.3    46  LYS46       0.0298
     39  CG        44.9210   55.9980   18.6160 C.3    46  LYS46       0.0038
     40  CD        45.0170   57.3960   19.2070 C.3    46  LYS46       0.0206
     41  CE        45.5600   57.4060   20.6180 C.3    46  LYS46       0.1093
     42  NZ        45.4250   58.7910   21.1490 N.3    46  LYS46      -0.1314
     43  N         46.6710   65.3700   16.8930 N.3    55  GLU55      -0.1245
     44  CA        47.6240   64.7100   17.7980 C.3    55  GLU55       0.1567
     45  C         48.9310   64.3690   17.0660 C.2    55  GLU55       0.2260
     46  O         50.0220   64.4790   17.6270 O.2    55  GLU55      -0.2867
     47  CB        47.0440   63.4570   18.4770 C.3    55  GLU55       0.0388
     48  CG        47.9820   62.9470   19.5620 C.3    55  GLU55       0.1160
     49  CD        47.5160   61.7020   20.3020 C.2    55  GLU55       0.3649
     50  OE1       46.5510   61.0410   19.8620 O.co2  55  GLU55      -0.2457
     51  OE2       48.1570   61.3740   21.3330 O.co2  55  GLU55      -0.2457
     52  N         52.5890   65.5840   18.3100 N.3    59  LEU59      -0.1245
     53  CA        53.6570   64.6050   18.5600 C.3    59  LEU59       0.1561
     54  C         54.8480   64.8760   17.6610 C.2    59  LEU59       0.2260
     55  O         55.9940   64.8420   18.0990 O.2    59  LEU59      -0.2867
     56  CB        53.1750   63.1690   18.3580 C.3    59  LEU59       0.0270
     57  CG        52.1850   62.5780   19.3620 C.3    59  LEU59       0.0019
     58  CD1       51.6410   61.2590   18.8440 C.3    59  LEU59       0.0001
     59  CD2       52.8360   62.4010   20.7300 C.3    59  LEU59       0.0001
     60  N         56.4480   60.3680   23.6740 N.3    68  LEU68      -0.1245
     61  CA        56.1790   59.2480   22.7450 C.3    68  LEU68       0.1561
     62  C         56.6380   59.5770   21.3170 C.2    68  LEU68       0.2260
     63  O         56.1670   60.5540   20.7430 O.2    68  LEU68      -0.2867
     64  CB        54.6760   58.9450   22.7140 C.3    68  LEU68       0.0270
     65  CG        54.1470   57.8570   21.7630 C.3    68  LEU68       0.0019
     66  CD1       54.6920   56.4850   22.1320 C.3    68  LEU68       0.0001
     67  CD2       52.6250   57.8150   21.7500 C.3    68  LEU68       0.0001
     68  N         47.4440   56.8910   13.6790 N.3    82  ILE82      -0.1245
     69  CA        48.7390   57.4460   14.1130 C.3    82  ILE82       0.1561
     70  C         49.6570   56.2940   14.4450 C.2    82  ILE82       0.2260
     71  O         49.2930   55.4220   15.2480 O.2    82  ILE82      -0.2867
     72  CB        48.6160   58.3240   15.3700 C.3    82  ILE82       0.0252
     73  CG1       47.6560   59.4920   15.1040 C.3    82  ILE82       0.0019
     74  CG2       49.9970   58.8190   15.8270 C.3    82  ILE82       0.0019
     75  CD1       47.3770   60.3630   16.3090 C.3    82  ILE82       0.0001
     76  N         53.2300   55.0020   15.9850 N.3    84  THR84      -0.1203
     77  CA        54.3410   55.3640   16.8570 C.3    84  THR84       0.1994
     78  C         55.1970   54.1480   17.1480 C.2    84  THR84       0.2618
     79  O         54.8540   53.0350   16.7350 O.2    84  THR84      -0.2717
     80  CB        53.8420   55.8860   18.2200 C.3    84  THR84       0.1784
     81  OG1       53.2580   54.8060   18.9670 O.3    84  THR84      -0.2211
     82  CG2       52.8300   56.9940   18.0390 C.3    84  THR84       0.0376
     83  N         56.2950   54.3680   17.8720 N.am   85  GLU85      -0.1965
     84  CA        57.1070   53.2740   18.3990 C.3    85  GLU85       0.1733
     85  C         56.2260   52.5650   19.4090 C.2    85  GLU85       0.2616
     86  O         55.4160   53.2050   20.0790 O.2    85  GLU85      -0.2715
     87  CB        58.3630   53.7880   19.1100 C.3    85  GLU85       0.0429
     88  CG        59.3820   54.4620   18.1990 C.3    85  GLU85       0.1163
     89  CD        60.6710   54.8350   18.9220 C.2    85  GLU85       0.3649
     90  OE1       61.6230   55.3210   18.2380 O.co2  85  GLU85      -0.2457
     91  OE2       60.7350   54.6340   20.1700 O.co2  85  GLU85      -0.2457
     92  N         56.3480   51.2430   19.4820 N.am   86  TYR86      -0.1960
     93  CA        55.5890   50.4320   20.4350 C.3    86  TYR86       0.1771
     94  C         56.2320   50.4680   21.8390 C.2    86  TYR86       0.2619
     95  O         57.4430   50.3240   21.9670 O.2    86  TYR86      -0.2715
     96  CB        55.4920   48.9960   19.9060 C.3    86  TYR86       0.0574
     97  CG        54.8720   47.9760   20.8410 C.ar   86  TYR86      -0.0198
     98  CD1       53.5200   48.0270   21.1680 C.ar   86  TYR86      -0.0009
     99  CD2       55.6360   46.9320   21.3660 C.ar   86  TYR86      -0.0009
    100  CE1       52.9520   47.0830   22.0080 C.ar   86  TYR86       0.0417
    101  CE2       55.0780   45.9810   22.2110 C.ar   86  TYR86       0.0417
    102  CZ        53.7360   46.0610   22.5210 C.ar   86  TYR86       0.1957
    103  OH        53.1700   45.1260   23.3510 O.3    86  TYR86      -0.2866
    104  N         55.4210   50.6790   22.8760 N.am   87  MET87      -0.1977
    105  CA        55.9180   50.6980   24.2570 C.3    87  MET87       0.1605
    106  C         55.5650   49.3530   24.8930 C.2    87  MET87       0.2287
    107  O         54.4130   49.1260   25.2650 O.2    87  MET87      -0.2864
    108  CB        55.3620   51.8930   25.0500 C.3    87  MET87       0.0413
    109  CG        55.7330   53.2420   24.4450 C.3    87  MET87       0.0598
    110  SD        57.5180   53.5060   24.5060 S.3    87  MET87      -0.1393
    111  CE        57.8550   54.4230   23.0130 C.3    87  MET87       0.0692
    112  N         53.6600   48.8710   28.6830 N.3    90  GLY90      -0.1210
    113  CA        52.4010   49.5290   28.9590 C.3    90  GLY90       0.1956
    114  C         52.4860   50.8590   29.6690 C.2    90  GLY90       0.2612
    115  O         53.3990   51.6640   29.4140 O.2    90  GLY90      -0.2717
    116  N         51.5340   51.0740   30.5780 N.am   91  SER91      -0.1952
    117  CA        51.4070   52.3470   31.2730 C.3    91  SER91       0.1924
    118  C         51.8660   52.3330   32.7120 C.2    91  SER91       0.2314
    119  O         51.8810   51.2810   33.3770 O.2    91  SER91      -0.2863
    120  CB        49.9440   52.8070   31.2580 C.3    91  SER91       0.2116
    121  OG        49.1320   51.9260   32.0200 O.3    91  SER91      -0.2180
    122  N         49.3140   50.6840   35.0230 N.3    94  GLU94      -0.1245
    123  CA        49.4060   49.2310   35.1960 C.3    94  GLU94       0.1567
    124  C         50.5500   48.8190   36.1330 C.2    94  GLU94       0.2260
    125  O         50.4310   47.8440   36.8600 O.2    94  GLU94      -0.2867
    126  CB        49.5590   48.5320   33.8450 C.3    94  GLU94       0.0388
    127  CG        48.3400   48.6220   32.9360 C.3    94  GLU94       0.1160
    128  CD        48.5910   48.0680   31.5340 C.2    94  GLU94       0.3649
    129  OE1       49.4030   48.6480   30.7710 O.co2  94  GLU94      -0.2457
    130  OE2       47.9450   47.0610   31.1740 O.co2  94  GLU94      -0.2457
    131  N         47.6560   56.7140   33.2460 N.3   139  GLN139     -0.1245
    132  CA        47.2830   55.9410   32.0610 C.3   139  GLN139      0.1566
    133  C         47.9650   56.5170   30.8100 C.2   139  GLN139      0.2260
    134  O         48.0650   55.8330   29.7950 O.2   139  GLN139     -0.2867
    135  CB        45.7580   55.9010   31.8340 C.3   139  GLN139      0.0367
    136  CG        44.8710   55.3840   32.9700 C.3   139  GLN139      0.0905
    137  CD        44.4580   56.4500   34.0090 C.2   139  GLN139      0.2608
    138  OE1       45.2970   57.1050   34.6620 O.2   139  GLN139     -0.2717
    139  NE2       43.1410   56.5960   34.1890 N.am  139  GLN139     -0.0878
    140  N         53.6280   56.3060   29.3160 N.3   142  LEU142     -0.1245
    141  CA        53.9900   54.9840   28.8330 C.3   142  LEU142      0.1561
    142  C         55.4300   54.6380   29.2140 C.2   142  LEU142      0.2260
    143  O         56.2980   55.5210   29.3620 O.2   142  LEU142     -0.2867
    144  CB        53.7260   54.8470   27.3320 C.3   142  LEU142      0.0270
    145  CG        52.2880   55.1470   26.8710 C.3   142  LEU142      0.0019
    146  CD1       52.1550   55.0380   25.3520 C.3   142  LEU142      0.0001
    147  CD2       51.2720   54.2510   27.5810 C.3   142  LEU142      0.0001
    148  N         52.3390   60.2390   26.5130 N.3   152  ALA152     -0.1231
    149  CA        51.4260   60.0720   25.3760 C.3   152  ALA152      0.1694
    150  C         50.1190   60.8490   25.5710 C.2   152  ALA152      0.2592
    151  O         50.0120   61.6620   26.4940 O.2   152  ALA152     -0.2718
    152  CB        51.1280   58.5930   25.1590 C.3   152  ALA152      0.0304
    153  N         49.1490   60.5800   24.6850 N.am  153  ASP153     -0.1974
    154  CA        47.7860   61.1630   24.6820 C.3   153  ASP153      0.1709
    155  C         47.7250   62.6870   24.6960 C.2   153  ASP153      0.2293
    156  O         47.4000   63.3030   25.6900 O.2   153  ASP153     -0.2864
    157  CB        46.8870   60.5120   25.7530 C.3   153  ASP153      0.1436
    158  CG        46.7890   58.9760   25.5830 C.2   153  ASP153      0.3671
    159  OD1       46.2890   58.4830   24.5400 O.co2 153  ASP153     -0.2456
    160  OD2       47.2230   58.2450   26.4960 O.co2 153  ASP153     -0.2456
@<TRIPOS>BOND
     1    33    31    1
     2    68    69    1
     3    69    70    1
     4    69    72    1
     5    31    32    1
     6    31    28    1
     7    70    71    2
     8    73    72    1
     9    73    75    1
    10    37    36    2
    11    72    74    1
    12    28    29    1
    13    28    27    1
    14    36    35    1
    15    76    77    1
    16    25    24    2
    17    29    34   am
    18    29    30    2
    19    34    35    1
    20    27    24   am
    21    79    78    2
    22    24    23    1
    23    77    78    1
    24    77    80    1
    25    43    44    1
    26    35    38    1
    27    45    46    2
    28    45    44    1
    29    78    83   am
    30    22    23    1
    31    54    55    2
    32    54    53    1
    33    23    26    1
    34    44    47    1
    35    83    84    1
    36    38    39    1
    37    82    80    1
    38    88    89    1
    39    88    87    1
    40    80    81    1
    41    90    89   ar
    42    52    53    1
    43    56    53    1
    44    56    57    1
    45    84    87    1
    46    84    85    1
    47    47    48    1
    48    39    40    1
    49    58    57    1
    50    89    91   ar
    51    40    41    1
    52    57    59    1
    53    85    92   am
    54    85    86    2
    55    17    16    1
    56    17    18    2
    57    92    93    1
    58    48    49    1
    59    16    15    1
    60    16    19    1
    61    50    49   ar
    62    96    93    1
    63    96    97    1
    64    49    51   ar
    65    93    94    1
    66    41    42    1
    67    63    62    2
    68    97    98   ar
    69    97    99   ar
    70    20    19    1
    71    19    21    1
    72     1     2    1
    73    98   100   ar
    74    62    61    1
    75    99   101   ar
    76    67    65    1
    77    65    66    1
    78    65    64    1
    79    94    95    2
    80    94   104   am
    81    12    11    2
    82     6     7    1
    83     6     5    1
    84     6     8    1
    85   100   102   ar
    86   101   102   ar
    87     5     2    1
    88     2     3    1
    89   102   103    1
    90    64    61    1
    91    61    60    1
    92   104   105    1
    93     9     3   am
    94     9    10    1
    95    11    10    1
    96   111   110    1
    97     3     4    2
    98    10    13    1
    99   105   106    1
   100   105   108    1
   101    14    13    1
   102   109   110    1
   103   109   108    1
   104   159   158   ar
   105   154   153    1
   106   154   155    1
   107   154   157    1
   108   153   150   am
   109   155   156    2
   110   106   107    2
   111   152   149    1
   112   146   145    1
   113   149   150    1
   114   149   148    1
   115   150   151    2
   116   158   157    1
   117   158   160   ar
   118   145   144    1
   119   145   147    1
   120   144   141    1
   121   112   113    1
   122   141   142    1
   123   141   140    1
   124   113   114    1
   125   142   143    2
   126   115   114    2
   127   114   116   am
   128   134   133    2
   129   116   117    1
   130   129   128   ar
   131   133   132    1
   132   130   128   ar
   133   120   117    1
   134   120   121    1
   135   117   118    1
   136   128   127    1
   137   135   132    1
   138   135   136    1
   139   132   131    1
   140   118   119    2
   141   127   126    1
   142   136   137    1
   143   126   123    1
   144   137   139   am
   145   137   138    2
   146   122   123    1
   147   123   124    1
   148   124   125    2
