@<TRIPOS>MOLECULE
tmp/5j7bA00.pdb
 161 148 0 0 0
SMALL
GASTEIGER

@<TRIPOS>ATOM
      1  N        -32.7600   40.3450   -5.4300 N.3    20  LEU20      -0.1231
      2  CA       -34.0530   41.0280   -5.3610 C.3    20  LEU20       0.1693
      3  C        -34.0130   42.1600   -4.3400 C.2    20  LEU20       0.2592
      4  O        -34.2520   43.3160   -4.6890 O.2    20  LEU20      -0.2718
      5  CB       -35.2140   40.0640   -5.0570 C.3    20  LEU20       0.0284
      6  CG       -35.7510   39.1370   -6.1500 C.3    20  LEU20       0.0019
      7  CD1      -36.8510   38.2660   -5.5620 C.3    20  LEU20       0.0001
      8  CD2      -36.2680   39.9270   -7.3470 C.3    20  LEU20       0.0001
      9  N        -33.7130   41.8150   -3.0870 N.am   21  SER21      -0.1952
     10  CA       -33.6380   42.7870   -2.0040 C.3    21  SER21       0.1924
     11  C        -32.8410   42.2290   -0.8250 C.2    21  SER21       0.2314
     12  O        -32.5280   41.0320   -0.7810 O.2    21  SER21      -0.2863
     13  CB       -35.0420   43.2120   -1.5350 C.3    21  SER21       0.2116
     14  OG       -35.6850   42.1780   -0.8040 O.3    21  SER21      -0.2180
     15  N        -32.6820   38.3940   -0.4060 N.3    28  VAL28      -0.1245
     16  CA       -33.6170   37.5820   -1.1580 C.3    28  VAL28       0.1561
     17  C        -33.2760   37.6940   -2.6230 C.2    28  VAL28       0.2260
     18  O        -33.1170   38.8000   -3.1570 O.2    28  VAL28      -0.2867
     19  CB       -35.0990   38.0130   -0.9200 C.3    28  VAL28       0.0252
     20  CG1      -36.0530   37.2600   -1.8490 C.3    28  VAL28       0.0019
     21  CG2      -35.5060   37.8100    0.5420 C.3    28  VAL28       0.0019
     22  N        -37.5710   31.4710   -4.8900 N.3    41  ALA41      -0.1245
     23  CA       -36.9860   32.5970   -4.1840 C.3    41  ALA41       0.1562
     24  C        -36.0340   31.9920   -3.1820 C.2    41  ALA41       0.2260
     25  O        -36.3230   30.9310   -2.6080 O.2    41  ALA41      -0.2867
     26  CB       -38.0460   33.4310   -3.4830 C.3    41  ALA41       0.0290
     27  N        -33.4320   32.9080    0.1900 N.3    43  LYS43      -0.1245
     28  CA       -33.0920   33.8650    1.2470 C.3    43  LYS43       0.1561
     29  C        -31.7970   33.4630    1.9600 C.2    43  LYS43       0.2260
     30  O        -31.7100   32.3810    2.5420 O.2    43  LYS43      -0.2867
     31  CB       -34.2370   33.9910    2.2550 C.3    43  LYS43       0.0271
     32  CG       -34.1610   35.2140    3.1530 C.3    43  LYS43       0.0035
     33  CD       -35.3070   35.1960    4.1450 C.3    43  LYS43       0.0206
     34  CE       -35.6440   36.5890    4.6570 C.3    43  LYS43       0.1093
     35  NZ       -36.7790   36.5370    5.6230 N.3    43  LYS43      -0.1314
     36  N        -36.3960   29.8840   11.1480 N.3    57  GLU57      -0.1245
     37  CA       -37.3010   30.4650   10.1500 C.3    57  GLU57       0.1567
     38  C        -37.8330   29.3870    9.2010 C.2    57  GLU57       0.2260
     39  O        -39.0420   29.3010    8.9750 O.2    57  GLU57      -0.2867
     40  CB       -36.6290   31.5870    9.3540 C.3    57  GLU57       0.0388
     41  CG       -37.5190   32.1760    8.2650 C.3    57  GLU57       0.1160
     42  CD       -36.9900   33.4760    7.6810 C.2    57  GLU57       0.3649
     43  OE1      -35.9600   33.9850    8.1780 O.co2  57  GLU57      -0.2457
     44  OE2      -37.6180   34.0060    6.7340 O.co2  57  GLU57      -0.2457
     45  N        -41.8030   28.2210    8.6020 N.3    61  LEU61      -0.1245
     46  CA       -42.5050   28.1710    7.3210 C.3    61  LEU61       0.1561
     47  C        -43.0110   26.7510    7.0270 C.2    61  LEU61       0.2260
     48  O        -44.1140   26.5710    6.5040 O.2    61  LEU61      -0.2867
     49  CB       -41.6140   28.6680    6.1810 C.3    61  LEU61       0.0270
     50  CG       -41.3090   30.1660    6.1010 C.3    61  LEU61       0.0019
     51  CD1      -40.1620   30.3800    5.1220 C.3    61  LEU61       0.0001
     52  CD2      -42.5410   30.9900    5.6950 C.3    61  LEU61       0.0001
     53  N        -46.6210   31.8890    2.8810 N.3    70  LEU70      -0.1245
     54  CA       -45.5970   31.6220    1.8440 C.3    70  LEU70       0.1561
     55  C        -45.1590   30.1540    1.8850 C.2    70  LEU70       0.2260
     56  O        -44.6710   29.6860    2.9110 O.2    70  LEU70      -0.2867
     57  CB       -44.3690   32.5070    2.0310 C.3    70  LEU70       0.0270
     58  CG       -43.1810   32.3560    1.0680 C.3    70  LEU70       0.0019
     59  CD1      -43.5420   32.7520   -0.3620 C.3    70  LEU70       0.0001
     60  CD2      -42.0100   33.2050    1.5620 C.3    70  LEU70       0.0001
     61  N        -32.8130   29.5030    2.3860 N.3    84  ILE84      -0.1245
     62  CA       -34.1830   28.9920    2.3920 C.3    84  ILE84       0.1561
     63  C        -34.7390   29.1730    0.9900 C.2    84  ILE84       0.2260
     64  O        -34.4510   30.1870    0.3260 O.2    84  ILE84      -0.2867
     65  CB       -35.0640   29.7310    3.4240 C.3    84  ILE84       0.0252
     66  CG1      -34.4610   29.5800    4.8260 C.3    84  ILE84       0.0019
     67  CG2      -36.4990   29.2110    3.3890 C.3    84  ILE84       0.0019
     68  CD1      -35.1530   30.3800    5.9060 C.3    84  ILE84       0.0001
     69  N        -38.3240   29.0420   -1.3460 N.3    86  THR86      -0.1203
     70  CA       -39.7680   29.1240   -1.3340 C.3    86  THR86       0.1994
     71  C        -40.2550   29.4330   -2.7370 C.2    86  THR86       0.2618
     72  O        -39.4560   29.7240   -3.6430 O.2    86  THR86      -0.2717
     73  CB       -40.2440   30.2840   -0.4310 C.3    86  THR86       0.1784
     74  OG1      -39.8610   31.5340   -1.0180 O.3    86  THR86      -0.2211
     75  CG2      -39.6530   30.1790    0.9710 C.3    86  THR86       0.0376
     76  N        -41.5690   29.3780   -2.9230 N.am   87  GLU87      -0.1965
     77  CA       -42.1310   29.7560   -4.2050 C.3    87  GLU87       0.1733
     78  C        -41.7850   31.2040   -4.4630 C.2    87  GLU87       0.2616
     79  O        -41.5060   31.9670   -3.5370 O.2    87  GLU87      -0.2715
     80  CB       -43.6430   29.5600   -4.2380 C.3    87  GLU87       0.0429
     81  CG       -44.0530   28.1040   -4.2170 C.3    87  GLU87       0.1163
     82  CD       -45.5460   27.9160   -4.1400 C.2    87  GLU87       0.3649
     83  OE1      -45.9730   26.7460   -4.1410 O.co2  87  GLU87      -0.2457
     84  OE2      -46.2910   28.9230   -4.0690 O.co2  87  GLU87      -0.2457
     85  N        -41.7700   31.5730   -5.7280 N.am   88  TYR88      -0.1960
     86  CA       -41.4870   32.9340   -6.0930 C.3    88  TYR88       0.1771
     87  C        -42.8180   33.6750   -6.2540 C.2    88  TYR88       0.2619
     88  O        -43.7150   33.2090   -6.9480 O.2    88  TYR88      -0.2715
     89  CB       -40.6460   32.9670   -7.3770 C.3    88  TYR88       0.0574
     90  CG       -40.5070   34.3440   -7.9750 C.ar   88  TYR88      -0.0198
     91  CD1      -39.7300   35.3280   -7.3490 C.ar   88  TYR88      -0.0009
     92  CD2      -41.1570   34.6720   -9.1630 C.ar   88  TYR88      -0.0009
     93  CE1      -39.6130   36.6010   -7.8880 C.ar   88  TYR88       0.0417
     94  CE2      -41.0470   35.9420   -9.7130 C.ar   88  TYR88       0.0417
     95  CZ       -40.2750   36.8970   -9.0690 C.ar   88  TYR88       0.1957
     96  OH       -40.1710   38.1500   -9.6070 O.3    88  TYR88      -0.2866
     97  N        -42.9450   34.8200   -5.5950 N.am   89  MET89      -0.1977
     98  CA       -44.1480   35.6410   -5.6900 C.3    89  MET89       0.1605
     99  C        -43.9780   36.7090   -6.7780 C.2    89  MET89       0.2287
    100  O        -43.2980   37.7030   -6.5650 O.2    89  MET89      -0.2864
    101  CB       -44.4660   36.2750   -4.3360 C.3    89  MET89       0.0413
    102  CG       -44.7660   35.3000   -3.2010 C.3    89  MET89       0.0598
    103  SD       -46.1670   34.1970   -3.5080 S.3    89  MET89      -0.1393
    104  CE       -45.3570   32.6700   -3.9650 C.3    89  MET89       0.0692
    105  N        -44.9740   40.8840   -6.1410 N.3    92  GLY92      -0.1210
    106  CA       -44.3780   41.6990   -5.1110 C.3    92  GLY92       0.1956
    107  C        -45.1070   41.6810   -3.7920 C.2    92  GLY92       0.2612
    108  O        -45.5430   40.6250   -3.3230 O.2    92  GLY92      -0.2717
    109  N        -45.2450   42.8720   -3.2110 N.am   93  SER93      -0.1952
    110  CA       -45.8290   43.0370   -1.8960 C.3    93  SER93       0.1924
    111  C        -47.0270   43.9680   -1.9450 C.2    93  SER93       0.2314
    112  O        -47.2030   44.7380   -2.8970 O.2    93  SER93      -0.2863
    113  CB       -44.7730   43.5820   -0.9240 C.3    93  SER93       0.2116
    114  OG       -44.3790   44.8930   -1.3110 O.3    93  SER93      -0.2180
    115  N        -46.1120   47.7610   -2.4490 N.3    96  GLU96      -0.1245
    116  CA       -45.9340   48.1910   -3.8350 C.3    96  GLU96       0.1567
    117  C        -47.2850   48.4270   -4.5000 C.2    96  GLU96       0.2260
    118  O        -47.5210   49.4800   -5.1030 O.2    96  GLU96      -0.2867
    119  CB       -45.1080   47.1590   -4.6190 C.3    96  GLU96       0.0388
    120  CG       -43.7550   46.8680   -3.9650 C.3    96  GLU96       0.1160
    121  CD       -42.9540   45.7580   -4.6410 C.2    96  GLU96       0.3649
    122  OE1      -41.7150   45.9000   -4.7290 O.co2  96  GLU96      -0.2457
    123  OE2      -43.5420   44.7440   -5.0870 O.co2  96  GLU96      -0.2457
    124  N        -45.0880   45.2890    3.7270 N.3   141  GLN141     -0.1231
    125  CA       -43.8900   44.8410    3.0090 C.3   141  GLN141      0.1698
    126  C        -43.7360   43.3260    2.9850 C.2   141  GLN141      0.2592
    127  O        -43.1280   42.8060    2.0590 O.2   141  GLN141     -0.2718
    128  CB       -42.5880   45.4820    3.5520 C.3   141  GLN141      0.0381
    129  CG       -42.4700   47.0000    3.4410 C.3   141  GLN141      0.0905
    130  CD       -43.2690   47.7640    4.5020 C.2   141  GLN141      0.2608
    131  OE1      -44.0160   47.1800    5.2980 O.2   141  GLN141     -0.2717
    132  NE2      -43.1130   49.0830    4.5130 N.am  141  GLN141     -0.0878
    133  N        -44.2490   42.6300    4.0010 N.am  142  ASN142     -0.1974
    134  CA       -44.1560   41.1680    4.0380 C.3   142  ASN142      0.1688
    135  C        -45.4620   40.4130    3.7300 C.2   142  ASN142      0.2292
    136  O        -45.5520   39.1970    3.9630 O.2   142  ASN142     -0.2864
    137  CB       -43.4990   40.6580    5.3290 C.3   142  ASN142      0.1181
    138  CG       -44.1770   41.1740    6.5810 C.2   142  ASN142      0.2629
    139  OD1      -45.3750   41.5110    6.5890 O.2   142  ASN142     -0.2716
    140  ND2      -43.4090   41.2380    7.6630 N.am  142  ASN142     -0.0877
    141  N        -47.1750   39.2010    0.7840 N.3   144  LEU144     -0.1245
    142  CA       -46.8120   39.0440   -0.6250 C.3   144  LEU144      0.1561
    143  C        -47.9870   38.6390   -1.5140 C.2   144  LEU144      0.2260
    144  O        -48.9890   38.1130   -1.0230 O.2   144  LEU144     -0.2867
    145  CB       -45.6340   38.0720   -0.7560 C.3   144  LEU144      0.0270
    146  CG       -44.3880   38.2810    0.1270 C.3   144  LEU144      0.0019
    147  CD1      -43.4660   37.0880   -0.0360 C.3   144  LEU144      0.0001
    148  CD2      -43.6580   39.5960   -0.1520 C.3   144  LEU144      0.0001
    149  N        -45.4040   36.2340    4.9040 N.3   154  ALA154     -0.1231
    150  CA       -44.0430   35.7970    5.1990 C.3   154  ALA154      0.1694
    151  C        -43.4500   36.5200    6.4130 C.2   154  ALA154      0.2592
    152  O        -44.0180   37.5010    6.8910 O.2   154  ALA154     -0.2718
    153  CB       -43.1670   36.0280    3.9710 C.3   154  ALA154      0.0304
    154  N        -42.3120   36.0150    6.8990 N.am  155  ASP155     -0.1974
    155  CA       -41.5030   36.6420    7.9660 C.3   155  ASP155      0.1709
    156  C        -42.1940   36.7740    9.3040 C.2   155  ASP155      0.2293
    157  O        -42.0670   37.7950    9.9660 O.2   155  ASP155     -0.2864
    158  CB       -41.0060   38.0230    7.5270 C.3   155  ASP155      0.1436
    159  CG       -40.1180   37.9690    6.2970 C.2   155  ASP155      0.3671
    160  OD1      -39.6930   36.8640    5.8880 O.co2 155  ASP155     -0.2456
    161  OD2      -39.8450   39.0510    5.7450 O.co2 155  ASP155     -0.2456
@<TRIPOS>BOND
     1    94    92   ar
     2    94    95   ar
     3    96    95    1
     4    92    90   ar
     5    95    93   ar
     6    90    89    1
     7    90    91   ar
     8    93    91   ar
     9    89    86    1
    10     8     6    1
    11    88    87    2
    12    99   100    2
    13    99    98    1
    14    87    86    1
    15    87    97   am
    16     6     7    1
    17     6     5    1
    18   105   106    1
    19    86    85    1
    20    85    78   am
    21    98    97    1
    22    98   101    1
    23     1     2    1
    24     2     5    1
    25     2     3    1
    26   106   107    1
    27   118   117    2
    28   123   121   ar
    29    22    23    1
    30   122   121   ar
    31     4     3    2
    32   121   120    1
    33   119   120    1
    34   119   116    1
    35   117   116    1
    36    78    77    1
    37    78    79    2
    38     3     9   am
    39   101   102    1
    40    80    81    1
    41    80    77    1
    42    81    82    1
    43    77    76    1
    44    23    26    1
    45    23    24    1
    46    83    82   ar
    47    82    84   ar
    48   104   103    1
    49   116   115    1
    50   107   108    2
    51   107   109   am
    52    72    71    2
    53   103   102    1
    54   109   110    1
    55    24    25    2
    56    18    17    2
    57     9    10    1
    58    76    71   am
    59   112   111    2
    60    71    70    1
    61    17    16    1
    62    10    13    1
    63    10    11    1
    64   111   110    1
    65   110   113    1
    66    20    19    1
    67    13    14    1
    68   143   144    2
    69   143   142    1
    70    69    70    1
    71    70    73    1
    72   114   113    1
    73    16    19    1
    74    16    15    1
    75    74    73    1
    76    19    21    1
    77    11    12    2
    78   145   142    1
    79   145   146    1
    80   142   141    1
    81    73    75    1
    82    59    58    1
    83   148   146    1
    84   147   146    1
    85    27    28    1
    86    64    63    2
    87    63    62    1
    88    58    60    1
    89    58    57    1
    90    28    29    1
    91    28    31    1
    92    54    55    1
    93    54    57    1
    94    54    53    1
    95    55    56    2
    96    29    30    2
    97   127   126    2
    98    31    32    1
    99    61    62    1
   100    62    65    1
   101   126   125    1
   102   126   133   am
   103   125   128    1
   104   125   124    1
   105    32    33    1
   106    67    65    1
   107    65    66    1
   108   129   128    1
   109   129   130    1
   110   135   136    2
   111   135   134    1
   112   153   150    1
   113   133   134    1
   114   134   137    1
   115    33    34    1
   116   130   132   am
   117   130   131    2
   118    34    35    1
   119    66    68    1
   120   149   150    1
   121    51    50    1
   122   150   151    1
   123   137   138    1
   124    52    50    1
   125   161   159   ar
   126   160   159   ar
   127    50    49    1
   128    49    46    1
   129   159   158    1
   130   151   152    2
   131   151   154   am
   132    48    47    2
   133   138   139    2
   134   138   140   am
   135    44    42   ar
   136   154   155    1
   137    47    46    1
   138    46    45    1
   139   158   155    1
   140    42    43   ar
   141    42    41    1
   142   155   156    1
   143    41    40    1
   144    39    38    2
   145    38    37    1
   146   156   157    2
   147    40    37    1
   148    37    36    1
