@<TRIPOS>MOLECULE
tmp/5j7fB00.pdb
 173 167 0 0 0
SMALL
GASTEIGER

@<TRIPOS>ATOM
      1  N         59.5690  -21.6910   49.3470 N.3     3  VAL3       -0.1231
      2  CA        59.4330  -22.3170   47.9930 C.3     3  VAL3        0.1692
      3  C         59.2350  -21.3450   46.8540 C.2     3  VAL3        0.2593
      4  O         58.3180  -20.5220   46.8830 O.2     3  VAL3       -0.2718
      5  CB        58.1830  -23.1850   47.7570 C.3     3  VAL3        0.0266
      6  CG1       58.6200  -24.5530   47.2450 C.3     3  VAL3        0.0020
      7  CG2       57.2900  -23.2040   48.9580 C.3     3  VAL3        0.0020
      8  N         60.0070  -21.5600   45.7950 N.am    4  THR4       -0.1939
      9  CA        59.9050  -20.7550   44.6010 C.3     4  THR4        0.2028
     10  C         59.2480  -21.5450   43.4350 C.2     4  THR4        0.2642
     11  O         58.8660  -22.7540   43.5680 O.2     4  THR4       -0.2714
     12  CB        61.2880  -20.1640   44.2090 C.3     4  THR4        0.1808
     13  OG1       62.0860  -21.1880   43.6090 O.3     4  THR4       -0.2208
     14  CG2       62.0230  -19.5650   45.4400 C.3     4  THR4        0.0379
     15  N         59.1020  -20.8200   42.3170 N.am    5  THR5       -0.1950
     16  CA        58.4260  -21.2830   41.0970 C.3     5  THR5        0.1897
     17  C         58.7750  -20.4570   39.8300 C.2     5  THR5        0.2313
     18  O         58.6340  -19.2270   39.8250 O.2     5  THR5       -0.2863
     19  CB        56.8810  -21.3210   41.2620 C.3     5  THR5        0.1794
     20  OG1       56.2640  -20.8760   40.0520 O.3     5  THR5       -0.2208
     21  CG2       56.3320  -20.4790   42.4350 C.3     5  THR5        0.0378
     22  N         53.7740  -19.9760   50.9370 N.3    43  LEU43      -0.1231
     23  CA        53.6400  -21.1610   50.1190 C.3    43  LEU43       0.1693
     24  C         54.3320  -22.3650   50.7590 C.2    43  LEU43       0.2592
     25  O         53.8140  -23.4960   50.6710 O.2    43  LEU43      -0.2718
     26  CB        54.1720  -20.9450   48.6890 C.3    43  LEU43       0.0284
     27  CG        53.2690  -20.3650   47.6000 C.3    43  LEU43       0.0019
     28  CD1       52.0720  -21.2300   47.2760 C.3    43  LEU43       0.0001
     29  CD2       52.7680  -18.9950   47.9960 C.3    43  LEU43       0.0001
     30  N         55.4890  -22.1520   51.3860 N.am   44  PHE44      -0.1976
     31  CA        56.1600  -23.2020   52.1180 C.3    44  PHE44       0.1639
     32  C         55.2920  -23.8250   53.1850 C.2    44  PHE44       0.2290
     33  O         55.1120  -25.0620   53.2150 O.2    44  PHE44      -0.2864
     34  CB        57.4520  -22.7140   52.7680 C.3    44  PHE44       0.0560
     35  CG        57.9940  -23.6810   53.7640 C.ar   44  PHE44      -0.0200
     36  CD1       58.6450  -24.8210   53.3260 C.ar   44  PHE44      -0.0042
     37  CD2       57.8340  -23.4760   55.1350 C.ar   44  PHE44      -0.0042
     38  CE1       59.1620  -25.7480   54.2360 C.ar   44  PHE44      -0.0003
     39  CE2       58.3460  -24.3960   56.0540 C.ar   44  PHE44      -0.0003
     40  CZ        59.0170  -25.5360   55.6060 C.ar   44  PHE44      -0.0000
     41  N         51.8980  -23.5170   53.5410 N.3    46  LEU46      -0.1231
     42  CA        50.7450  -24.2190   52.9540 C.3    46  LEU46       0.1693
     43  C         51.1680  -25.6060   52.4550 C.2    46  LEU46       0.2592
     44  O         50.4090  -26.5690   52.5840 O.2    46  LEU46      -0.2718
     45  CB        50.1450  -23.4260   51.8150 C.3    46  LEU46       0.0284
     46  CG        49.4580  -22.1440   52.3290 C.3    46  LEU46       0.0019
     47  CD1       49.0980  -21.2190   51.1900 C.3    46  LEU46       0.0001
     48  CD2       48.2240  -22.5110   53.1640 C.3    46  LEU46       0.0001
     49  N         52.3640  -25.7080   51.8980 N.am   47  GLY47      -0.1957
     50  CA        52.9110  -27.0170   51.4990 C.3    47  GLY47       0.1869
     51  C         52.9320  -28.0110   52.6350 C.2    47  GLY47       0.2309
     52  O         52.4170  -29.1540   52.5020 O.2    47  GLY47      -0.2863
     53  N         49.2190  -29.0030   53.7170 N.3    50  ILE50      -0.1231
     54  CA        48.6360  -29.9240   52.7570 C.3    50  ILE50       0.1692
     55  C         49.1840  -31.3630   52.8380 C.2    50  ILE50       0.2591
     56  O         48.4540  -32.3740   52.6890 O.2    50  ILE50      -0.2718
     57  CB        48.8710  -29.3400   51.3480 C.3    50  ILE50       0.0266
     58  CG1       47.9400  -28.1450   51.1380 C.3    50  ILE50       0.0019
     59  CG2       48.5660  -30.3420   50.2540 C.3    50  ILE50       0.0020
     60  CD1       48.2400  -27.3310   49.8870 C.3    50  ILE50       0.0001
     61  N         50.4750  -31.4170   53.0820 N.am   51  MET51      -0.1979
     62  CA        51.2140  -32.6610   53.1470 C.3    51  MET51       0.1605
     63  C         50.8610  -33.3750   54.4340 C.2    51  MET51       0.2287
     64  O         50.5090  -34.5880   54.4430 O.2    51  MET51      -0.2864
     65  CB        52.7080  -32.3260   53.1460 C.3    51  MET51       0.0413
     66  CG        53.6300  -33.4770   53.4510 C.3    51  MET51       0.0598
     67  SD        53.3840  -34.5240   52.0560 S.3    51  MET51      -0.1393
     68  CE        54.9040  -35.5100   52.2230 C.3    51  MET51       0.0692
     69  N         46.1600  -33.8800   49.5080 N.3    56  TYR56      -0.1241
     70  CA        46.3610  -34.2400   48.1020 C.3    56  TYR56       0.1605
     71  C         45.6860  -35.5610   47.8080 C.2    56  TYR56       0.2264
     72  O         45.4600  -36.3430   48.7140 O.2    56  TYR56      -0.2867
     73  CB        47.8530  -34.3350   47.7410 C.3    56  TYR56       0.0534
     74  CG        48.5770  -35.3140   48.5260 C.ar   56  TYR56      -0.0201
     75  CD1       48.6720  -36.6280   48.0950 C.ar   56  TYR56      -0.0009
     76  CD2       49.1100  -34.9900   49.7560 C.ar   56  TYR56      -0.0009
     77  CE1       49.3030  -37.5740   48.8470 C.ar   56  TYR56       0.0417
     78  CE2       49.7960  -35.9510   50.5040 C.ar   56  TYR56       0.0417
     79  CZ        49.8270  -37.2580   50.0540 C.ar   56  TYR56       0.1957
     80  OH        50.5010  -38.2210   50.7600 O.3    56  TYR56      -0.2866
     81  N         48.3110  -36.9760   42.6460 N.3    61  GLN61      -0.1231
     82  CA        48.9170  -36.2860   43.7640 C.3    61  GLN61       0.1698
     83  C         49.1600  -34.7710   43.5980 C.2    61  GLN61       0.2592
     84  O         49.4260  -34.1040   44.5920 O.2    61  GLN61      -0.2718
     85  CB        50.1920  -36.9940   44.1460 C.3    61  GLN61       0.0381
     86  CG        49.8280  -38.3730   44.6630 C.3    61  GLN61       0.0905
     87  CD        51.0310  -39.1910   44.9770 C.2    61  GLN61       0.2608
     88  OE1       52.1850  -38.7800   44.7320 O.2    61  GLN61      -0.2717
     89  NE2       50.7820  -40.3690   45.5270 N.am   61  GLN61      -0.0878
     90  N         49.0150  -34.2480   42.3770 N.am   62  HIS62      -0.1976
     91  CA        49.0000  -32.8030   42.1320 C.3    62  HIS62       0.1656
     92  C         47.6090  -32.1940   42.2750 C.2    62  HIS62       0.2291
     93  O         47.4350  -30.9640   42.0390 O.2    62  HIS62      -0.2864
     94  CB        49.5110  -32.4920   40.7180 C.3    62  HIS62       0.0771
     95  CG        48.5790  -32.9370   39.6440 C.ar   62  HIS62       0.0820
     96  ND1       48.6740  -34.1820   39.0590 N.ar   62  HIS62      -0.2267
     97  CD2       47.4730  -32.3600   39.1200 C.ar   62  HIS62       0.1154
     98  CE1       47.6930  -34.3430   38.1970 C.ar   62  HIS62       0.1986
     99  NE2       46.9520  -33.2510   38.2090 N.ar   62  HIS62      -0.2212
    100  N         44.8110  -31.0850   44.8650 N.3    64  VAL64      -0.1245
    101  CA        44.4860  -30.8340   46.2700 C.3    64  VAL64       0.1561
    102  C         42.9670  -30.7310   46.4270 C.2    64  VAL64       0.2260
    103  O         42.3280  -29.9080   45.7430 O.2    64  VAL64      -0.2867
    104  CB        45.1400  -29.5820   46.7980 C.3    64  VAL64       0.0252
    105  CG1       44.8060  -29.3790   48.2760 C.3    64  VAL64       0.0019
    106  CG2       46.6650  -29.6540   46.6290 C.3    64  VAL64       0.0019
    107  N         41.3440  -24.7420   54.7350 N.3    71  LEU71      -0.1245
    108  CA        41.9610  -24.2790   53.4980 C.3    71  LEU71       0.1561
    109  C         40.9580  -24.0240   52.4000 C.2    71  LEU71       0.2260
    110  O         41.1570  -23.0990   51.6000 O.2    71  LEU71      -0.2867
    111  CB        43.0530  -25.2190   52.9960 C.3    71  LEU71       0.0270
    112  CG        43.7920  -24.7460   51.7520 C.3    71  LEU71       0.0019
    113  CD1       44.5280  -23.4340   52.0410 C.3    71  LEU71       0.0001
    114  CD2       44.7790  -25.8210   51.2950 C.3    71  LEU71       0.0001
    115  N         40.4270  -20.4190   50.3770 N.3    75  PHE75      -0.1241
    116  CA        40.5970  -20.3850   48.9340 C.3    75  PHE75       0.1605
    117  C         39.3330  -20.2980   48.1680 C.2    75  PHE75       0.2264
    118  O         39.3600  -19.9360   46.9980 O.2    75  PHE75      -0.2867
    119  CB        41.3590  -21.6150   48.4720 C.3    75  PHE75       0.0534
    120  CG        42.8510  -21.4760   48.5740 C.ar   75  PHE75      -0.0203
    121  CD1       43.4400  -20.4900   49.3740 C.ar   75  PHE75      -0.0042
    122  CD2       43.6810  -22.3180   47.8600 C.ar   75  PHE75      -0.0042
    123  CE1       44.8160  -20.3620   49.4410 C.ar   75  PHE75      -0.0003
    124  CE2       45.0370  -22.1770   47.9160 C.ar   75  PHE75      -0.0003
    125  CZ        45.6230  -21.2120   48.7000 C.ar   75  PHE75      -0.0000
    126  N         41.9540  -27.7980   43.7410 N.3    80  PHE80      -0.1241
    127  CA        42.7970  -27.1050   42.7330 C.3    80  PHE80       0.1605
    128  C         44.0530  -27.9070   42.3880 C.2    80  PHE80       0.2264
    129  O         44.4070  -28.8170   43.1200 O.2    80  PHE80      -0.2867
    130  CB        43.2410  -25.7260   43.2380 C.3    80  PHE80       0.0534
    131  CG        44.0230  -25.7570   44.5240 C.ar   80  PHE80      -0.0203
    132  CD1       43.3740  -25.7170   45.7480 C.ar   80  PHE80      -0.0042
    133  CD2       45.4310  -25.7530   44.5120 C.ar   80  PHE80      -0.0042
    134  CE1       44.1020  -25.7270   46.9290 C.ar   80  PHE80      -0.0003
    135  CE2       46.1530  -25.8040   45.6950 C.ar   80  PHE80      -0.0003
    136  CZ        45.4850  -25.7490   46.9090 C.ar   80  PHE80      -0.0000
    137  N         48.1120  -28.2180   41.8310 N.3    82  VAL82      -0.1245
    138  CA        49.2970  -27.5430   42.2820 C.3    82  VAL82       0.1561
    139  C         50.1310  -27.0610   41.1210 C.2    82  VAL82       0.2260
    140  O         51.1100  -26.3130   41.3130 O.2    82  VAL82      -0.2867
    141  CB        50.1560  -28.4060   43.2080 C.3    82  VAL82       0.0252
    142  CG1       49.3400  -28.8660   44.3950 C.3    82  VAL82       0.0019
    143  CG2       50.8400  -29.5760   42.4650 C.3    82  VAL82       0.0019
    144  N         50.1570  -22.1690   39.2040 N.3    85  HIS85      -0.1241
    145  CA        50.7270  -21.3860   40.2450 C.3    85  HIS85       0.1621
    146  C         50.0890  -20.0110   40.3650 C.2    85  HIS85       0.2264
    147  O         49.8880  -19.5240   41.4600 O.2    85  HIS85      -0.2867
    148  CB        52.2170  -21.2210   40.0290 C.3    85  HIS85       0.0745
    149  CG        52.9870  -22.4620   40.2780 C.ar   85  HIS85       0.0817
    150  ND1       54.3470  -22.4530   40.4440 N.ar   85  HIS85      -0.2268
    151  CD2       52.5940  -23.7540   40.4030 C.ar   85  HIS85       0.1154
    152  CE1       54.7840  -23.6960   40.6010 C.ar   85  HIS85       0.1986
    153  NE2       53.7340  -24.5000   40.5980 N.ar   85  HIS85      -0.2212
    154  N         46.9040  -20.0810   42.3700 N.3    88  ILE88      -0.1231
    155  CA        47.1900  -20.1780   43.7950 C.3    88  ILE88       0.1692
    156  C         47.6610  -18.8120   44.3740 C.2    88  ILE88       0.2592
    157  O         47.2180  -18.3850   45.4390 O.2    88  ILE88      -0.2718
    158  CB        48.2460  -21.2990   44.0400 C.3    88  ILE88       0.0266
    159  CG1       47.5900  -22.6750   43.8130 C.3    88  ILE88       0.0019
    160  CG2       48.7830  -21.2350   45.4540 C.3    88  ILE88       0.0020
    161  CD1       48.5950  -23.7590   43.4830 C.3    88  ILE88       0.0001
    162  N         48.5860  -18.1560   43.7040 N.am   89  TYR89      -0.1976
    163  CA        48.9940  -16.7930   44.1530 C.3    89  TYR89       0.1639
    164  C         47.7400  -15.8940   44.2910 C.2    89  TYR89       0.2290
    165  O         47.4650  -15.3450   45.3450 O.2    89  TYR89      -0.2864
    166  CB        50.0380  -16.2020   43.2150 C.3    89  TYR89       0.0560
    167  CG        51.4530  -16.3650   43.7390 C.ar   89  TYR89      -0.0198
    168  CD1       52.0320  -17.6150   43.7830 C.ar   89  TYR89      -0.0009
    169  CD2       52.1820  -15.2960   44.2220 C.ar   89  TYR89      -0.0009
    170  CE1       53.2720  -17.7970   44.2710 C.ar   89  TYR89       0.0417
    171  CE2       53.4630  -15.4700   44.7150 C.ar   89  TYR89       0.0417
    172  CZ        53.9980  -16.7470   44.7370 C.ar   89  TYR89       0.1957
    173  OH        55.2480  -17.0470   45.2580 O.3    89  TYR89      -0.2866
@<TRIPOS>BOND
     1    98    99   ar
     2    98    96   ar
     3    99    97   ar
     4    96    95   ar
     5    97    95   ar
     6   144   145    1
     7    95    94    1
     8    18    17    2
     9    17    16    1
    10   148   145    1
    11   148   149    1
    12    20    19    1
    13   145   146    1
    14   149   151   ar
    15   149   150   ar
    16   146   147    2
    17   151   153   ar
    18   150   152   ar
    19   153   152   ar
    20    94    91    1
    21    16    19    1
    22    16    15    1
    23   139   140    2
    24   139   138    1
    25    19    21    1
    26   137   138    1
    27    93    92    2
    28    91    92    1
    29    91    90    1
    30   138   141    1
    31    15    10   am
    32   154   155    1
    33    90    83   am
    34   128   127    1
    35   128   129    2
    36   143   141    1
    37    81    82    1
    38   127   130    1
    39   127   126    1
    40   141   142    1
    41   166   167    1
    42   166   163    1
    43   130   131    1
    44    10    11    2
    45    10     9    1
    46   161   159    1
    47    83    82    1
    48    83    84    2
    49    13    12    1
    50   162   163    1
    51   162   156   am
    52   167   168   ar
    53   167   169   ar
    54    82    85    1
    55   168   170   ar
    56   155   158    1
    57   155   156    1
    58   159   158    1
    59   158   160    1
    60    85    86    1
    61   163   164    1
    62    12     9    1
    63    12    14    1
    64   169   171   ar
    65   170   172   ar
    66   164   165    2
    67   156   157    2
    68   133   131   ar
    69   133   135   ar
    70   131   132   ar
    71     9     8    1
    72    86    87    1
    73   171   172   ar
    74    88    87    2
    75   172   173    1
    76   100   101    1
    77    87    89   am
    78   135   136   ar
    79   103   102    2
    80   132   134   ar
    81     8     3   am
    82   101   102    1
    83   101   104    1
    84   106   104    1
    85   104   105    1
    86     3     4    2
    87     3     2    1
    88   136   134   ar
    89   118   117    2
    90     6     5    1
    91    28    27    1
    92    27    29    1
    93    27    26    1
    94    73    70    1
    95    73    74    1
    96     5     2    1
    97     5     7    1
    98    71    70    1
    99    71    72    2
   100   122   124   ar
   101   122   120   ar
   102   124   125   ar
   103     2     1    1
   104    75    74   ar
   105    75    77   ar
   106    70    69    1
   107   117   116    1
   108   119   120    1
   109   119   116    1
   110    74    76   ar
   111   120   121   ar
   112    26    23    1
   113   125   123   ar
   114    77    79   ar
   115   116   115    1
   116   121   123   ar
   117    76    78   ar
   118    60    58    1
   119    79    78   ar
   120    79    80    1
   121    23    24    1
   122    23    22    1
   123    59    57    1
   124    25    24    2
   125    24    30   am
   126    58    57    1
   127    47    46    1
   128   114   112    1
   129    57    54    1
   130    30    31    1
   131    50    49    1
   132    50    51    1
   133   110   109    2
   134   112   113    1
   135   112   111    1
   136    45    46    1
   137    45    42    1
   138    49    43   am
   139    67    68    1
   140    67    66    1
   141    31    34    1
   142    31    32    1
   143    46    48    1
   144   109   108    1
   145    43    44    2
   146    43    42    1
   147    52    51    2
   148    56    55    2
   149    54    55    1
   150    54    53    1
   151    34    35    1
   152    55    61   am
   153    42    41    1
   154   111   108    1
   155    61    62    1
   156    65    62    1
   157    65    66    1
   158    62    63    1
   159    32    33    2
   160    36    35   ar
   161    36    38   ar
   162   108   107    1
   163    35    37   ar
   164    38    40   ar
   165    63    64    2
   166    37    39   ar
   167    40    39   ar
