@<TRIPOS>MOLECULE
tmp/5j7iB00.pdb
 110 104 0 0 0
SMALL
GASTEIGER

@<TRIPOS>ATOM
      1  N         19.4020  -35.1520   -4.0420 N.3    65  PHE65      -0.1241
      2  CA        17.9430  -35.1580   -4.0580 C.3    65  PHE65       0.1605
      3  C         17.4630  -36.6040   -3.9950 C.2    65  PHE65       0.2264
      4  O         18.0370  -37.4820   -4.6370 O.2    65  PHE65      -0.2867
      5  CB        17.4170  -34.4940   -5.3390 C.3    65  PHE65       0.0534
      6  CG        18.0290  -33.1450   -5.6290 C.ar   65  PHE65      -0.0203
      7  CD1       18.4240  -32.3010   -4.6020 C.ar   65  PHE65      -0.0042
      8  CD2       18.2290  -32.7320   -6.9390 C.ar   65  PHE65      -0.0042
      9  CE1       18.9930  -31.0700   -4.8770 C.ar   65  PHE65      -0.0003
     10  CE2       18.7970  -31.5000   -7.2180 C.ar   65  PHE65      -0.0003
     11  CZ        19.1790  -30.6710   -6.1880 C.ar   65  PHE65      -0.0000
     12  N         17.8520  -31.5990  -12.9650 N.3   119  SER119     -0.1202
     13  CA        18.6140  -32.2020  -11.8650 C.3   119  SER119      0.2020
     14  C         17.7880  -33.1690  -11.0020 C.2   119  SER119      0.2619
     15  O         18.3480  -34.0060  -10.2910 O.2   119  SER119     -0.2717
     16  CB        19.2220  -31.1050  -10.9800 C.3   119  SER119      0.2103
     17  OG        18.2290  -30.3400  -10.3210 O.3   119  SER119     -0.2182
     18  N         16.4660  -33.0380  -11.0440 N.am  120  THR120     -0.1952
     19  CA        15.5800  -33.8490  -10.2080 C.3   120  THR120      0.1897
     20  C         15.3320  -35.2460  -10.7720 C.2   120  THR120      0.2313
     21  O         15.2200  -36.2250  -10.0310 O.2   120  THR120     -0.2863
     22  CB        14.2190  -33.1630  -10.0310 C.3   120  THR120      0.1794
     23  OG1       13.7300  -32.7380  -11.3100 O.3   120  THR120     -0.2208
     24  CG2       14.3450  -31.9610   -9.1220 C.3   120  THR120      0.0378
     25  N         21.8370  -30.9130  -16.5300 N.3   145  HIS145     -0.1227
     26  CA        21.9450  -29.9190  -15.4870 C.3   145  HIS145      0.1737
     27  C         23.3430  -30.0190  -14.8770 C.2   145  HIS145      0.2438
     28  O         23.8760  -31.1220  -14.7300 O.2   145  HIS145     -0.2733
     29  CB        20.8600  -30.1490  -14.4420 C.3   145  HIS145      0.0758
     30  CG        20.6340  -28.9830  -13.5400 C.ar  145  HIS145      0.0818
     31  ND1       21.5480  -28.5870  -12.5880 N.ar  145  HIS145     -0.2268
     32  CD2       19.5940  -28.1220  -13.4480 C.ar  145  HIS145      0.1154
     33  CE1       21.0780  -27.5330  -11.9450 C.ar  145  HIS145      0.1986
     34  NE2       19.8940  -27.2300  -12.4480 N.ar  145  HIS145     -0.2212
     35  N         23.9610  -28.8720  -14.5520 N.am  146  PRO146     -0.2718
     36  CA        25.3370  -28.9210  -14.0330 C.3   146  PRO146      0.1535
     37  C         25.5200  -29.6480  -12.6910 C.2   146  PRO146      0.2599
     38  O         26.5700  -30.2480  -12.4510 O.2   146  PRO146     -0.2715
     39  CB        25.7060  -27.4400  -13.8840 C.3   146  PRO146      0.0310
     40  CG        24.4440  -26.6590  -14.0990 C.3   146  PRO146      0.0237
     41  CD        23.5230  -27.5040  -14.8710 C.3   146  PRO146      0.0939
     42  N         24.5070  -29.5910  -11.8360 N.am  147  SER147     -0.1950
     43  CA        24.4930  -30.3340  -10.5810 C.3   147  SER147      0.1924
     44  C         24.4560  -31.8440  -10.8000 C.2   147  SER147      0.2314
     45  O         24.7410  -32.6180   -9.8870 O.2   147  SER147     -0.2863
     46  CB        23.2990  -29.9090   -9.7310 C.3   147  SER147      0.2116
     47  OG        23.3160  -28.5140   -9.4930 O.3   147  SER147     -0.2180
     48  N         25.7980  -22.2650  -20.1730 N.3   181  MET181     -0.1245
     49  CA        24.8800  -21.4800  -20.9870 C.3   181  MET181      0.1570
     50  C         25.4250  -21.3960  -22.4000 C.2   181  MET181      0.2261
     51  O         24.6730  -21.4750  -23.3700 O.2   181  MET181     -0.2867
     52  CB        24.6300  -20.0950  -20.4060 C.3   181  MET181      0.0387
     53  CG        23.6620  -20.1400  -19.2320 C.3   181  MET181      0.0595
     54  SD        23.2240  -18.5380  -18.5430 S.3   181  MET181     -0.1393
     55  CE        22.8020  -17.6160  -20.0230 C.3   181  MET181      0.0692
     56  N         24.6690  -24.6580  -24.0560 N.3   184  THR184     -0.1218
     57  CA        23.2230  -24.7560  -24.2320 C.3   184  THR184      0.1862
     58  C         22.7910  -23.8800  -25.3940 C.2   184  THR184      0.2287
     59  O         22.0190  -24.2950  -26.2570 O.2   184  THR184     -0.2866
     60  CB        22.4650  -24.3400  -22.9530 C.3   184  THR184      0.1770
     61  OG1       22.8310  -25.2070  -21.8720 O.3   184  THR184     -0.2211
     62  CG2       20.9640  -24.4180  -23.1590 C.3   184  THR184      0.0375
     63  N         13.8880  -25.3790  -15.8780 N.3   201  GLY201     -0.1210
     64  CA        13.2360  -24.1900  -15.3560 C.3   201  GLY201      0.1940
     65  C         12.6560  -23.2500  -16.4100 C.2   201  GLY201      0.2454
     66  O         13.0100  -23.3330  -17.5860 O.2   201  GLY201     -0.2732
     67  N         11.7980  -22.3060  -15.9750 N.am  202  PRO202     -0.2717
     68  CA        11.0940  -21.3510  -16.8420 C.3   202  PRO202      0.1536
     69  C         11.9850  -20.4810  -17.7140 C.2   202  PRO202      0.2599
     70  O         11.5850  -20.1080  -18.8160 O.2   202  PRO202     -0.2715
     71  CB        10.3430  -20.4600  -15.8440 C.3   202  PRO202      0.0310
     72  CG        10.2020  -21.2620  -14.6390 C.3   202  PRO202      0.0237
     73  CD        11.4180  -22.1280  -14.5620 C.3   202  PRO202      0.0939
     74  N         13.1910  -20.1950  -17.2450 N.am  203  GLY203     -0.1941
     75  CA        14.0980  -19.3480  -17.9940 C.3   203  GLY203      0.2014
     76  C         14.6810  -20.1220  -19.1450 C.2   203  GLY203      0.2638
     77  O         14.9010  -19.5920  -20.2370 O.2   203  GLY203     -0.2714
     78  N         14.9460  -21.3920  -18.8860 N.am  204  LEU204     -0.1977
     79  CA        15.4800  -22.2590  -19.9070 C.3   204  LEU204      0.1596
     80  C         14.4750  -22.6020  -21.0010 C.2   204  LEU204      0.2287
     81  O         14.8250  -22.6550  -22.1760 O.2   204  LEU204     -0.2864
     82  CB        15.9720  -23.5410  -19.2430 C.3   204  LEU204      0.0297
     83  CG        16.9110  -24.4070  -20.0720 C.3   204  LEU204      0.0022
     84  CD1       17.9590  -25.0640  -19.1900 C.3   204  LEU204      0.0001
     85  CD2       16.0950  -25.4460  -20.8330 C.3   204  LEU204      0.0001
     86  N         13.8960  -19.5570  -23.2340 N.3   207  ALA207     -0.1245
     87  CA        15.0620  -19.4990  -24.1070 C.3   207  ALA207      0.1562
     88  C         14.9370  -20.4590  -25.2920 C.2   207  ALA207      0.2260
     89  O         15.3370  -20.1210  -26.4070 O.2   207  ALA207     -0.2867
     90  CB        16.3210  -19.8080  -23.3140 C.3   207  ALA207      0.0290
     91  N         12.5660  -20.4230   -4.3540 N.3   297  LEU297     -0.1245
     92  CA        12.7870  -21.6820   -3.6580 C.3   297  LEU297      0.1561
     93  C         14.2580  -21.9600   -3.3430 C.2   297  LEU297      0.2260
     94  O         15.1410  -21.8030   -4.1890 O.2   297  LEU297     -0.2867
     95  CB        12.1960  -22.8400   -4.4670 C.3   297  LEU297      0.0270
     96  CG        12.2180  -24.2090   -3.7780 C.3   297  LEU297      0.0019
     97  CD1       11.3860  -24.2020   -2.4950 C.3   297  LEU297      0.0001
     98  CD2       11.7070  -25.2870   -4.7150 C.3   297  LEU297      0.0001
     99  N         17.1470  -24.2050   -2.9870 N.3   299  ALA299     -0.1245
    100  CA        17.6020  -25.4820   -3.5400 C.3   299  ALA299      0.1562
    101  C         18.0040  -26.5330   -2.4930 C.2   299  ALA299      0.2260
    102  O         17.9350  -27.7310   -2.7580 O.2   299  ALA299     -0.2867
    103  CB        18.7700  -25.2280   -4.4820 C.3   299  ALA299      0.0290
    104  N         15.2020  -29.0260   -1.3620 N.3   302  VAL302     -0.1245
    105  CA        14.6410  -29.8080   -2.4550 C.3   302  VAL302      0.1561
    106  C         14.9580  -31.3020   -2.3460 C.2   302  VAL302      0.2260
    107  O         16.1250  -31.6890   -2.2730 O.2   302  VAL302     -0.2867
    108  CB        15.1690  -29.2860   -3.8080 C.3   302  VAL302      0.0252
    109  CG1       14.7240  -30.1750   -4.9510 C.3   302  VAL302      0.0019
    110  CG2       14.6830  -27.8750   -4.0550 C.3   302  VAL302      0.0019
@<TRIPOS>BOND
     1    89    88    2
     2    59    58    2
     3    58    57    1
     4    88    87    1
     5    57    56    1
     6    57    60    1
     7    87    90    1
     8    87    86    1
     9    51    50    2
    10    62    60    1
    11    60    61    1
    12    50    49    1
    13    81    80    2
    14    80    79    1
    15    49    52    1
    16    49    48    1
    17    85    83    1
    18    52    53    1
    19    77    76    2
    20    83    82    1
    21    83    84    1
    22    55    54    1
    23    79    82    1
    24    79    78    1
    25    53    54    1
    26    76    78   am
    27    76    75    1
    28    70    69    2
    29    75    74    1
    30    69    74   am
    31    69    68    1
    32    66    65    2
    33    68    67    1
    34    68    71    1
    35    25    26    1
    36    65    67   am
    37    65    64    1
    38    67    73    1
    39    63    64    1
    40    71    72    1
    41    26    27    1
    42    26    29    1
    43    27    28    2
    44    27    35   am
    45    41    35    1
    46    41    40    1
    47    72    73    1
    48    35    36    1
    49    29    30    1
    50    40    39    1
    51    36    39    1
    52    36    37    1
    53    30    32   ar
    54    30    31   ar
    55    32    34   ar
    56    12    13    1
    57    37    38    2
    58    37    42   am
    59    31    33   ar
    60    34    33   ar
    61    13    14    1
    62    13    16    1
    63    42    43    1
    64    23    22    1
    65    18    14   am
    66    18    19    1
    67    14    15    2
    68    16    17    1
    69    44    43    1
    70    44    45    2
    71    20    19    1
    72    20    21    2
    73    43    46    1
    74    19    22    1
    75    22    24    1
    76    46    47    1
    77    10     8   ar
    78    10    11   ar
    79     8     6   ar
    80    11     9   ar
    81     6     5    1
    82     6     7   ar
    83     5     2    1
    84   109   108    1
    85     9     7   ar
    86    98    96    1
    87     4     3    2
    88   103   100    1
    89    95    96    1
    90    95    92    1
    91    91    92    1
    92    94    93    2
    93     2     1    1
    94     2     3    1
    95   110   108    1
    96   108   105    1
    97    96    97    1
    98    92    93    1
    99   100    99    1
   100   100   101    1
   101   102   101    2
   102   105   106    1
   103   105   104    1
   104   106   107    2
