@<TRIPOS>MOLECULE
tmp/5j7iD00.pdb
 154 149 0 0 0
SMALL
GASTEIGER

@<TRIPOS>ATOM
      1  N         47.5830   -4.7880  -53.2570 N.3    65  PHE65      -0.1241
      2  CA        47.4660   -3.3290  -53.3190 C.3    65  PHE65       0.1605
      3  C         48.8310   -2.6850  -53.4900 C.2    65  PHE65       0.2264
      4  O         49.8140   -3.1300  -52.9020 O.2    65  PHE65      -0.2867
      5  CB        46.8460   -2.7610  -52.0400 C.3    65  PHE65       0.0534
      6  CG        45.4920   -3.2950  -51.7150 C.ar   65  PHE65      -0.0203
      7  CD1       44.6750   -3.8140  -52.6990 C.ar   65  PHE65      -0.0042
      8  CD2       45.0370   -3.2790  -50.4090 C.ar   65  PHE65      -0.0042
      9  CE1       43.4250   -4.2970  -52.3860 C.ar   65  PHE65      -0.0003
     10  CE2       43.7950   -3.7620  -50.0900 C.ar   65  PHE65      -0.0003
     11  CZ        42.9850   -4.2730  -51.0770 C.ar   65  PHE65      -0.0000
     12  N         43.0140   -1.8110  -34.2500 N.3   116  ILE116     -0.1231
     13  CA        42.4180   -2.3970  -35.4540 C.3   116  ILE116      0.1692
     14  C         43.1340   -1.8870  -36.7030 C.2   116  ILE116      0.2591
     15  O         43.2720   -0.6790  -36.8930 O.2   116  ILE116     -0.2718
     16  CB        40.9230   -2.0730  -35.5790 C.3   116  ILE116      0.0266
     17  CG1       40.2270   -2.2310  -34.2270 C.3   116  ILE116      0.0019
     18  CG2       40.2790   -2.9540  -36.6400 C.3   116  ILE116      0.0020
     19  CD1       40.3130   -3.6340  -33.6530 C.3   116  ILE116      0.0001
     20  N         43.5510   -2.8080  -37.5670 N.am  117  ILE117     -0.1980
     21  CA        44.4230   -2.4730  -38.6930 C.3   117  ILE117      0.1595
     22  C         43.7260   -2.6740  -40.0440 C.2   117  ILE117      0.2287
     23  O         43.1860   -3.7480  -40.3020 O.2   117  ILE117     -0.2864
     24  CB        45.7130   -3.3330  -38.6750 C.3   117  ILE117      0.0276
     25  CG1       46.4510   -3.1990  -37.3350 C.3   117  ILE117      0.0022
     26  CG2       46.6470   -2.9450  -39.8120 C.3   117  ILE117      0.0022
     27  CD1       47.0030   -1.8120  -37.0490 C.3   117  ILE117      0.0001
     28  N         43.3650   -2.9000  -44.3440 N.3   119  SER119     -0.1202
     29  CA        44.0490   -3.7300  -45.3360 C.3   119  SER119      0.2020
     30  C         44.9510   -2.8920  -46.2470 C.2   119  SER119      0.2619
     31  O         45.8620   -3.4220  -46.8930 O.2   119  SER119     -0.2717
     32  CB        43.0270   -4.5110  -46.1700 C.3   119  SER119      0.2103
     33  OG        42.0910   -3.6480  -46.7950 O.3   119  SER119     -0.2182
     34  N         44.6820   -1.5910  -46.3040 N.am  120  THR120     -0.1952
     35  CA        45.4000   -0.6830  -47.1950 C.3   120  THR120      0.1897
     36  C         46.7690   -0.2440  -46.6690 C.2   120  THR120      0.2313
     37  O         47.7380   -0.1350  -47.4250 O.2   120  THR120     -0.2863
     38  CB        44.5590    0.5890  -47.4400 C.3   120  THR120      0.1794
     39  OG1       43.9890    1.0310  -46.2000 O.3   120  THR120     -0.2208
     40  CG2       43.4410    0.3160  -48.4360 C.3   120  THR120      0.0378
     41  N         44.7750   -6.5060  -34.2990 N.3   143  SER143     -0.1203
     42  CA        43.8110   -7.3210  -35.0570 C.3   143  SER143      0.2005
     43  C         43.9390   -7.0440  -36.5540 C.2   143  SER143      0.2461
     44  O         43.4890   -6.0000  -37.0230 O.2   143  SER143     -0.2732
     45  CB        42.3740   -7.0390  -34.6300 C.3   143  SER143      0.2103
     46  OG        41.4670   -7.7840  -35.4360 O.3   143  SER143     -0.2182
     47  N         44.5500   -7.9790  -37.3170 N.am  144  PRO144     -0.2717
     48  CA        44.6770   -7.6470  -38.7360 C.3   144  PRO144      0.1535
     49  C         43.3740   -7.7860  -39.4810 C.2   144  PRO144      0.2599
     50  O         42.5030   -8.5600  -39.0840 O.2   144  PRO144     -0.2715
     51  CB        45.6710   -8.6890  -39.2600 C.3   144  PRO144      0.0310
     52  CG        46.0420   -9.5560  -38.1120 C.3   144  PRO144      0.0237
     53  CD        45.0890   -9.3120  -37.0100 C.3   144  PRO144      0.0939
     54  N         43.2460   -7.0020  -40.5440 N.am  145  HIS145     -0.1960
     55  CA        42.2670   -7.2410  -41.5820 C.3   145  HIS145      0.1772
     56  C         42.6170   -8.6240  -42.1920 C.2   145  HIS145      0.2462
     57  O         43.8000   -8.9270  -42.3640 O.2   145  HIS145     -0.2730
     58  CB        42.3150   -6.0760  -42.5730 C.3   145  HIS145      0.0785
     59  CG        41.1240   -5.9840  -43.4720 C.ar  145  HIS145      0.0821
     60  ND1       40.9140   -6.7850  -44.5740 N.ar  145  HIS145     -0.2267
     61  CD2       40.0670   -5.1390  -43.4140 C.ar  145  HIS145      0.1154
     62  CE1       39.7720   -6.4450  -45.1480 C.ar  145  HIS145      0.1986
     63  NE2       39.2410   -5.4480  -44.4640 N.ar  145  HIS145     -0.2212
     64  N         41.6170   -9.4630  -42.5270 N.am  146  PRO146     -0.2727
     65  CA        41.9780  -10.8040  -43.0290 C.3   146  PRO146      0.1402
     66  C         42.8250  -10.8790  -44.3030 C.2   146  PRO146      0.2269
     67  O         43.6990  -11.7400  -44.3970 O.2   146  PRO146     -0.2865
     68  CB        40.6140  -11.4520  -43.3060 C.3   146  PRO146      0.0296
     69  CG        39.6180  -10.6490  -42.5440 C.3   146  PRO146      0.0237
     70  CD        40.1590   -9.2520  -42.5190 C.3   146  PRO146      0.0939
     71  N         42.2000  -13.5630  -37.8670 N.3   179  PRO179     -0.2102
     72  CA        41.0960  -12.6530  -37.5240 C.3   179  PRO179      0.1504
     73  C         39.7040  -13.2460  -37.7620 C.2   179  PRO179      0.2576
     74  O         39.4500  -13.8320  -38.8140 O.2   179  PRO179     -0.2718
     75  CB        41.3530  -11.4410  -38.4060 C.3   179  PRO179      0.0282
     76  CG        42.0780  -11.9620  -39.5520 C.3   179  PRO179      0.0208
     77  CD        42.9340  -13.0790  -39.0480 C.3   179  PRO179      0.0893
     78  N         38.8160  -13.0670  -36.7890 N.am  180  THR180     -0.1939
     79  CA        37.4030  -13.3980  -36.9480 C.3   180  THR180      0.2028
     80  C         36.5530  -12.3310  -36.2650 C.2   180  THR180      0.2642
     81  O         37.0650  -11.5020  -35.5120 O.2   180  THR180     -0.2714
     82  CB        37.0470  -14.7820  -36.3420 C.3   180  THR180      0.1808
     83  OG1       37.1670  -14.7330  -34.9150 O.3   180  THR180     -0.2208
     84  CG2       37.9540  -15.8710  -36.8820 C.3   180  THR180      0.0379
     85  N         35.2540  -12.3460  -36.5440 N.am  181  MET181     -0.1976
     86  CA        34.3310  -11.4370  -35.8830 C.3   181  MET181      0.1605
     87  C         34.2830  -11.7640  -34.4110 C.2   181  MET181      0.2287
     88  O         34.2400  -10.8730  -33.5600 O.2   181  MET181     -0.2864
     89  CB        32.9150  -11.5930  -36.4530 C.3   181  MET181      0.0413
     90  CG        32.6590  -11.0720  -37.8640 C.3   181  MET181      0.0598
     91  SD        31.3940  -12.0610  -38.7120 S.3   181  MET181     -0.1393
     92  CE        30.1410  -12.2900  -37.4380 C.3   181  MET181      0.0692
     93  N         37.4830  -10.4490  -32.9040 N.3   184  THR184     -0.1218
     94  CA        37.3880   -8.9960  -32.8600 C.3   184  THR184      0.1862
     95  C         36.4750   -8.5330  -31.7370 C.2   184  THR184      0.2287
     96  O         36.8090   -7.5960  -31.0110 O.2   184  THR184     -0.2866
     97  CB        36.8820   -8.4110  -34.1920 C.3   184  THR184      0.1770
     98  OG1       37.7850   -8.7550  -35.2520 O.3   184  THR184     -0.2211
     99  CG2       36.7600   -6.8830  -34.0920 C.3   184  THR184      0.0375
    100  N         39.6550    1.7740  -39.6210 N.3   200  GLY200     -0.1210
    101  CA        38.9690    0.8650  -40.5230 C.3   200  GLY200      0.1956
    102  C         37.7010    1.4740  -41.0900 C.2   200  GLY200      0.2612
    103  O         37.4580    2.6700  -40.9470 O.2   200  GLY200     -0.2717
    104  N         36.8910    0.6480  -41.7430 N.am  201  GLY201     -0.1942
    105  CA        35.6380    1.1140  -42.3060 C.3   201  GLY201      0.1998
    106  C         34.5890    1.4710  -41.2660 C.2   201  GLY201      0.2481
    107  O         34.7070    1.0750  -40.1080 O.2   201  GLY201     -0.2729
    108  N         33.5460    2.2140  -41.6830 N.am  202  PRO202     -0.2715
    109  CA        32.4780    2.7190  -40.8100 C.3   202  PRO202      0.1536
    110  C         31.7860    1.6430  -39.9830 C.2   202  PRO202      0.2599
    111  O         31.2340    1.9450  -38.9260 O.2   202  PRO202     -0.2715
    112  CB        31.4820    3.3290  -41.7990 C.3   202  PRO202      0.0310
    113  CG        32.3090    3.7530  -42.9260 C.3   202  PRO202      0.0237
    114  CD        33.3710    2.7010  -43.0640 C.3   202  PRO202      0.0939
    115  N         31.8280    0.4020  -40.4540 N.am  203  GLY203     -0.1941
    116  CA        31.2090   -0.6960  -39.7360 C.3   203  GLY203      0.2014
    117  C         31.9750   -1.0940  -38.4970 C.2   203  GLY203      0.2638
    118  O         31.3890   -1.3320  -37.4410 O.2   203  GLY203     -0.2714
    119  N         33.2890   -1.1680  -38.6210 N.am  204  LEU204     -0.1977
    120  CA        34.1230   -1.4620  -37.4730 C.3   204  LEU204      0.1596
    121  C         34.1530   -0.3210  -36.4660 C.2   204  LEU204      0.2287
    122  O         34.1630   -0.5500  -35.2610 O.2   204  LEU204     -0.2864
    123  CB        35.5430   -1.7590  -37.9280 C.3   204  LEU204      0.0297
    124  CG        35.9570   -3.2260  -37.9860 C.3   204  LEU204      0.0022
    125  CD1       37.2490   -3.3250  -38.7690 C.3   204  LEU204      0.0001
    126  CD2       36.1180   -3.8320  -36.6010 C.3   204  LEU204      0.0001
    127  N         32.1110    0.0560  -53.2750 N.3   297  LEU297     -0.1245
    128  CA        33.3580    0.1940  -54.0100 C.3   297  LEU297      0.1561
    129  C         33.9270   -1.1740  -54.3920 C.2   297  LEU297      0.2260
    130  O         34.1160   -2.0330  -53.5350 O.2   297  LEU297     -0.2867
    131  CB        34.3720    0.9840  -53.1750 C.3   297  LEU297      0.0270
    132  CG        35.7540    1.2400  -53.7820 C.3   297  LEU297      0.0019
    133  CD1       35.6420    2.2060  -54.9690 C.3   297  LEU297      0.0001
    134  CD2       36.7260    1.7800  -52.7360 C.3   297  LEU297      0.0001
    135  N         36.3610   -3.7770  -54.7430 N.3   299  ALA299     -0.1245
    136  CA        37.6440   -4.0550  -54.1110 C.3   299  ALA299      0.1562
    137  C         38.7370   -4.3400  -55.1340 C.2   299  ALA299      0.2260
    138  O         39.9210   -4.1640  -54.8460 O.2   299  ALA299     -0.2867
    139  CB        37.5070   -5.2240  -53.1500 C.3   299  ALA299      0.0290
    140  N         40.8620   -1.4150  -56.1780 N.3   302  VAL302     -0.1245
    141  CA        41.5340   -0.7640  -55.0680 C.3   302  VAL302      0.1561
    142  C         43.0470   -0.9730  -55.1520 C.2   302  VAL302      0.2260
    143  O         43.5140   -2.1020  -55.3150 O.2   302  VAL302     -0.2867
    144  CB        41.0090   -1.2950  -53.7120 C.3   302  VAL302      0.0252
    145  CG1       41.8420   -0.7740  -52.5520 C.3   302  VAL302      0.0019
    146  CG2       39.5580   -0.8870  -53.5140 C.3   302  VAL302      0.0019
    147  N         39.7700    5.0250  -53.9280 N.3   342  LEU342     -0.1245
    148  CA        40.9730    4.3410  -53.4520 C.3   342  LEU342      0.1561
    149  C         41.8140    3.7360  -54.5780 C.2   342  LEU342      0.2260
    150  O         42.2300    2.5820  -54.5140 O.2   342  LEU342     -0.2867
    151  CB        40.5870    3.2260  -52.4730 C.3   342  LEU342      0.0270
    152  CG        40.0000    3.6340  -51.1250 C.3   342  LEU342      0.0019
    153  CD1       39.5700    2.3830  -50.3650 C.3   342  LEU342      0.0001
    154  CD2       40.9880    4.4660  -50.3060 C.3   342  LEU342      0.0001
@<TRIPOS>BOND
     1   140   141    1
     2   143   142    2
     3   142   141    1
     4   137   138    2
     5   137   136    1
     6   141   144    1
     7   133   132    1
     8   135   136    1
     9   149   150    2
    10   149   148    1
    11   129   128    1
    12   129   130    2
    13   136   139    1
    14   128   127    1
    15   128   131    1
    16   147   148    1
    17   132   131    1
    18   132   134    1
    19   144   146    1
    20   144   145    1
    21     3     2    1
    22     3     4    2
    23   148   151    1
    24     2     1    1
    25     2     5    1
    26     7     9   ar
    27     7     6   ar
    28   151   152    1
    29     9    11   ar
    30     5     6    1
    31     6     8   ar
    32   152   153    1
    33   152   154    1
    34    11    10   ar
    35     8    10   ar
    36    40    38    1
    37    38    35    1
    38    38    39    1
    39    37    36    2
    40    35    36    1
    41    35    34    1
    42    31    30    2
    43    33    32    1
    44    34    30   am
    45    30    29    1
    46    32    29    1
    47    29    28    1
    48    62    60   ar
    49    62    63   ar
    50    60    59   ar
    51    63    61   ar
    52    67    66    2
    53    66    65    1
    54    59    61   ar
    55    59    58    1
    56    68    65    1
    57    68    69    1
    58   114   113    1
    59   114   108    1
    60    65    64    1
    61   113   112    1
    62    58    55    1
    63    69    70    1
    64    64    70    1
    65    64    56   am
    66    57    56    2
    67   105   104    1
    68   105   106    1
    69    56    55    1
    70   112   109    1
    71   104   102   am
    72   108   106   am
    73   108   109    1
    74    55    54    1
    75   106   107    2
    76   102   103    2
    77   102   101    1
    78   109   110    1
    79    54    49   am
    80   101   100    1
    81   115   110   am
    82   115   116    1
    83    23    22    2
    84    22    21    1
    85   110   111    2
    86    26    24    1
    87   116   117    1
    88    76    77    1
    89    76    75    1
    90    49    50    2
    91    49    48    1
    92    51    48    1
    93    51    52    1
    94    77    71    1
    95    74    73    2
    96   125   124    1
    97    48    47    1
    98    91    90    1
    99    91    92    1
   100    21    24    1
   101    21    20    1
   102    24    25    1
   103   119   117   am
   104   119   120    1
   105   117   118    2
   106    75    72    1
   107    52    53    1
   108   124   123    1
   109   124   126    1
   110   123   120    1
   111    71    72    1
   112    90    89    1
   113    73    72    1
   114    73    78   am
   115    20    14   am
   116   120   121    1
   117    25    27    1
   118    47    53    1
   119    47    43   am
   120    44    43    2
   121    79    78    1
   122    79    82    1
   123    79    80    1
   124    15    14    2
   125    84    82    1
   126    14    13    1
   127    18    16    1
   128    43    42    1
   129    85    80   am
   130    85    86    1
   131   121   122    2
   132    89    86    1
   133    82    83    1
   134    80    81    2
   135    86    87    1
   136    16    13    1
   137    16    17    1
   138    13    12    1
   139    46    45    1
   140    98    97    1
   141    42    45    1
   142    42    41    1
   143    87    88    2
   144    17    19    1
   145    97    99    1
   146    97    94    1
   147    93    94    1
   148    94    95    1
   149    95    96    2
