@<TRIPOS>MOLECULE
tmp/5j7mB00.pdb
 100 93 0 0 0
SMALL
GASTEIGER

@<TRIPOS>ATOM
      1  N         29.9140   12.3420    7.0820 N.3    15  VAL15      -0.1245
      2  CA        30.0660   12.8380    8.4400 C.3    15  VAL15       0.1561
      3  C         29.4580   11.7710    9.3270 C.2    15  VAL15       0.2260
      4  O         28.2350   11.5790    9.3230 O.2    15  VAL15      -0.2867
      5  CB        29.3760   14.1890    8.6470 C.3    15  VAL15       0.0252
      6  CG1       29.5700   14.6300   10.0820 C.3    15  VAL15       0.0019
      7  CG2       29.9100   15.2130    7.6620 C.3    15  VAL15       0.0019
      8  N         26.3920    9.9710    7.9750 N.3    18  LEU18      -0.1245
      9  CA        25.5810   10.8120    7.0990 C.3    18  LEU18       0.1561
     10  C         26.3120   11.0650    5.7830 C.2    18  LEU18       0.2260
     11  O         27.4550   11.5320    5.7750 O.2    18  LEU18      -0.2867
     12  CB        25.2470   12.1450    7.7730 C.3    18  LEU18       0.0270
     13  CG        24.2110   12.2260    8.9140 C.3    18  LEU18       0.0019
     14  CD1       24.6650   11.4920   10.1680 C.3    18  LEU18       0.0001
     15  CD2       23.8910   13.7050    9.2420 C.3    18  LEU18       0.0001
     16  N         26.9740   13.2940    2.7930 N.3    20  VAL20      -0.1245
     17  CA        26.8690   14.7070    2.4290 C.3    20  VAL20       0.1561
     18  C         27.3500   14.8790    1.0010 C.2    20  VAL20       0.2260
     19  O         28.4560   14.4430    0.6580 O.2    20  VAL20      -0.2867
     20  CB        27.6940   15.6110    3.3610 C.3    20  VAL20       0.0252
     21  CG1       27.5390   17.0800    2.9390 C.3    20  VAL20       0.0019
     22  CG2       27.2930   15.3990    4.8160 C.3    20  VAL20       0.0019
     23  N         22.1710   16.2750    2.2510 N.3    37  TYR37      -0.1241
     24  CA        22.7080   15.2780    3.1540 C.3    37  TYR37       0.1605
     25  C         21.6160   14.2630    3.4200 C.2    37  TYR37       0.2264
     26  O         20.4300   14.5710    3.3030 O.2    37  TYR37      -0.2867
     27  CB        23.2520   15.8980    4.4460 C.3    37  TYR37       0.0534
     28  CG        22.2350   16.6210    5.3010 C.ar   37  TYR37      -0.0201
     29  CD1       21.6170   15.9820    6.3590 C.ar   37  TYR37      -0.0009
     30  CD2       21.9200   17.9590    5.0720 C.ar   37  TYR37      -0.0009
     31  CE1       20.6960   16.6390    7.1580 C.ar   37  TYR37       0.0417
     32  CE2       21.0030   18.6270    5.8720 C.ar   37  TYR37       0.0417
     33  CZ        20.3950   17.9560    6.9100 C.ar   37  TYR37       0.1957
     34  OH        19.4920   18.6150    7.7170 O.3    37  TYR37      -0.2866
     35  N         22.7030   13.9090   13.1940 N.3    45  SER45      -0.1203
     36  CA        23.8860   14.6810   12.8650 C.3    45  SER45       0.2005
     37  C         24.5950   15.1390   14.1330 C.2    45  SER45       0.2460
     38  O         23.9520   15.4220   15.1460 O.2    45  SER45      -0.2732
     39  CB        23.5140   15.9070   12.0380 C.3    45  SER45       0.2103
     40  OG        22.7020   16.7790   12.8120 O.3    45  SER45      -0.2182
     41  N         25.9230   15.2120   14.0960 N.am   46  PRO46      -0.2728
     42  CA        26.6480   15.9130   15.1580 C.3    46  PRO46       0.1401
     43  C         26.1140   17.3280   15.2800 C.2    46  PRO46       0.2269
     44  O         25.6650   17.9260   14.3040 O.2    46  PRO46      -0.2865
     45  CB        28.1010   15.9060   14.6630 C.3    46  PRO46       0.0296
     46  CG        28.1510   14.7800   13.6690 C.3    46  PRO46       0.0237
     47  CD        26.8150   14.7730   13.0110 C.3    46  PRO46       0.0939
     48  N         25.5250   21.1190   15.3130 N.3    48  ASP48      -0.1239
     49  CA        26.0700   22.0240   14.3170 C.3    48  ASP48       0.1674
     50  C         25.7280   23.4590   14.6820 C.2    48  ASP48       0.2266
     51  O         24.6320   23.7450   15.1770 O.2    48  ASP48      -0.2867
     52  CB        25.5100   21.6580   12.9350 C.3    48  ASP48       0.1410
     53  CG        26.2730   22.2960   11.8030 C.2    48  ASP48       0.3668
     54  OD1       27.4350   22.7100   12.0080 O.co2  48  ASP48      -0.2456
     55  OD2       25.7100   22.3590   10.6940 O.co2  48  ASP48      -0.2456
     56  N         20.5040   28.8670    7.5420 N.3    54  GLU54      -0.1245
     57  CA        20.3430   27.6360    6.7740 C.3    54  GLU54       0.1567
     58  C         18.8680   27.3700    6.5270 C.2    54  GLU54       0.2260
     59  O         18.0940   27.2100    7.4750 O.2    54  GLU54      -0.2867
     60  CB        20.9740   26.4530    7.5010 C.3    54  GLU54       0.0388
     61  CG        20.7530   25.0850    6.8310 C.3    54  GLU54       0.1160
     62  CD        21.6690   24.0360    7.4710 C.2    54  GLU54       0.3649
     63  OE1       22.4000   24.4410    8.3910 O.co2  54  GLU54      -0.2457
     64  OE2       21.6800   22.8460    7.0730 O.co2  54  GLU54      -0.2457
     65  N         12.5000   24.1150    6.8360 N.3    80  PHE80      -0.1241
     66  CA        12.7980   24.8330    8.0660 C.3    80  PHE80       0.1605
     67  C         13.9840   25.7650    7.8310 C.2    80  PHE80       0.2264
     68  O         14.8410   25.5040    6.9800 O.2    80  PHE80      -0.2867
     69  CB        13.0270   23.8700    9.2510 C.3    80  PHE80       0.0534
     70  CG        14.1710   22.8880    9.0720 C.ar   80  PHE80      -0.0203
     71  CD1       15.4580   23.2020    9.5120 C.ar   80  PHE80      -0.0042
     72  CD2       13.9430   21.6290    8.5280 C.ar   80  PHE80      -0.0042
     73  CE1       16.5110   22.2860    9.3790 C.ar   80  PHE80      -0.0003
     74  CE2       14.9720   20.7060    8.3920 C.ar   80  PHE80      -0.0003
     75  CZ        16.2670   21.0330    8.8220 C.ar   80  PHE80      -0.0000
     76  N         16.9920   27.9760    9.8440 N.3    82  LEU82      -0.1245
     77  CA        17.7530   28.1660   11.0700 C.3    82  LEU82       0.1561
     78  C         18.3600   29.5570   11.0450 C.2    82  LEU82       0.2260
     79  O         18.9880   29.9400   10.0580 O.2    82  LEU82      -0.2867
     80  CB        18.8430   27.1020   11.2150 C.3    82  LEU82       0.0270
     81  CG        18.2800   25.6850   11.2890 C.3    82  LEU82       0.0019
     82  CD1       19.2660   24.6570   10.7370 C.3    82  LEU82       0.0001
     83  CD2       17.8930   25.3530   12.7150 C.3    82  LEU82       0.0001
     84  N         22.1230   23.2380   16.3180 N.3    88  HIS88      -0.1241
     85  CA        21.0410   22.3510   15.8930 C.3    88  HIS88       0.1621
     86  C         21.5470   20.9310   15.6820 C.2    88  HIS88       0.2264
     87  O         22.7120   20.7070   15.3410 O.2    88  HIS88      -0.2867
     88  CB        20.3530   22.8540   14.6110 C.3    88  HIS88       0.0745
     89  CG        21.2990   23.2390   13.5170 C.ar   88  HIS88       0.0817
     90  ND1       21.9520   24.4530   13.4870 N.ar   88  HIS88      -0.2268
     91  CD2       21.6960   22.5710   12.4080 C.ar   88  HIS88       0.1154
     92  CE1       22.7170   24.5130   12.4130 C.ar   88  HIS88       0.1986
     93  NE2       22.5710   23.3870   11.7350 N.ar   88  HIS88      -0.2212
     94  N         20.0100   17.3600   13.7350 N.3    90  VAL90      -0.1245
     95  CA        18.9680   16.8260   12.8750 C.3    90  VAL90       0.1561
     96  C         18.9280   15.3190   13.0440 C.2    90  VAL90       0.2260
     97  O         19.9450   14.6380   12.8670 O.2    90  VAL90      -0.2867
     98  CB        19.1870   17.2140   11.4090 C.3    90  VAL90       0.0252
     99  CG1       18.1110   16.5530   10.5530 C.3    90  VAL90       0.0019
    100  CG2       19.1360   18.7430   11.2840 C.3    90  VAL90       0.0019
@<TRIPOS>BOND
     1    19    18    2
     2    18    17    1
     3    23    24    1
     4    17    16    1
     5    17    20    1
     6    21    20    1
     7    24    25    1
     8    24    27    1
     9    26    25    2
    10    20    22    1
    11    27    28    1
    12    30    28   ar
    13    30    32   ar
    14    28    29   ar
    15    11    10    2
    16    10     9    1
    17    32    33   ar
    18    29    31   ar
    19    58    57    1
    20    58    59    2
    21    57    60    1
    22    57    56    1
    23    61    62    1
    24    61    60    1
    25    65    66    1
    26    33    31   ar
    27    33    34    1
    28    68    67    2
    29    64    62   ar
    30     1     2    1
    31     9    12    1
    32     9     8    1
    33    62    63   ar
    34     7     5    1
    35    12    13    1
    36    67    66    1
    37    66    69    1
    38    74    72   ar
    39    74    75   ar
    40     2     5    1
    41     2     3    1
    42    72    70   ar
    43     5     6    1
    44    75    73   ar
    45    13    15    1
    46    13    14    1
    47    70    69    1
    48    70    71   ar
    49     4     3    2
    50    73    71   ar
    51    76    77    1
    52    79    78    2
    53    99    98    1
    54    55    53   ar
    55    82    81    1
    56    78    77    1
    57    77    80    1
    58    80    81    1
    59   100    98    1
    60    81    83    1
    61    98    95    1
    62    93    91   ar
    63    93    92   ar
    64    53    54   ar
    65    53    52    1
    66    39    40    1
    67    39    36    1
    68    91    89   ar
    69    92    90   ar
    70    36    35    1
    71    36    37    1
    72    97    96    2
    73    95    96    1
    74    95    94    1
    75    52    49    1
    76    47    46    1
    77    47    41    1
    78    90    89   ar
    79    89    88    1
    80    46    45    1
    81    41    37   am
    82    41    42    1
    83    37    38    2
    84    44    43    2
    85    49    50    1
    86    49    48    1
    87    88    85    1
    88    45    42    1
    89    50    51    2
    90    42    43    1
    91    87    86    2
    92    86    85    1
    93    85    84    1
