@<TRIPOS>MOLECULE
tmp/5j7pA00.pdb
 103 99 0 0 0
SMALL
GASTEIGER

@<TRIPOS>ATOM
      1  N         41.8760  -24.4530   10.7860 N.3     1  PRO1       -0.2102
      2  CA        42.0480  -23.8050    9.4660 C.3     1  PRO1        0.1504
      3  C         40.9590  -22.8370    8.9690 C.2     1  PRO1        0.2575
      4  O         39.7670  -23.0000    9.2570 O.2     1  PRO1       -0.2718
      5  CB        42.1130  -25.0120    8.5070 C.3     1  PRO1        0.0282
      6  CG        41.8830  -26.2390    9.3590 C.3     1  PRO1        0.0208
      7  CD        41.1940  -25.7410   10.6090 C.3     1  PRO1        0.0893
      8  N         41.4020  -21.8670    8.1720 N.am    2  MET2       -0.1980
      9  CA        40.5580  -20.8480    7.5980 C.3     2  MET2        0.1605
     10  C         40.9860  -20.6780    6.1490 C.2     2  MET2        0.2287
     11  O         42.1560  -20.4380    5.8760 O.2     2  MET2       -0.2864
     12  CB        40.7680  -19.5300    8.3370 C.3     2  MET2        0.0413
     13  CG        40.0530  -18.3300    7.7470 C.3     2  MET2        0.0598
     14  SD        40.4520  -16.7970    8.6400 S.3     2  MET2       -0.1393
     15  CE        42.0880  -16.4450    8.0260 C.3     2  MET2        0.0692
     16  N         41.6290  -31.8730   10.2330 N.3    32  LYS32      -0.1245
     17  CA        40.9300  -31.1820   11.3030 C.3    32  LYS32       0.1561
     18  C         39.4270  -31.4330   11.2010 C.2    32  LYS32       0.2260
     19  O         38.9030  -31.5990   10.1130 O.2    32  LYS32      -0.2867
     20  CB        41.2040  -29.6810   11.2530 C.3    32  LYS32       0.0271
     21  CG        42.6790  -29.3090   11.2930 C.3    32  LYS32       0.0035
     22  CD        43.3230  -29.7110   12.6130 C.3    32  LYS32       0.0206
     23  CE        44.7880  -29.3080   12.6450 C.3    32  LYS32       0.1093
     24  NZ        45.5480  -30.1080   13.6460 N.3    32  LYS32      -0.1314
     25  N         35.9080  -26.9490   13.0740 N.3    36  TYR36      -0.1241
     26  CA        36.9880  -25.9570   13.1550 C.3    36  TYR36       0.1605
     27  C         37.1440  -25.1080   11.8940 C.2    36  TYR36       0.2264
     28  O         37.7590  -24.0500   11.9440 O.2    36  TYR36      -0.2867
     29  CB        38.3350  -26.6410   13.3170 C.3    36  TYR36       0.0534
     30  CG        38.5800  -27.4390   14.5660 C.ar   36  TYR36      -0.0201
     31  CD1       37.5670  -27.7120   15.5020 C.ar   36  TYR36      -0.0009
     32  CD2       39.8500  -27.9520   14.8000 C.ar   36  TYR36      -0.0009
     33  CE1       37.8370  -28.4710   16.6360 C.ar   36  TYR36       0.0417
     34  CE2       40.1270  -28.7030   15.9280 C.ar   36  TYR36       0.0417
     35  CZ        39.1260  -28.9630   16.8360 C.ar   36  TYR36       0.1957
     36  OH        39.4470  -29.7190   17.9330 O.3    36  TYR36      -0.2866
     37  N         36.8270  -22.6760    8.9130 N.3    38  ALA38      -0.1245
     38  CA        36.1790  -21.4540    8.4550 C.3    38  ALA38       0.1562
     39  C         36.4280  -21.2670    6.9640 C.2    38  ALA38       0.2260
     40  O         37.5430  -21.4960    6.4740 O.2    38  ALA38      -0.2867
     41  CB        36.7000  -20.2510    9.2290 C.3    38  ALA38       0.0290
     42  N         45.1470  -20.3180    6.1960 N.3    62  HIS62      -0.1226
     43  CA        45.8040  -20.2190    7.4940 C.3    62  HIS62       0.1752
     44  C         45.5040  -21.4950    8.2810 C.2    62  HIS62       0.2597
     45  O         44.3510  -21.9260    8.3460 O.2    62  HIS62      -0.2718
     46  CB        45.2660  -19.0480    8.2990 C.3    62  HIS62       0.0759
     47  CG        45.6170  -17.7030    7.7530 C.ar   62  HIS62       0.0818
     48  ND1       45.0330  -17.1850    6.6200 N.ar   62  HIS62      -0.2268
     49  CD2       46.4530  -16.7460    8.2180 C.ar   62  HIS62       0.1154
     50  CE1       45.5080  -15.9710    6.3980 C.ar   62  HIS62       0.1986
     51  NE2       46.3850  -15.6890    7.3450 N.ar   62  HIS62      -0.2212
     52  N         46.5280  -22.0870    8.8860 N.am   63  SER63      -0.1938
     53  CA        46.3490  -23.3060    9.6790 C.3    63  SER63       0.2055
     54  C         47.3640  -23.3440   10.8150 C.2    63  SER63       0.2642
     55  O         48.5010  -22.8980   10.6510 O.2    63  SER63      -0.2714
     56  CB        46.4840  -24.5490    8.7910 C.3    63  SER63       0.2130
     57  OG        46.1010  -25.7190    9.4990 O.3    63  SER63      -0.2179
     58  N         46.9550  -23.8680   11.9620 N.am   64  ILE64      -0.1977
     59  CA        47.8960  -24.1270   13.0550 C.3    64  ILE64       0.1596
     60  C         48.5320  -25.4670   12.7470 C.2    64  ILE64       0.2287
     61  O         47.9170  -26.5140   12.9700 O.2    64  ILE64      -0.2864
     62  CB        47.1900  -24.1620   14.4230 C.3    64  ILE64       0.0276
     63  CG1       46.4390  -22.8460   14.6570 C.3    64  ILE64       0.0022
     64  CG2       48.2020  -24.4140   15.5360 C.3    64  ILE64       0.0022
     65  CD1       45.5100  -22.8600   15.8510 C.3    64  ILE64       0.0001
     66  N         50.2230  -20.7510   11.3140 N.3   101  MET101     -0.1245
     67  CA        49.9880  -19.9100   12.4770 C.3   101  MET101      0.1570
     68  C         50.4670  -20.5720   13.7710 C.2   101  MET101      0.2261
     69  O         50.2370  -21.7630   13.9750 O.2   101  MET101     -0.2867
     70  CB        48.4860  -19.6180   12.6110 C.3   101  MET101      0.0387
     71  CG        47.8910  -18.8080   11.4650 C.3   101  MET101      0.0595
     72  SD        48.6110  -17.1490   11.3280 S.3   101  MET101     -0.1393
     73  CE        48.1710  -16.4640   12.9160 C.3   101  MET101      0.0692
     74  N         48.8520  -17.1320   18.5070 N.3   105  ASN105     -0.1225
     75  CA        48.4590  -16.0230   17.6520 C.3   105  ASN105      0.1785
     76  C         47.1150  -16.2310   16.9630 C.2   105  ASN105      0.2597
     77  O         46.7840  -15.5180   15.9990 O.2   105  ASN105     -0.2718
     78  CB        49.5650  -15.7540   16.6220 C.3   105  ASN105      0.1169
     79  CG        50.8320  -15.2170   17.2610 C.2   105  ASN105      0.2627
     80  OD1       50.7800  -14.5540   18.2870 O.2   105  ASN105     -0.2716
     81  ND2       51.9720  -15.4950   16.6530 N.am  105  ASN105     -0.0877
     82  N         46.3250  -17.1810   17.4710 N.am  106  VAL106     -0.1966
     83  CA        44.9790  -17.3900   16.9840 C.3   106  VAL106      0.1727
     84  C         43.9850  -17.2510   18.1180 C.2   106  VAL106      0.2616
     85  O         43.9870  -18.0490   19.0710 O.2   106  VAL106     -0.2715
     86  CB        44.7920  -18.7750   16.3250 C.3   106  VAL106      0.0290
     87  CG1       43.3600  -18.9270   15.8070 C.3   106  VAL106      0.0023
     88  CG2       45.7910  -18.9630   15.1970 C.3   106  VAL106      0.0023
     89  N         43.1430  -16.2340   18.0070 N.am  107  GLY107     -0.1955
     90  CA        42.0870  -15.9800   18.9670 C.3   107  GLY107      0.1869
     91  C         40.7890  -16.6970   18.6100 C.2   107  GLY107      0.2309
     92  O         40.4290  -16.8270   17.4390 O.2   107  GLY107     -0.2863
     93  N         44.3220  -20.1980   21.3280 N.3   113  PHE113     -0.1241
     94  CA        44.7100  -21.6080   21.3860 C.3   113  PHE113      0.1605
     95  C         46.1220  -21.7560   21.9340 C.2   113  PHE113      0.2264
     96  O         46.8190  -20.7630   22.1640 O.2   113  PHE113     -0.2867
     97  CB        44.6470  -22.2440   19.9920 C.3   113  PHE113      0.0534
     98  CG        43.2630  -22.2960   19.4180 C.ar  113  PHE113     -0.0203
     99  CD1       42.2680  -23.0210   20.0500 C.ar  113  PHE113     -0.0042
    100  CD2       42.9450  -21.6010   18.2670 C.ar  113  PHE113     -0.0042
    101  CE1       40.9820  -23.0660   19.5360 C.ar  113  PHE113     -0.0003
    102  CE2       41.6710  -21.6470   17.7370 C.ar  113  PHE113     -0.0003
    103  CZ        40.6840  -22.3860   18.3730 C.ar  113  PHE113     -0.0000
@<TRIPOS>BOND
     1    11    10    2
     2    10     9    1
     3    42    43    1
     4    50    48   ar
     5    50    51   ar
     6    40    39    2
     7    48    47   ar
     8    39    38    1
     9    51    49   ar
    10    43    44    1
    11    43    46    1
    12     9     8    1
    13     9    12    1
    14    13    12    1
    15    13    14    1
    16    47    49   ar
    17    47    46    1
    18    15    14    1
    19     8     3   am
    20    44    45    2
    21    44    52   am
    22    38    37    1
    23    38    41    1
    24     5     6    1
    25     5     2    1
    26    56    57    1
    27    56    53    1
    28    52    53    1
    29     3     4    2
    30     3     2    1
    31     6     7    1
    32     2     1    1
    33    53    54    1
    34    19    18    2
    35    16    17    1
    36     7     1    1
    37    55    54    2
    38    54    58   am
    39    18    17    1
    40    20    21    1
    41    20    17    1
    42    21    22    1
    43    66    67    1
    44    72    71    1
    45    72    73    1
    46    71    70    1
    47    27    28    2
    48    27    26    1
    49    58    59    1
    50    67    70    1
    51    67    68    1
    52    22    23    1
    53    23    24    1
    54    60    61    2
    55    60    59    1
    56    59    62    1
    57    25    26    1
    58    26    29    1
    59    29    30    1
    60    68    69    2
    61    62    63    1
    62    62    64    1
    63    30    32   ar
    64    30    31   ar
    65    63    65    1
    66    32    34   ar
    67    88    86    1
    68    31    33   ar
    69    87    86    1
    70    34    35   ar
    71    77    76    2
    72    86    83    1
    73    78    79    1
    74    78    75    1
    75    33    35   ar
    76    81    79   am
    77    35    36    1
    78    76    82   am
    79    76    75    1
    80    83    82    1
    81    83    84    1
    82    79    80    2
    83    92    91    2
    84    75    74    1
    85   102   100   ar
    86   102   103   ar
    87    89    84   am
    88    89    90    1
    89    84    85    2
    90   100    98   ar
    91   103   101   ar
    92    91    90    1
    93    98    97    1
    94    98    99   ar
    95   101    99   ar
    96    97    94    1
    97    93    94    1
    98    94    95    1
    99    95    96    2
