@<TRIPOS>MOLECULE
tmp/5j7qA00.pdb
 107 103 0 0 0
SMALL
GASTEIGER

@<TRIPOS>ATOM
      1  N        -22.0860   -1.7200  -24.3470 N.3     1  PRO1       -0.2102
      2  CA       -22.7260   -0.6470  -23.5520 C.3     1  PRO1        0.1504
      3  C        -23.3340   -1.1020  -22.2180 C.2     1  PRO1        0.2575
      4  O        -23.5870   -2.2840  -22.0280 O.2     1  PRO1       -0.2718
      5  CB       -23.8110   -0.1350  -24.4950 C.3     1  PRO1        0.0282
      6  CG       -23.1730   -0.2760  -25.8580 C.3     1  PRO1        0.0208
      7  CD       -22.1500   -1.3940  -25.7880 C.3     1  PRO1        0.0893
      8  N        -23.6380   -0.1370  -21.3570 N.am    2  MET2       -0.1980
      9  CA       -24.1090   -0.4310  -20.0300 C.3     2  MET2        0.1605
     10  C        -25.2200    0.5400  -19.6860 C.2     2  MET2        0.2287
     11  O        -25.0100    1.7460  -19.6900 O.2     2  MET2       -0.2864
     12  CB       -22.9290   -0.2870  -19.0840 C.3     2  MET2        0.0413
     13  CG       -23.2120   -0.5380  -17.6310 C.3     2  MET2        0.0598
     14  SD       -21.8000    0.0350  -16.6850 S.3     2  MET2       -0.1393
     15  CE       -22.2440    1.7320  -16.4130 C.3     2  MET2        0.0692
     16  N        -24.0000   -2.2350  -31.6040 N.3    32  LYS32      -0.1231
     17  CA       -23.0070   -3.0060  -30.8640 C.3    32  LYS32       0.1678
     18  C        -23.5550   -4.4120  -30.6340 C.2    32  LYS32       0.2434
     19  O        -24.7560   -4.5950  -30.4550 O.2    32  LYS32      -0.2733
     20  CB       -22.6620   -2.3240  -29.5140 C.3    32  LYS32       0.0284
     21  CG       -22.1320   -0.8910  -29.6330 C.3    32  LYS32       0.0035
     22  CD       -20.7730   -0.8430  -30.3100 C.3    32  LYS32       0.0206
     23  CE       -20.4000    0.5350  -30.8350 C.3    32  LYS32       0.1093
     24  NZ       -20.9570    0.8240  -32.2000 N.3    32  LYS32      -0.1314
     25  N        -22.6740   -5.4170  -30.6100 N.am   33  PRO33      -0.2729
     26  CA       -23.1600   -6.7830  -30.4110 C.3    33  PRO33       0.1401
     27  C        -23.8440   -6.9530  -29.0680 C.2    33  PRO33       0.2269
     28  O        -23.3390   -6.4560  -28.0600 O.2    33  PRO33      -0.2865
     29  CB       -21.8850   -7.6290  -30.4650 C.3    33  PRO33       0.0296
     30  CG       -20.8630   -6.7600  -31.0860 C.3    33  PRO33       0.0237
     31  CD       -21.2050   -5.3670  -30.6710 C.3    33  PRO33       0.0939
     32  N        -22.0800   -8.0550  -25.6690 N.3    36  TYR36      -0.1241
     33  CA       -21.3590   -7.0840  -24.8590 C.3    36  TYR36       0.1605
     34  C        -22.2490   -6.1450  -24.0100 C.2    36  TYR36       0.2264
     35  O        -21.7130   -5.2920  -23.2890 O.2    36  TYR36      -0.2867
     36  CB       -20.4620   -6.2280  -25.7490 C.3    36  TYR36       0.0534
     37  CG       -19.5000   -7.0170  -26.5970 C.ar   36  TYR36      -0.0201
     38  CD1      -18.9780   -8.2410  -26.1570 C.ar   36  TYR36      -0.0009
     39  CD2      -19.0920   -6.5330  -27.8390 C.ar   36  TYR36      -0.0009
     40  CE1      -18.0930   -8.9590  -26.9370 C.ar   36  TYR36       0.0417
     41  CE2      -18.2050   -7.2450  -28.6250 C.ar   36  TYR36       0.0417
     42  CZ       -17.7130   -8.4510  -28.1700 C.ar   36  TYR36       0.1957
     43  OH       -16.8360   -9.1520  -28.9490 O.3    36  TYR36      -0.2866
     44  N        -24.7200   -4.7840  -21.1780 N.3    38  ALA38      -0.1245
     45  CA       -25.1230   -5.0150  -19.8020 C.3    38  ALA38       0.1562
     46  C        -26.2840   -4.1090  -19.4390 C.2    38  ALA38       0.2260
     47  O        -26.3020   -2.9450  -19.8230 O.2    38  ALA38      -0.2867
     48  CB       -23.9590   -4.7670  -18.8520 C.3    38  ALA38       0.0290
     49  N        -23.6430    4.1210  -20.5970 N.3    62  HIS62      -0.1226
     50  CA       -22.2110    4.2740  -20.8290 C.3    62  HIS62       0.1752
     51  C        -21.8220    3.5320  -22.0850 C.2    62  HIS62       0.2597
     52  O        -22.3240    2.4250  -22.3130 O.2    62  HIS62      -0.2718
     53  CB       -21.4250    3.6120  -19.6890 C.3    62  HIS62       0.0759
     54  CG       -21.4890    4.3500  -18.3910 C.ar   62  HIS62       0.0818
     55  ND1      -22.6270    4.4080  -17.6200 N.ar   62  HIS62      -0.2268
     56  CD2      -20.5510    5.0560  -17.7330 C.ar   62  HIS62       0.1154
     57  CE1      -22.3870    5.1170  -16.5370 C.ar   62  HIS62       0.1986
     58  NE2      -21.1350    5.5230  -16.5840 N.ar   62  HIS62      -0.2212
     59  N        -20.8710    4.0880  -22.8350 N.am   63  SER63      -0.1938
     60  CA       -20.3900    3.4530  -24.0380 C.3    63  SER63       0.2055
     61  C        -19.1070    4.0760  -24.5070 C.2    63  SER63       0.2642
     62  O        -18.9340    5.2830  -24.4220 O.2    63  SER63      -0.2714
     63  CB       -21.4330    3.5950  -25.1360 C.3    63  SER63       0.2130
     64  OG       -20.9420    3.1550  -26.3770 O.3    63  SER63      -0.2179
     65  N        -18.2180    3.2470  -25.0560 N.am   64  ILE64      -0.1977
     66  CA       -17.0100    3.7450  -25.6820 C.3    64  ILE64       0.1596
     67  C        -17.4620    4.1900  -27.0420 C.2    64  ILE64       0.2287
     68  O        -17.7780    3.3710  -27.8750 O.2    64  ILE64      -0.2864
     69  CB       -15.8930    2.6930  -25.7770 C.3    64  ILE64       0.0276
     70  CG1      -15.4370    2.2890  -24.3620 C.3    64  ILE64       0.0022
     71  CG2      -14.7120    3.2940  -26.5480 C.3    64  ILE64       0.0022
     72  CD1      -14.7610    0.9270  -24.2620 C.3    64  ILE64       0.0001
     73  N        -20.1130    6.2300  -29.8110 N.3    66  LYS66      -0.1245
     74  CA       -21.5430    6.1440  -30.1180 C.3    66  LYS66       0.1561
     75  C        -22.4150    6.9710  -29.1550 C.2    66  LYS66       0.2260
     76  O        -23.5680    6.6210  -28.8750 O.2    66  LYS66      -0.2867
     77  CB       -22.0170    4.6920  -30.1180 C.3    66  LYS66       0.0271
     78  CG       -21.2220    3.7610  -31.0310 C.3    66  LYS66       0.0035
     79  CD       -21.2320    4.1810  -32.4990 C.3    66  LYS66       0.0206
     80  CE       -22.6030    4.0590  -33.1360 C.3    66  LYS66       0.1093
     81  NZ       -22.6370    4.9420  -34.3280 N.3    66  LYS66      -0.1314
     82  N        -17.3150    6.9110  -22.7470 N.3   101  MET101     -0.1245
     83  CA       -16.1370    6.4330  -22.0590 C.3   101  MET101      0.1570
     84  C        -14.9150    6.2940  -22.9740 C.2   101  MET101      0.2261
     85  O        -15.0090    5.7880  -24.1020 O.2   101  MET101     -0.2867
     86  CB       -16.4160    5.0650  -21.4430 C.3   101  MET101      0.0387
     87  CG       -17.5360    5.0460  -20.4200 C.3   101  MET101      0.0595
     88  SD       -17.2370    6.1210  -19.0050 S.3   101  MET101     -0.1393
     89  CE       -15.9590    5.1570  -18.1840 C.3   101  MET101      0.0692
     90  N        -12.2990    1.7250  -19.4650 N.3   106  VAL106     -0.1245
     91  CA       -13.2640    0.6670  -19.2890 C.3   106  VAL106      0.1561
     92  C        -12.5520   -0.6580  -19.1090 C.2   106  VAL106      0.2260
     93  O        -11.8070   -1.0990  -19.9760 O.2   106  VAL106     -0.2867
     94  CB       -14.2600    0.5430  -20.4500 C.3   106  VAL106      0.0252
     95  CG1      -15.2830   -0.5400  -20.1240 C.3   106  VAL106      0.0019
     96  CG2      -14.9430    1.8740  -20.7410 C.3   106  VAL106      0.0019
     97  N         -9.9330   -1.8390  -22.6990 N.3   113  PHE113     -0.1241
     98  CA       -10.0580   -1.7650  -24.1680 C.3   113  PHE113      0.1605
     99  C         -9.0830   -0.8210  -24.8570 C.2   113  PHE113      0.2264
    100  O         -9.1930   -0.5970  -26.0490 O.2   113  PHE113     -0.2867
    101  CB       -11.4870   -1.3570  -24.5450 C.3   113  PHE113      0.0534
    102  CG       -12.4970   -2.3770  -24.1710 C.ar  113  PHE113     -0.0203
    103  CD1      -12.6170   -3.5500  -24.9150 C.ar  113  PHE113     -0.0042
    104  CD2      -13.2930   -2.2090  -23.0540 C.ar  113  PHE113     -0.0042
    105  CE1      -13.5320   -4.5260  -24.5540 C.ar  113  PHE113     -0.0003
    106  CE2      -14.2260   -3.1680  -22.6990 C.ar  113  PHE113     -0.0003
    107  CZ       -14.3490   -4.3300  -23.4530 C.ar  113  PHE113     -0.0000
@<TRIPOS>BOND
     1    81    80    1
     2    80    79    1
     3    79    78    1
     4    24    23    1
     5    16    17    1
     6    30    31    1
     7    30    29    1
     8    78    77    1
     9    17    18    1
    10    17    20    1
    11    23    22    1
    12    31    25    1
    13    18    25   am
    14    18    19    2
    15    25    26    1
    16    29    26    1
    17    26    27    1
    18    22    21    1
    19    77    74    1
    20    74    73    1
    21    74    75    1
    22    21    20    1
    23    75    76    2
    24    27    28    2
    25    43    42    1
    26    41    42   ar
    27    41    39   ar
    28    42    40   ar
    29    68    67    2
    30    39    37   ar
    31    67    66    1
    32    40    38   ar
    33    37    38   ar
    34    37    36    1
    35    71    69    1
    36    64    63    1
    37   100    99    2
    38     6     7    1
    39     6     5    1
    40     7     1    1
    41    69    66    1
    42    69    70    1
    43    36    33    1
    44    66    65    1
    45    32    33    1
    46    63    60    1
    47    65    61   am
    48   103   105   ar
    49   103   102   ar
    50    33    34    1
    51    99    98    1
    52   105   107   ar
    53   101   102    1
    54   101    98    1
    55    61    62    2
    56    61    60    1
    57     5     2    1
    58    70    72    1
    59     1     2    1
    60   102   104   ar
    61    98    97    1
    62    85    84    2
    63    60    59    1
    64    34    35    2
    65     2     3    1
    66   107   106   ar
    67   104   106   ar
    68    84    83    1
    69    59    51   am
    70    82    83    1
    71    52    51    2
    72     3     4    2
    73     3     8   am
    74    51    50    1
    75    83    86    1
    76    86    87    1
    77     8     9    1
    78    44    45    1
    79    50    49    1
    80    50    53    1
    81    96    94    1
    82    94    95    1
    83    94    91    1
    84    87    88    1
    85     9    10    1
    86     9    12    1
    87    93    92    2
    88    47    46    2
    89    45    46    1
    90    45    48    1
    91    11    10    2
    92    53    54    1
    93    90    91    1
    94    91    92    1
    95    12    13    1
    96    88    89    1
    97    54    56   ar
    98    54    55   ar
    99    56    58   ar
   100    13    14    1
   101    55    57   ar
   102    14    15    1
   103    58    57   ar
