@<TRIPOS>MOLECULE
tmp/5j7sA00.pdb
 157 147 0 0 0
SMALL
GASTEIGER

@<TRIPOS>ATOM
      1  N        -18.9610  -53.6210  -14.0280 N.3    16  VAL16      -0.1231
      2  CA       -18.6130  -52.8990  -15.2480 C.3    16  VAL16       0.1692
      3  C        -18.3080  -53.8750  -16.3770 C.2    16  VAL16       0.2592
      4  O        -19.1910  -54.2350  -17.1620 O.2    16  VAL16      -0.2718
      5  CB       -17.4100  -51.9680  -15.0090 C.3    16  VAL16       0.0266
      6  CG1      -17.0550  -51.2080  -16.2890 C.3    16  VAL16       0.0020
      7  CG2      -17.6860  -51.0130  -13.8570 C.3    16  VAL16       0.0020
      8  N        -17.0430  -54.2990  -16.4680 N.am   17  GLY17      -0.1957
      9  CA       -16.5960  -55.1360  -17.5560 C.3    17  GLY17       0.1869
     10  C        -15.7970  -56.3190  -17.0390 C.2    17  GLY17       0.2309
     11  O        -15.4870  -56.4190  -15.8500 O.2    17  GLY17      -0.2863
     12  N        -12.6810  -57.6330  -18.4550 N.3    19  GLY19      -0.1225
     13  CA       -11.4470  -57.6510  -19.2240 C.3    19  GLY19       0.1811
     14  C        -10.2590  -57.0750  -18.4790 C.2    19  GLY19       0.2280
     15  O        -10.1860  -55.8690  -18.2570 O.2    19  GLY19      -0.2866
     16  N        -14.0430  -55.7890  -13.0600 N.3    22  VAL22      -0.1245
     17  CA       -14.0200  -54.3530  -12.7900 C.3    22  VAL22       0.1561
     18  C        -15.3890  -53.9190  -12.2780 C.2    22  VAL22       0.2260
     19  O        -16.4200  -54.3180  -12.8300 O.2    22  VAL22      -0.2867
     20  CB       -13.6540  -53.5420  -14.0520 C.3    22  VAL22       0.0252
     21  CG1      -13.4420  -52.0820  -13.6920 C.3    22  VAL22       0.0019
     22  CG2      -12.4280  -54.1250  -14.7560 C.3    22  VAL22       0.0019
     23  N        -13.3280  -46.6150   -9.9390 N.3    33  ALA33      -0.1245
     24  CA       -13.3160  -48.0090  -10.3520 C.3    33  ALA33       0.1562
     25  C        -12.2640  -48.7740   -9.5630 C.2    33  ALA33       0.2260
     26  O        -11.3140  -48.1930   -9.0320 O.2    33  ALA33      -0.2867
     27  CB       -13.0340  -48.1430  -11.8520 C.3    33  ALA33       0.0290
     28  N        -10.3940  -53.0450   -9.1740 N.3    35  LYS35      -0.1245
     29  CA       -10.2060  -54.4020   -9.6910 C.3    35  LYS35       0.1561
     30  C         -9.7910  -55.3530   -8.5740 C.2    35  LYS35       0.2260
     31  O         -8.6450  -55.7920   -8.5150 O.2    35  LYS35      -0.2867
     32  CB        -9.1600  -54.4200  -10.8100 C.3    35  LYS35       0.0271
     33  CG        -9.6000  -53.6730  -12.0620 C.3    35  LYS35       0.0035
     34  CD        -8.6490  -53.8670  -13.2490 C.3    35  LYS35       0.0206
     35  CE        -8.7670  -55.2550  -13.8770 C.3    35  LYS35       0.1093
     36  NZ        -8.0660  -55.3360  -15.1980 N.3    35  LYS35      -0.1314
     37  N         -5.4600  -42.5820  -16.9880 N.3    54  VAL54      -0.1245
     38  CA        -6.4250  -42.8000  -15.9160 C.3    54  VAL54       0.1561
     39  C         -5.7160  -42.6200  -14.5860 C.2    54  VAL54       0.2260
     40  O         -4.7110  -43.2840  -14.3020 O.2    54  VAL54      -0.2867
     41  CB        -7.0710  -44.1850  -16.0170 C.3    54  VAL54       0.0252
     42  CG1       -7.9920  -44.4290  -14.8160 C.3    54  VAL54       0.0019
     43  CG2       -7.8580  -44.3130  -17.3000 C.3    54  VAL54       0.0019
     44  N         -8.8530  -46.8310   -9.4030 N.3    65  MET65      -0.1230
     45  CA        -8.6660  -45.9860  -10.5660 C.3    65  MET65       0.1702
     46  C         -9.8740  -45.0820  -10.7140 C.2    65  MET65       0.2592
     47  O        -11.0040  -45.4860  -10.4340 O.2    65  MET65      -0.2718
     48  CB        -8.4830  -46.8310  -11.8270 C.3    65  MET65       0.0401
     49  CG        -7.1420  -47.5260  -11.8760 C.3    65  MET65       0.0596
     50  SD        -6.9720  -48.7190  -13.2180 S.3    65  MET65      -0.1393
     51  CE        -7.9380  -50.0890  -12.5950 C.3    65  MET65       0.0692
     52  N         -9.6320  -43.8540  -11.1590 N.am   66  GLU66      -0.1966
     53  CA       -10.7450  -42.9510  -11.3890 C.3    66  GLU66       0.1733
     54  C        -11.7170  -43.5850  -12.3730 C.2    66  GLU66       0.2616
     55  O        -11.3260  -44.3340  -13.2730 O.2    66  GLU66      -0.2715
     56  CB       -10.2560  -41.6060  -11.9180 C.3    66  GLU66       0.0429
     57  CG       -11.3700  -40.5750  -12.0500 C.3    66  GLU66       0.1163
     58  CD       -10.8460  -39.2210  -12.4720 C.2    66  GLU66       0.3649
     59  OE1       -9.6650  -38.9330  -12.1860 O.co2  66  GLU66      -0.2457
     60  OE2      -11.6050  -38.4510  -13.0970 O.co2  66  GLU66      -0.2457
     61  N        -12.9990  -43.3040  -12.1760 N.am   67  TYR67      -0.1960
     62  CA       -14.0320  -43.8400  -13.0470 C.3    67  TYR67       0.1771
     63  C        -14.1740  -42.9650  -14.2850 C.2    67  TYR67       0.2619
     64  O        -14.0620  -41.7390  -14.2110 O.2    67  TYR67      -0.2715
     65  CB       -15.3630  -43.9230  -12.2970 C.3    67  TYR67       0.0574
     66  CG       -16.5090  -44.4870  -13.1040 C.ar   67  TYR67      -0.0198
     67  CD1      -17.5220  -43.6640  -13.5670 C.ar   67  TYR67      -0.0009
     68  CD2      -16.5820  -45.8420  -13.3990 C.ar   67  TYR67      -0.0009
     69  CE1      -18.5790  -44.1670  -14.3000 C.ar   67  TYR67       0.0417
     70  CE2      -17.6380  -46.3550  -14.1380 C.ar   67  TYR67       0.0417
     71  CZ       -18.6330  -45.5080  -14.5870 C.ar   67  TYR67       0.1957
     72  OH       -19.6930  -45.9910  -15.3200 O.3    67  TYR67      -0.2866
     73  N        -14.4160  -43.6040  -15.4260 N.am   68  ALA68      -0.1963
     74  CA       -14.6450  -42.9070  -16.6910 C.3    68  ALA68       0.1728
     75  C        -16.0890  -43.1560  -17.1120 C.2    68  ALA68       0.2616
     76  O        -16.4290  -44.2400  -17.5930 O.2    68  ALA68      -0.2715
     77  CB       -13.6620  -43.3740  -17.7590 C.3    68  ALA68       0.0334
     78  N        -16.9290  -42.1340  -16.9370 N.am   69  GLU69      -0.1977
     79  CA       -18.3530  -42.2490  -17.2410 C.3    69  GLU69       0.1602
     80  C        -18.5980  -42.8190  -18.6340 C.2    69  GLU69       0.2287
     81  O        -19.4990  -43.6440  -18.8270 O.2    69  GLU69      -0.2864
     82  CB       -19.0110  -40.8710  -17.1050 C.3    69  GLU69       0.0415
     83  CG       -18.4200  -39.8040  -18.0400 C.3    69  GLU69       0.1163
     84  CD       -18.8080  -38.3830  -17.6650 C.2    69  GLU69       0.3649
     85  OE1      -17.9360  -37.4910  -17.7640 O.co2  69  GLU69      -0.2457
     86  OE2      -19.9760  -38.1570  -17.2720 O.co2  69  GLU69      -0.2457
     87  N        -17.0960  -44.8800  -20.8300 N.3    71  GLY71      -0.1210
     88  CA       -16.7380  -46.1670  -21.4040 C.3    71  GLY71       0.1956
     89  C        -15.5250  -46.0720  -22.3220 C.2    71  GLY71       0.2612
     90  O        -14.7570  -45.1130  -22.2980 O.2    71  GLY71      -0.2717
     91  N        -15.3680  -47.0940  -23.1540 N.am   72  SER72      -0.1952
     92  CA       -14.1910  -47.2280  -23.9980 C.3    72  SER72       0.1924
     93  C        -14.4230  -46.6060  -25.3640 C.2    72  SER72       0.2314
     94  O        -15.5420  -46.5730  -25.8780 O.2    72  SER72      -0.2863
     95  CB       -13.8220  -48.6970  -24.1950 C.3    72  SER72       0.2116
     96  OG       -14.6230  -49.2680  -25.2200 O.3    72  SER72      -0.2180
     97  N        -16.0620  -49.1920  -27.5930 N.3    75  ASN75      -0.1240
     98  CA       -17.5110  -49.2810  -27.4840 C.3    75  ASN75       0.1653
     99  C        -18.2090  -48.0760  -28.1260 C.2    75  ASN75       0.2266
    100  O        -19.2980  -48.2240  -28.6890 O.2    75  ASN75      -0.2867
    101  CB       -17.8900  -49.4350  -26.0090 C.3    75  ASN75       0.1155
    102  CG       -19.3590  -49.7420  -25.8110 C.2    75  ASN75       0.2627
    103  OD1      -20.0410  -49.0770  -25.0350 O.2    75  ASN75      -0.2716
    104  ND2      -19.8540  -50.7520  -26.5130 N.am   75  ASN75      -0.0877
    105  N        -22.8500  -51.3050  -29.0490 N.3    80  ALA80      -0.1245
    106  CA       -24.2510  -51.6220  -29.2750 C.3    80  ALA80       0.1562
    107  C        -24.9990  -50.3700  -29.6750 C.2    80  ALA80       0.2260
    108  O        -24.7850  -49.2930  -29.1080 O.2    80  ALA80      -0.2867
    109  CB       -24.8940  -52.2200  -28.0250 C.3    80  ALA80       0.0290
    110  N        -10.0020  -50.4710  -26.8800 N.3   121  PRO121     -0.2102
    111  CA       -10.6190  -50.9720  -25.6390 C.3   121  PRO121      0.1504
    112  C         -9.9380  -50.4540  -24.3790 C.2   121  PRO121      0.2575
    113  O        -10.5700  -50.4500  -23.3150 O.2   121  PRO121     -0.2718
    114  CB       -10.5030  -52.5000  -25.7660 C.3   121  PRO121      0.0282
    115  CG       -10.3590  -52.7700  -27.2190 C.3   121  PRO121      0.0208
    116  CD        -9.5970  -51.5790  -27.7650 C.3   121  PRO121      0.0893
    117  N         -8.6840  -50.0050  -24.4660 N.am  122  ASN122     -0.1975
    118  CA        -7.9580  -49.4590  -23.3240 C.3   122  ASN122      0.1688
    119  C         -7.8960  -47.9420  -23.3440 C.2   122  ASN122      0.2292
    120  O         -7.1240  -47.3510  -22.5810 O.2   122  ASN122     -0.2864
    121  CB        -6.5360  -50.0200  -23.2700 C.3   122  ASN122      0.1181
    122  CG        -6.5050  -51.5140  -23.0660 C.2   122  ASN122      0.2629
    123  OD1       -5.6230  -52.1950  -23.5920 O.2   122  ASN122     -0.2716
    124  ND2       -7.4620  -52.0380  -22.3030 N.am  122  ASN122     -0.0877
    125  N        -10.2480  -44.7950  -22.6150 N.3   124  LEU124     -0.1245
    126  CA       -11.4960  -44.4510  -21.9560 C.3   124  LEU124      0.1561
    127  C        -11.8730  -43.0050  -22.2480 C.2   124  LEU124      0.2260
    128  O        -11.0130  -42.1540  -22.4850 O.2   124  LEU124     -0.2867
    129  CB       -11.3870  -44.6580  -20.4460 C.3   124  LEU124      0.0270
    130  CG       -10.9360  -46.0500  -19.9890 C.3   124  LEU124      0.0019
    131  CD1      -11.0460  -46.1920  -18.4730 C.3   124  LEU124      0.0001
    132  CD2      -11.7560  -47.1120  -20.6660 C.3   124  LEU124      0.0001
    133  N         -5.8150  -46.2810  -20.4150 N.3   135  CYS135     -0.1221
    134  CA        -5.9100  -47.1710  -19.2590 C.3   135  CYS135      0.1808
    135  C         -4.6400  -48.0160  -19.2560 C.2   135  CYS135      0.2601
    136  O         -4.5710  -49.0780  -19.8770 O.2   135  CYS135     -0.2717
    137  CB        -7.1760  -48.0140  -19.3150 C.3   135  CYS135      0.0970
    138  SG        -7.6610  -48.6640  -17.7210 S.3   135  CYS135     -0.0800
    139  N         -3.6290  -47.5240  -18.5350 N.am  136  ASP136     -0.1959
    140  CA        -2.2670  -48.0310  -18.6560 C.3   136  ASP136      0.1840
    141  C         -2.2110  -49.5410  -18.4610 C.2   136  ASP136      0.2622
    142  O         -2.9670  -50.1170  -17.6740 O.2   136  ASP136     -0.2715
    143  CB        -1.3600  -47.3340  -17.6380 C.3   136  ASP136      0.1450
    144  CG         0.1130  -47.4490  -17.9900 C.2   136  ASP136      0.3671
    145  OD1        0.4510  -48.2170  -18.9200 O.co2 136  ASP136     -0.2456
    146  OD2        0.9310  -46.7700  -17.3300 O.co2 136  ASP136     -0.2456
    147  N         -1.2870  -50.1720  -19.1810 N.am  137  PHE137     -0.1974
    148  CA        -1.1670  -51.6210  -19.1940 C.3   137  PHE137      0.1639
    149  C          0.0210  -52.0510  -20.0580 C.2   137  PHE137      0.2290
    150  O          1.1400  -51.5460  -19.8960 O.2   137  PHE137     -0.2864
    151  CB        -2.4620  -52.2480  -19.7060 C.3   137  PHE137      0.0560
    152  CG        -3.1630  -53.0960  -18.6880 C.ar  137  PHE137     -0.0200
    153  CD1       -4.2420  -52.6010  -17.9680 C.ar  137  PHE137     -0.0042
    154  CD2       -2.7390  -54.3920  -18.4490 C.ar  137  PHE137     -0.0042
    155  CE1       -4.8850  -53.3890  -17.0300 C.ar  137  PHE137     -0.0003
    156  CE2       -3.3760  -55.1830  -17.5180 C.ar  137  PHE137     -0.0003
    157  CZ        -4.4500  -54.6820  -16.8060 C.ar  137  PHE137     -0.0000
@<TRIPOS>BOND
     1   107   106    1
     2   107   108    2
     3   106   105    1
     4   106   109    1
     5   100    99    2
     6    99    98    1
     7   116   115    1
     8   116   110    1
     9    97    98    1
    10    98   101    1
    11   115   114    1
    12   110   111    1
    13   104   102   am
    14   101   102    1
    15    94    93    2
    16   102   103    2
    17   114   111    1
    18   111   112    1
    19    93    92    1
    20    96    95    1
    21   117   112   am
    22   117   118    1
    23   112   113    2
    24    95    92    1
    25    92    91    1
    26   123   122    2
    27   119   118    1
    28   119   120    2
    29   118   121    1
    30   121   122    1
    31    91    89   am
    32   122   124   am
    33   125   126    1
    34   128   127    2
    35    89    90    2
    36    89    88    1
    37   127   126    1
    38   126   129    1
    39    88    87    1
    40   132   130    1
    41   129   130    1
    42   133   134    1
    43   149   150    2
    44   149   148    1
    45   130   131    1
    46   136   135    2
    47   151   148    1
    48   151   152    1
    49   137   134    1
    50   137   138    1
    51   134   135    1
    52   135   139   am
    53    13    14    1
    54    13    12    1
    55   148   147    1
    56   147   141   am
    57   145   144   ar
    58    81    80    2
    59   152   154   ar
    60   152   153   ar
    61   140   139    1
    62   140   141    1
    63   140   143    1
    64    80    79    1
    65    14    15    2
    66   141   142    2
    67   154   156   ar
    68    83    84    1
    69    83    82    1
    70   144   143    1
    71   144   146   ar
    72   153   155   ar
    73    85    84   ar
    74    77    74    1
    75    84    86   ar
    76    76    75    2
    77     9    10    1
    78     9     8    1
    79   156   157   ar
    80    43    41    1
    81    79    82    1
    82    79    78    1
    83     4     3    2
    84    75    78   am
    85    75    74    1
    86    10    11    2
    87   155   157   ar
    88    37    38    1
    89    74    73    1
    90     8     3   am
    91     3     2    1
    92     6     5    1
    93    41    38    1
    94    41    42    1
    95    38    39    1
    96    73    63   am
    97    72    71    1
    98     2     5    1
    99     2     1    1
   100    36    35    1
   101     5     7    1
   102    22    20    1
   103    71    69   ar
   104    71    70   ar
   105    39    40    2
   106    69    67   ar
   107    63    64    2
   108    63    62    1
   109    70    68   ar
   110    20    21    1
   111    20    17    1
   112    35    34    1
   113    67    66   ar
   114    68    66   ar
   115    55    54    2
   116    34    33    1
   117    50    51    1
   118    50    49    1
   119    66    65    1
   120    60    58   ar
   121    16    17    1
   122    62    65    1
   123    62    61    1
   124    19    18    2
   125    17    18    1
   126    58    59   ar
   127    58    57    1
   128    54    61   am
   129    54    53    1
   130    33    32    1
   131    57    56    1
   132    56    53    1
   133    49    48    1
   134    27    24    1
   135    48    45    1
   136    53    52    1
   137    52    46   am
   138    32    29    1
   139    46    45    1
   140    46    47    2
   141    45    44    1
   142    24    23    1
   143    24    25    1
   144    29    28    1
   145    29    30    1
   146    25    26    2
   147    30    31    2
