@<TRIPOS>MOLECULE
tmp/5j7wD00.pdb
 104 100 0 0 0
SMALL
GASTEIGER

@<TRIPOS>ATOM
      1  N         -9.6440   11.8320   37.7680 N.3    22  ARG22      -0.1231
      2  CA       -10.5200   12.6560   38.5970 C.3    22  ARG22       0.1694
      3  C        -12.0170   12.3420   38.3940 C.2    22  ARG22       0.2592
      4  O        -12.7860   12.3370   39.3480 O.2    22  ARG22      -0.2718
      5  CB       -10.2550   14.1540   38.2960 C.3    22  ARG22       0.0321
      6  CG       -11.2640   15.1260   38.9350 C.3    22  ARG22       0.0489
      7  CD       -11.0920   16.5470   38.4560 C.3    22  ARG22       0.2205
      8  NE       -11.1740   16.6360   36.9940 N.pl3  22  ARG22      -0.0865
      9  CZ       -12.3010   16.7250   36.2820 C.cat  22  ARG22       0.5346
     10  NH1      -13.4860   16.7320   36.8910 N.pl3  22  ARG22       0.1354
     11  NH2      -12.2470   16.8120   34.9440 N.pl3  22  ARG22       0.1354
     12  N        -12.3990   12.1080   37.1370 N.am   23  THR23      -0.1953
     13  CA       -13.7880   11.9490   36.7490 C.3    23  THR23       0.1897
     14  C        -14.3710   10.6030   37.1430 C.2    23  THR23       0.2313
     15  O        -15.5900   10.4580   37.1910 O.2    23  THR23      -0.2863
     16  CB       -13.9820   12.1480   35.2260 C.3    23  THR23       0.1794
     17  OG1      -13.2400   11.1780   34.4930 O.3    23  THR23      -0.2208
     18  CG2      -13.5210   13.5090   34.8120 C.3    23  THR23       0.0378
     19  N        -18.9310   29.4820   21.8540 N.3    59  GLU59      -0.1245
     20  CA       -17.8880   29.3090   22.8960 C.3    59  GLU59       0.1567
     21  C        -16.6490   30.2490   22.6790 C.2    59  GLU59       0.2260
     22  O        -16.0620   30.7660   23.6470 O.2    59  GLU59      -0.2867
     23  CB       -17.4360   27.8580   23.0130 C.3    59  GLU59       0.0388
     24  CG       -16.6090   27.5810   24.2690 C.3    59  GLU59       0.1160
     25  CD       -15.8380   26.2520   24.2300 C.2    59  GLU59       0.3649
     26  OE1      -15.2940   25.8880   23.1650 O.co2  59  GLU59      -0.2457
     27  OE2      -15.7620   25.5470   25.2810 O.co2  59  GLU59      -0.2457
     28  N        -22.7480   22.9110   26.2120 N.3    80  ILE80      -0.1231
     29  CA       -21.4880   22.1970   26.4190 C.3    80  ILE80       0.1692
     30  C        -20.7830   22.5640   27.7230 C.2    80  ILE80       0.2592
     31  O        -19.9410   21.8170   28.2000 O.2    80  ILE80      -0.2718
     32  CB       -20.5050   22.3290   25.2300 C.3    80  ILE80       0.0266
     33  CG1      -19.9120   23.7440   25.1420 C.3    80  ILE80       0.0019
     34  CG2      -21.1660   21.8320   23.9390 C.3    80  ILE80       0.0020
     35  CD1      -18.9900   23.9760   23.9670 C.3    80  ILE80       0.0001
     36  N        -21.1260   23.7010   28.3050 N.am   81  TRP81      -0.1976
     37  CA       -20.5720   24.0630   29.5970 C.3    81  TRP81       0.1640
     38  C        -21.5270   23.8180   30.7840 C.2    81  TRP81       0.2290
     39  O        -21.1790   24.0610   31.9270 O.2    81  TRP81      -0.2864
     40  CB       -20.0760   25.4940   29.5280 C.3    81  TRP81       0.0576
     41  CG       -18.7230   25.5740   29.0020 C.ar   81  TRP81       0.0006
     42  CD1      -18.3480   25.8640   27.7210 C.ar   81  TRP81       0.0946
     43  CD2      -17.5180   25.3680   29.7370 C.ar   81  TRP81       0.0152
     44  NE1      -16.9740   25.8610   27.6210 N.ar   81  TRP81      -0.2442
     45  CE2      -16.4480   25.5550   28.8510 C.ar   81  TRP81       0.0810
     46  CE3      -17.2380   25.0390   31.0690 C.ar   81  TRP81       0.0012
     47  CZ2      -15.1270   25.4350   29.2560 C.ar   81  TRP81       0.0191
     48  CZ3      -15.9280   24.9020   31.4630 C.ar   81  TRP81       0.0001
     49  CH2      -14.8910   25.1030   30.5640 C.ar   81  TRP81       0.0015
     50  N         -8.8100   15.7120   26.0090 N.3   220  ASP220     -0.1239
     51  CA        -9.9060   14.7630   25.7920 C.3   220  ASP220      0.1674
     52  C        -10.0150   14.4980   24.3080 C.2   220  ASP220      0.2266
     53  O        -10.5810   15.2840   23.5720 O.2   220  ASP220     -0.2867
     54  CB       -11.2530   15.3550   26.2960 C.3   220  ASP220      0.1410
     55  CG       -12.4520   14.4110   26.0770 C.2   220  ASP220      0.3668
     56  OD1      -12.3930   13.4580   25.2670 O.co2 220  ASP220     -0.2456
     57  OD2      -13.4900   14.6200   26.7170 O.co2 220  ASP220     -0.2456
     58  N        -13.8460   13.8540   22.2990 N.3   223  LEU223     -0.1231
     59  CA       -14.8820   14.9200   22.4150 C.3   223  LEU223      0.1693
     60  C        -14.3640   16.3380   22.3210 C.2   223  LEU223      0.2592
     61  O        -14.9160   17.1530   21.5860 O.2   223  LEU223     -0.2718
     62  CB       -15.7470   14.7550   23.6920 C.3   223  LEU223      0.0284
     63  CG       -16.8630   13.7030   23.5520 C.3   223  LEU223      0.0019
     64  CD1      -17.6990   13.6140   24.8340 C.3   223  LEU223      0.0001
     65  CD2      -17.7430   13.9890   22.3180 C.3   223  LEU223      0.0001
     66  N        -13.2970   16.5960   23.0650 N.am  224  GLY224     -0.1957
     67  CA       -12.7540   17.9210   23.2190 C.3   224  GLY224      0.1869
     68  C        -11.8870   18.3900   22.0820 C.2   224  GLY224      0.2309
     69  O        -12.2000   19.3980   21.4720 O.2   224  GLY224     -0.2863
     70  N         -5.7450   11.9220   26.3240 N.3   258  HIS258     -0.1241
     71  CA        -6.4720   10.7560   26.7920 C.3   258  HIS258      0.1621
     72  C         -7.7080   10.4060   25.9780 C.2   258  HIS258      0.2264
     73  O         -8.4130   11.2620   25.4730 O.2   258  HIS258     -0.2867
     74  CB        -6.8540   10.8800   28.2740 C.3   258  HIS258      0.0745
     75  CG        -7.4510   12.1920   28.6300 C.ar  258  HIS258      0.0817
     76  ND1       -6.6850   13.2730   29.0090 N.ar  258  HIS258     -0.2268
     77  CD2       -8.7340   12.6110   28.6470 C.ar  258  HIS258      0.1154
     78  CE1       -7.4730   14.3010   29.2570 C.ar  258  HIS258      0.1986
     79  NE2       -8.7210   13.9310   29.0420 N.ar  258  HIS258     -0.2212
     80  N        -11.0040    8.5420   26.9230 N.3   260  TYR260     -0.1241
     81  CA       -11.9160    7.9760   27.8690 C.3   260  TYR260      0.1605
     82  C        -12.2610    6.5210   27.4860 C.2   260  TYR260      0.2264
     83  O        -12.5390    6.2210   26.3240 O.2   260  TYR260     -0.2867
     84  CB       -13.1460    8.9110   27.9480 C.3   260  TYR260      0.0534
     85  CG       -12.8270   10.1090   28.8160 C.ar  260  TYR260     -0.0201
     86  CD1      -12.7460    9.9560   30.2030 C.ar  260  TYR260     -0.0009
     87  CD2      -12.5060   11.3550   28.2640 C.ar  260  TYR260     -0.0009
     88  CE1      -12.3710   11.0110   31.0170 C.ar  260  TYR260      0.0417
     89  CE2      -12.1460   12.4280   29.0720 C.ar  260  TYR260      0.0417
     90  CZ       -12.0740   12.2500   30.4460 C.ar  260  TYR260      0.1957
     91  OH       -11.7330   13.2710   31.2920 O.3   260  TYR260     -0.2866
     92  N        -20.0470   12.7860   27.9060 N.3   313  ILE313     -0.1231
     93  CA       -19.1080   13.7060   28.5000 C.3   313  ILE313      0.1692
     94  C        -18.6620   13.2530   29.9220 C.2   313  ILE313      0.2591
     95  O        -19.4970   12.9440   30.7800 O.2   313  ILE313     -0.2718
     96  CB       -19.6600   15.1760   28.4410 C.3   313  ILE313      0.0266
     97  CG1      -18.5880   16.1890   28.8410 C.3   313  ILE313      0.0019
     98  CG2      -20.9170   15.3900   29.2800 C.3   313  ILE313      0.0020
     99  CD1      -17.4340   16.2380   27.8640 C.3   313  ILE313      0.0001
    100  N        -17.3440   13.1920   30.1570 N.am  314  ALA314     -0.1980
    101  CA       -16.8050   12.9610   31.5190 C.3   314  ALA314      0.1597
    102  C        -17.0050   14.1670   32.5080 C.2   314  ALA314      0.2287
    103  O        -16.7390   15.3210   32.1770 O.2   314  ALA314     -0.2864
    104  CB       -15.3440   12.5380   31.4630 C.3   314  ALA314      0.0319
@<TRIPOS>BOND
     1    69    68    2
     2    61    60    2
     3    19    20    1
     4    68    67    1
     5    58    59    1
     6    65    63    1
     7    60    59    1
     8    60    66   am
     9    59    62    1
    10    21    20    1
    11    21    22    2
    12    20    23    1
    13    23    24    1
    14    66    67    1
    15    26    25   ar
    16    63    62    1
    17    63    64    1
    18    53    52    2
    19    34    32    1
    20    35    33    1
    21    25    24    1
    22    25    27   ar
    23    52    51    1
    24    33    32    1
    25    32    29    1
    26    56    55   ar
    27    73    72    2
    28    51    50    1
    29    51    54    1
    30    72    71    1
    31    55    54    1
    32    55    57   ar
    33    28    29    1
    34    83    82    2
    35    70    71    1
    36    29    30    1
    37    71    74    1
    38    80    81    1
    39    82    81    1
    40    44    42   ar
    41    44    45   ar
    42    42    41   ar
    43    30    31    2
    44    30    36   am
    45    99    97    1
    46    81    84    1
    47    92    93    1
    48    84    85    1
    49    87    85   ar
    50    87    89   ar
    51    74    75    1
    52    36    37    1
    53    96    93    1
    54    96    97    1
    55    96    98    1
    56    93    94    1
    57    75    77   ar
    58    75    76   ar
    59    77    79   ar
    60    85    86   ar
    61    45    47   ar
    62    45    43   ar
    63    41    40    1
    64    41    43   ar
    65    76    78   ar
    66    79    78   ar
    67    89    90   ar
    68    47    49   ar
    69    40    37    1
    70    37    38    1
    71    43    46   ar
    72    94   100   am
    73    94    95    2
    74   100   101    1
    75    86    88   ar
    76    90    88   ar
    77    90    91    1
    78    49    48   ar
    79    38    39    2
    80    46    48   ar
    81   104   101    1
    82   101   102    1
    83   103   102    2
    84    17    16    1
    85    18    16    1
    86    11     9    1
    87    16    13    1
    88     9    10    1
    89     9     8    2
    90    13    12    1
    91    13    14    1
    92     8     7    1
    93    12     3   am
    94    14    15    2
    95     1     2    1
    96     5     2    1
    97     5     6    1
    98     3     2    1
    99     3     4    2
   100     7     6    1
