@<TRIPOS>MOLECULE
tmp/5j7xA01.pdb
 97 92 0 0 0
SMALL
GASTEIGER

@<TRIPOS>ATOM
      1  N        134.0450  198.4660   50.8350 N.3   181  ILE181     -0.1231
      2  CA       133.9040  197.0090   50.8760 C.3   181  ILE181      0.1692
      3  C        133.7520  196.5590   49.4450 C.2   181  ILE181      0.2593
      4  O        132.8300  196.8900   48.7720 O.2   181  ILE181     -0.2718
      5  CB       132.6570  196.6740   51.6750 C.3   181  ILE181      0.0266
      6  CG1      132.9620  197.0910   53.1730 C.3   181  ILE181      0.0019
      7  CG2      132.4760  195.0750   51.6600 C.3   181  ILE181      0.0020
      8  CD1      131.7010  197.1470   53.9160 C.3   181  ILE181      0.0001
      9  N        134.7580  195.9010   48.9110 N.am  182  GLY182     -0.1942
     10  CA       134.7580  195.4060   47.5670 C.3   182  GLY182      0.2014
     11  C        135.9620  195.9350   46.7880 C.2   182  GLY182      0.2640
     12  O        136.3920  197.1090   47.0180 O.2   182  GLY182     -0.2714
     13  N        136.5900  195.0950   45.9660 N.am  183  THR183     -0.1936
     14  CA       137.8190  195.3970   45.2470 C.3   183  THR183      0.2028
     15  C        137.7280  195.1550   43.7520 C.2   183  THR183      0.2642
     16  O        138.7780  195.0170   43.1170 O.2   183  THR183     -0.2714
     17  CB       139.0840  194.6340   45.7310 C.3   183  THR183      0.1808
     18  OG1      138.7860  193.2610   45.7010 O.3   183  THR183     -0.2208
     19  CG2      139.3280  195.0510   47.1910 C.3   183  THR183      0.0379
     20  N        136.5340  195.2960   43.1730 N.am  184  GLY184     -0.1954
     21  CA       136.4110  195.3500   41.7090 C.3   184  GLY184      0.1869
     22  C        136.8360  196.7680   41.2980 C.2   184  GLY184      0.2309
     23  O        137.2880  197.5760   42.1330 O.2   184  GLY184     -0.2863
     24  N        138.3380  196.7500   52.5080 N.3   204  PHE204     -0.1227
     25  CA       138.0000  195.3850   52.8660 C.3   204  PHE204      0.1736
     26  C        138.0300  194.5340   51.6280 C.2   204  PHE204      0.2595
     27  O        137.2120  194.6650   50.7310 O.2   204  PHE204     -0.2718
     28  CB       136.6240  195.3120   53.5550 C.3   204  PHE204      0.0547
     29  CG       136.6430  195.9050   54.8950 C.ar  204  PHE204     -0.0202
     30  CD1      136.5000  197.3220   55.0980 C.ar  204  PHE204     -0.0042
     31  CD2      136.8090  195.0980   56.0080 C.ar  204  PHE204     -0.0042
     32  CE1      136.5420  197.8390   56.3860 C.ar  204  PHE204     -0.0003
     33  CE2      136.8280  195.6510   57.3460 C.ar  204  PHE204     -0.0003
     34  CZ       136.7140  197.0000   57.5420 C.ar  204  PHE204     -0.0000
     35  N        138.9910  193.6300   51.6280 N.am  205  GLN205     -0.1965
     36  CA       139.3330  192.8840   50.4390 C.3   205  GLN205      0.1733
     37  C        139.2940  191.3270   50.7240 C.2   205  GLN205      0.2616
     38  O        139.9160  190.8320   51.5790 O.2   205  GLN205     -0.2715
     39  CB       140.7680  193.1660   50.0570 C.3   205  GLN205      0.0408
     40  CG       141.2210  192.3130   48.9510 C.3   205  GLN205      0.0908
     41  CD       142.6820  192.5530   48.5340 C.2   205  GLN205      0.2608
     42  OE1      143.0430  193.5110   47.7740 O.2   205  GLN205     -0.2717
     43  NE2      143.4970  191.5660   48.9000 N.am  205  GLN205     -0.0878
     44  N        138.4930  190.6740   49.9460 N.am  206  ARG206     -0.1963
     45  CA       138.4310  189.2440   49.8600 C.3   206  ARG206      0.1729
     46  C        139.4130  188.6200   48.8880 C.2   206  ARG206      0.2616
     47  O        139.9900  187.7060   49.2420 O.2   206  ARG206     -0.2715
     48  CB       137.0040  188.7790   49.5050 C.3   206  ARG206      0.0348
     49  CG       136.8660  187.2480   49.6410 C.3   206  ARG206      0.0492
     50  CD       135.4090  186.8530   49.6340 C.3   206  ARG206      0.2205
     51  NE       134.5120  187.6770   48.7710 N.pl3 206  ARG206     -0.0865
     52  CZ       133.1500  187.6190   48.8170 C.cat 206  ARG206      0.5346
     53  NH1      132.5300  186.8160   49.7050 N.pl3 206  ARG206      0.1354
     54  NH2      132.3670  188.3350   47.9930 N.pl3 206  ARG206      0.1354
     55  N        139.5720  189.1070   47.7050 N.am  207  THR207     -0.1951
     56  CA       140.5670  188.6450   46.7270 C.3   207  THR207      0.1897
     57  C        141.2540  189.8150   46.1470 C.2   207  THR207      0.2313
     58  O        140.5530  190.7920   45.7440 O.2   207  THR207     -0.2863
     59  CB       139.8740  188.1250   45.3970 C.3   207  THR207      0.1794
     60  OG1      138.8930  187.2880   45.8580 O.3   207  THR207     -0.2208
     61  CG2      140.8980  187.3630   44.5380 C.3   207  THR207      0.0378
     62  N        139.4840  190.0150   54.2910 N.3   340  THR340     -0.1218
     63  CA       138.1640  189.4240   54.7000 C.3   340  THR340      0.1862
     64  C        138.0180  187.9620   54.2300 C.2   340  THR340      0.2287
     65  O        136.9820  187.3790   54.4570 O.2   340  THR340     -0.2866
     66  CB       136.9670  190.1940   54.1350 C.3   340  THR340      0.1770
     67  OG1      137.0160  190.2440   52.7000 O.3   340  THR340     -0.2211
     68  CG2      136.9440  191.5690   54.7920 C.3   340  THR340      0.0375
     69  N        130.7770  198.5910   47.5610 N.3   369  ALA369     -0.1231
     70  CA       131.0930  198.6800   46.1530 C.3   369  ALA369      0.1694
     71  C        130.8850  197.2730   45.5500 C.2   369  ALA369      0.2589
     72  O        131.8140  196.5400   45.3010 O.2   369  ALA369     -0.2718
     73  CB       132.5790  199.1760   45.9950 C.3   369  ALA369      0.0304
     74  N        129.6460  196.8030   45.5820 N.am  370  THR370     -0.2006
     75  CA       129.2740  195.5230   45.0320 C.3   370  THR370      0.1584
     76  C        129.5590  195.5110   43.4960 C.3   370  THR370      0.2062
     77  O        129.7540  194.3450   42.9840 O.3   370  THR370     -0.2184
     78  CB       127.7850  195.2620   45.1310 C.3   370  THR370      0.1745
     79  OG1      127.0740  196.3870   44.5080 O.3   370  THR370     -0.2212
     80  CG2      127.3340  194.9210   46.6300 C.3   370  THR370      0.0374
     81  N        133.1610  181.1450   42.3270 N.3   486  MET486     -0.1245
     82  CA       132.4450  182.2580   43.1250 C.3   486  MET486      0.1570
     83  C        130.9270  182.3170   42.7990 C.2   486  MET486      0.2261
     84  O        130.0730  182.2880   43.6460 O.2   486  MET486     -0.2867
     85  CB       132.9880  183.5720   42.7650 C.3   486  MET486      0.0387
     86  CG       134.4670  183.4990   42.8190 C.3   486  MET486      0.0595
     87  SD       134.9070  183.6970   44.5000 S.3   486  MET486     -0.1393
     88  CE       135.1780  185.3660   43.6510 C.3   486  MET486      0.0692
     89  N        127.4310  186.4550   44.5530 N.3   493  LYS493     -0.1245
     90  CA       128.3460  186.5110   43.4270 C.3   493  LYS493      0.1561
     91  C        127.4870  185.8740   42.3680 C.2   493  LYS493      0.2260
     92  O        127.1640  184.7370   42.4300 O.2   493  LYS493     -0.2867
     93  CB       129.6330  185.7300   43.6380 C.3   493  LYS493      0.0271
     94  CG       130.5910  186.3470   44.7080 C.3   493  LYS493      0.0035
     95  CD       131.2530  187.6920   44.3380 C.3   493  LYS493      0.0206
     96  CE       132.1650  187.6130   43.1130 C.3   493  LYS493      0.1093
     97  NZ       132.8120  188.8880   42.6400 N.3   493  LYS493     -0.1314
@<TRIPOS>BOND
     1    22    21    1
     2    22    23    2
     3    21    20    1
     4    81    82    1
     5    91    92    2
     6    91    90    1
     7    97    96    1
     8    85    86    1
     9    85    82    1
    10    83    82    1
    11    83    84    2
    12    86    87    1
    13    77    76    1
    14    96    95    1
    15    16    15    2
    16    20    15   am
    17    90    93    1
    18    90    89    1
    19    76    75    1
    20    93    94    1
    21    88    87    1
    22    15    14    1
    23    95    94    1
    24    79    78    1
    25    61    59    1
    26    75    78    1
    27    75    74    1
    28    78    80    1
    29    14    17    1
    30    14    13    1
    31    72    71    2
    32    59    60    1
    33    59    56    1
    34    71    74   am
    35    71    70    1
    36    18    17    1
    37    17    19    1
    38    58    57    2
    39    13    11   am
    40    73    70    1
    41    57    56    1
    42    70    69    1
    43    56    55    1
    44    11    12    2
    45    11    10    1
    46    10     9    1
    47    55    46   am
    48    42    41    2
    49    54    52    1
    50    41    43   am
    51    41    40    1
    52    51    52    2
    53    51    50    1
    54     4     3    2
    55    52    53    1
    56    46    47    2
    57    46    45    1
    58     9     3   am
    59    40    39    1
    60     3     2    1
    61    48    49    1
    62    48    45    1
    63    50    49    1
    64    45    44    1
    65    44    37   am
    66    39    36    1
    67    36    37    1
    68    36    35    1
    69    37    38    2
    70    27    26    2
    71     1     2    1
    72     2     5    1
    73    35    26   am
    74    26    25    1
    75     7     5    1
    76     5     6    1
    77    24    25    1
    78    67    66    1
    79    25    28    1
    80     6     8    1
    81    28    29    1
    82    66    63    1
    83    66    68    1
    84    64    65    2
    85    64    63    1
    86    62    63    1
    87    29    30   ar
    88    29    31   ar
    89    30    32   ar
    90    31    33   ar
    91    32    34   ar
    92    33    34   ar
