@<TRIPOS>MOLECULE
tmp/5j7zA04.pdb
 172 169 0 0 0
SMALL
GASTEIGER

@<TRIPOS>ATOM
      1  N         -3.1160  -18.4370  -34.1500 N.3   134  PHE134     -0.1228
      2  CA        -2.4240  -19.3560  -33.2490 C.3   134  PHE134      0.1721
      3  C         -3.3690  -19.9790  -32.2220 C.2   134  PHE134      0.2437
      4  O         -4.1260  -19.2620  -31.5840 O.2   134  PHE134     -0.2733
      5  CB        -1.3120  -18.6180  -32.5140 C.3   134  PHE134      0.0547
      6  CG        -0.5900  -19.4690  -31.5100 C.ar  134  PHE134     -0.0202
      7  CD1        0.5000  -20.2480  -31.8810 C.ar  134  PHE134     -0.0042
      8  CD2       -1.0240  -19.5200  -30.1980 C.ar  134  PHE134     -0.0042
      9  CE1        1.1650  -21.0340  -30.9470 C.ar  134  PHE134     -0.0003
     10  CE2       -0.3770  -20.3110  -29.2640 C.ar  134  PHE134     -0.0003
     11  CZ         0.7280  -21.0560  -29.6390 C.ar  134  PHE134     -0.0000
     12  N         -3.2940  -21.3050  -32.0160 N.am  135  PRO135     -0.2718
     13  CA        -2.4020  -22.3020  -32.6040 C.3   135  PRO135      0.1535
     14  C         -3.0020  -23.1300  -33.7300 C.2   135  PRO135      0.2598
     15  O         -2.2960  -23.9670  -34.2990 O.2   135  PRO135     -0.2715
     16  CB        -2.1360  -23.2340  -31.4330 C.3   135  PRO135      0.0310
     17  CG        -3.4570  -23.2570  -30.7230 C.3   135  PRO135      0.0237
     18  CD        -3.9660  -21.8380  -30.8170 C.3   135  PRO135      0.0939
     19  N         -4.2750  -22.9290  -34.0470 N.am  136  LEU136     -0.1978
     20  CA        -4.9190  -23.8270  -34.9970 C.3   136  LEU136      0.1596
     21  C         -4.5240  -23.5950  -36.4490 C.2   136  LEU136      0.2287
     22  O         -4.7720  -24.4630  -37.3060 O.2   136  LEU136     -0.2864
     23  CB        -6.4260  -23.8490  -34.8300 C.3   136  LEU136      0.0297
     24  CG        -6.8950  -24.3640  -33.4710 C.3   136  LEU136      0.0022
     25  CD1       -8.3960  -24.5000  -33.4900 C.3   136  LEU136      0.0001
     26  CD2       -6.2750  -25.6890  -33.0970 C.3   136  LEU136      0.0001
     27  N         -1.9310  -24.1870  -37.7800 N.3   138  TYR138     -0.1227
     28  CA        -1.1470  -25.3250  -38.2660 C.3   138  TYR138      0.1736
     29  C         -1.9830  -26.3490  -39.0440 C.2   138  TYR138      0.2595
     30  O         -1.4220  -27.2350  -39.6950 O.2   138  TYR138     -0.2718
     31  CB        -0.4400  -26.0510  -37.1200 C.3   138  TYR138      0.0548
     32  CG         0.7450  -25.3270  -36.5420 C.ar  138  TYR138     -0.0200
     33  CD1        2.0050  -25.4660  -37.1030 C.ar  138  TYR138     -0.0009
     34  CD2        0.6180  -24.5080  -35.4300 C.ar  138  TYR138     -0.0009
     35  CE1        3.1060  -24.7990  -36.5800 C.ar  138  TYR138      0.0417
     36  CE2        1.7170  -23.8450  -34.8970 C.ar  138  TYR138      0.0417
     37  CZ         2.9560  -24.0130  -35.4650 C.ar  138  TYR138      0.1957
     38  OH         4.0590  -23.3910  -34.9440 O.3   138  TYR138     -0.2866
     39  N         -3.3060  -26.2560  -38.9400 N.am  139  LEU139     -0.1980
     40  CA        -4.1940  -27.0720  -39.7540 C.3   139  LEU139      0.1596
     41  C         -4.5600  -26.4670  -41.1170 C.2   139  LEU139      0.2287
     42  O         -5.3040  -27.0890  -41.8740 O.2   139  LEU139     -0.2864
     43  CB        -5.4640  -27.3730  -38.9600 C.3   139  LEU139      0.0297
     44  CG        -5.2130  -28.2690  -37.7390 C.3   139  LEU139      0.0022
     45  CD1       -6.4790  -28.4350  -36.9120 C.3   139  LEU139      0.0001
     46  CD2       -4.6870  -29.6320  -38.1640 C.3   139  LEU139      0.0001
     47  N          9.4000  -25.7610  -32.2320 N.3   186  GLU186     -0.1245
     48  CA         8.1460  -26.4600  -32.5960 C.3   186  GLU186      0.1567
     49  C          7.9790  -26.8540  -34.0500 C.2   186  GLU186      0.2260
     50  O          7.0640  -26.3850  -34.7240 O.2   186  GLU186     -0.2867
     51  CB         6.9630  -25.6440  -32.1020 C.3   186  GLU186      0.0388
     52  CG         7.0440  -25.6210  -30.5890 C.3   186  GLU186      0.1160
     53  CD         5.8900  -24.9730  -29.9130 C.2   186  GLU186      0.3649
     54  OE1        5.2960  -24.0530  -30.5190 O.co2 186  GLU186     -0.2457
     55  OE2        5.6140  -25.3920  -28.7530 O.co2 186  GLU186     -0.2457
     56  N          6.7670  -28.5180  -37.1880 N.3   188  TRP188     -0.1241
     57  CA         5.5090  -29.1820  -37.5930 C.3   188  TRP188      0.1605
     58  C          5.7690  -30.0700  -38.8260 C.2   188  TRP188      0.2264
     59  O          6.4570  -29.6480  -39.7500 O.2   188  TRP188     -0.2867
     60  CB         4.4830  -28.1110  -37.9220 C.3   188  TRP188      0.0550
     61  CG         3.1500  -28.5910  -38.3160 C.ar  188  TRP188      0.0003
     62  CD1        2.5570  -28.4610  -39.5430 C.ar  188  TRP188      0.0946
     63  CD2        2.1990  -29.2480  -37.4680 C.ar  188  TRP188      0.0152
     64  NE1        1.2920  -29.0270  -39.5140 N.ar  188  TRP188     -0.2442
     65  CE2        1.0490  -29.5010  -38.2440 C.ar  188  TRP188      0.0810
     66  CE3        2.2050  -29.6270  -36.1240 C.ar  188  TRP188      0.0012
     67  CZ2       -0.0850  -30.1310  -37.7130 C.ar  188  TRP188      0.0191
     68  CZ3        1.0890  -30.2650  -35.5970 C.ar  188  TRP188      0.0001
     69  CH2       -0.0420  -30.5120  -36.3920 C.ar  188  TRP188      0.0015
     70  N          1.2540  -34.8200  -41.2040 N.3   193  PHE193     -0.1227
     71  CA         1.0590  -34.8490  -39.7540 C.3   193  PHE193      0.1736
     72  C          0.1260  -35.9400  -39.2210 C.2   193  PHE193      0.2595
     73  O          0.3730  -36.4370  -38.1330 O.2   193  PHE193     -0.2718
     74  CB         0.6440  -33.4790  -39.2170 C.3   193  PHE193      0.0547
     75  CG        -0.8070  -33.1710  -39.4050 C.ar  193  PHE193     -0.0202
     76  CD1       -1.7370  -33.5210  -38.4320 C.ar  193  PHE193     -0.0042
     77  CD2       -1.2450  -32.5230  -40.5470 C.ar  193  PHE193     -0.0042
     78  CE1       -3.0780  -33.2340  -38.6070 C.ar  193  PHE193     -0.0003
     79  CE2       -2.5850  -32.2340  -40.7300 C.ar  193  PHE193     -0.0003
     80  CZ        -3.5040  -32.5950  -39.7570 C.ar  193  PHE193     -0.0000
     81  N         -0.9060  -36.3430  -39.9590 N.am  194  LEU194     -0.1980
     82  CA        -1.7880  -37.4300  -39.4820 C.3   194  LEU194      0.1596
     83  C         -1.1150  -38.7800  -39.3590 C.2   194  LEU194      0.2287
     84  O         -1.6010  -39.6380  -38.6220 O.2   194  LEU194     -0.2864
     85  CB        -3.0520  -37.6030  -40.3450 C.3   194  LEU194      0.0297
     86  CG        -4.2270  -36.6620  -40.1140 C.3   194  LEU194      0.0022
     87  CD1       -5.3620  -37.0060  -41.0630 C.3   194  LEU194      0.0001
     88  CD2       -4.7090  -36.6830  -38.6720 C.3   194  LEU194      0.0001
     89  N         -0.2500  -39.7200  -35.6900 N.3   197  PHE197     -0.1241
     90  CA        -1.2810  -40.1020  -34.7460 C.3   197  PHE197      0.1605
     91  C         -1.8380  -41.4660  -35.1430 C.2   197  PHE197      0.2264
     92  O         -1.9480  -41.7300  -36.3220 O.2   197  PHE197     -0.2867
     93  CB        -2.3960  -39.0630  -34.7230 C.3   197  PHE197      0.0534
     94  CG        -1.9500  -37.7000  -34.2770 C.ar  197  PHE197     -0.0203
     95  CD1       -1.4630  -36.7820  -35.1860 C.ar  197  PHE197     -0.0042
     96  CD2       -2.0220  -37.3380  -32.9490 C.ar  197  PHE197     -0.0042
     97  CE1       -1.0590  -35.5330  -34.7780 C.ar  197  PHE197     -0.0003
     98  CE2       -1.6210  -36.0900  -32.5330 C.ar  197  PHE197     -0.0003
     99  CZ        -1.1400  -35.1830  -33.4500 C.ar  197  PHE197     -0.0000
    100  N          6.7880  -31.3870  -33.0840 N.3   234  VAL234     -0.1245
    101  CA         5.8450  -30.7840  -32.1400 C.3   234  VAL234      0.1561
    102  C          4.5260  -31.5570  -31.9410 C.2   234  VAL234      0.2260
    103  O          3.7040  -31.1480  -31.1160 O.2   234  VAL234     -0.2867
    104  CB         5.5930  -29.2950  -32.4870 C.3   234  VAL234      0.0252
    105  CG1        4.5850  -29.1440  -33.6070 C.3   234  VAL234      0.0019
    106  CG2        5.1520  -28.4970  -31.2710 C.3   234  VAL234      0.0019
    107  N          3.6410  -32.2820  -28.4670 N.3   237  ASN237     -0.1225
    108  CA         2.7550  -31.4770  -27.6320 C.3   237  ASN237      0.1785
    109  C          1.3020  -31.9730  -27.6730 C.2   237  ASN237      0.2597
    110  O          0.4910  -31.5670  -26.8450 O.2   237  ASN237     -0.2718
    111  CB         2.8100  -29.9940  -28.0420 C.3   237  ASN237      0.1169
    112  CG         4.0860  -29.2990  -27.6000 C.2   237  ASN237      0.2627
    113  OD1        4.8800  -29.8430  -26.8580 O.2   237  ASN237     -0.2716
    114  ND2        4.2600  -28.0630  -28.0400 N.am  237  ASN237     -0.0877
    115  N          0.9820  -32.8340  -28.6400 N.am  238  GLN238     -0.1979
    116  CA        -0.3060  -33.5280  -28.6720 C.3   238  GLN238      0.1601
    117  C         -0.1270  -35.0020  -28.2970 C.2   238  GLN238      0.2287
    118  O         -0.8130  -35.8720  -28.8340 O.2   238  GLN238     -0.2864
    119  CB        -0.9550  -33.3850  -30.0490 C.3   238  GLN238      0.0394
    120  CG        -1.2120  -31.9370  -30.4490 C.3   238  GLN238      0.0908
    121  CD        -0.0100  -31.2920  -31.1350 C.2   238  GLN238      0.2608
    122  OE1        0.5730  -31.8690  -32.0600 O.2   238  GLN238     -0.2717
    123  NE2        0.3590  -30.0950  -30.6960 N.am  238  GLN238     -0.0878
    124  N          3.6180  -28.7080  -21.9240 N.3   265  TYR265     -0.1241
    125  CA         2.3960  -27.9260  -21.7540 C.3   265  TYR265      0.1605
    126  C          1.2170  -28.8070  -21.3830 C.2   265  TYR265      0.2264
    127  O          1.1870  -29.9940  -21.7160 O.2   265  TYR265     -0.2867
    128  CB         2.0710  -27.1660  -23.0260 C.3   265  TYR265      0.0534
    129  CG         2.9550  -25.9710  -23.2340 C.ar  265  TYR265     -0.0201
    130  CD1        2.6860  -24.7910  -22.5640 C.ar  265  TYR265     -0.0009
    131  CD2        4.0730  -26.0170  -24.0830 C.ar  265  TYR265     -0.0009
    132  CE1        3.4750  -23.6810  -22.7280 C.ar  265  TYR265      0.0417
    133  CE2        4.8840  -24.8860  -24.2450 C.ar  265  TYR265      0.0417
    134  CZ         4.5630  -23.7270  -23.5540 C.ar  265  TYR265      0.1957
    135  OH         5.2830  -22.5670  -23.6600 O.3   265  TYR265     -0.2866
    136  N         -2.4700  -29.3100  -22.3160 N.3   267  ILE267     -0.1245
    137  CA        -3.3750  -29.0170  -23.4100 C.3   267  ILE267      0.1561
    138  C         -4.6210  -28.2270  -22.9600 C.2   267  ILE267      0.2260
    139  O         -4.9220  -27.1690  -23.5110 O.2   267  ILE267     -0.2867
    140  CB        -3.7540  -30.3210  -24.1610 C.3   267  ILE267      0.0252
    141  CG1       -2.5240  -30.8500  -24.9210 C.3   267  ILE267      0.0019
    142  CG2       -4.9160  -30.0810  -25.1170 C.3   267  ILE267      0.0019
    143  CD1       -2.5280  -32.3470  -25.2060 C.3   267  ILE267      0.0001
    144  N         -3.8170  -24.6780  -22.2240 N.3   270  GLN270     -0.1231
    145  CA        -3.5770  -23.8990  -23.4390 C.3   270  GLN270      0.1698
    146  C         -4.8680  -23.6230  -24.2420 C.2   270  GLN270      0.2592
    147  O         -5.0680  -22.5350  -24.7880 O.2   270  GLN270     -0.2718
    148  CB        -2.5300  -24.6320  -24.2850 C.3   270  GLN270      0.0381
    149  CG        -1.1350  -24.5930  -23.6650 C.3   270  GLN270      0.0905
    150  CD        -0.4870  -23.2170  -23.7860 C.2   270  GLN270      0.2608
    151  OE1       -0.3820  -22.4710  -22.8110 O.2   270  GLN270     -0.2717
    152  NE2       -0.0990  -22.8600  -24.9750 N.am  270  GLN270     -0.0878
    153  N         -5.7340  -24.6210  -24.3110 N.am  271  LEU271     -0.1980
    154  CA        -7.0670  -24.4760  -24.9260 C.3   271  LEU271      0.1596
    155  C         -7.9250  -23.4100  -24.2590 C.2   271  LEU271      0.2287
    156  O         -8.6760  -22.6960  -24.9250 O.2   271  LEU271     -0.2864
    157  CB        -7.8170  -25.7970  -24.8290 C.3   271  LEU271      0.0297
    158  CG        -7.3170  -26.9450  -25.7080 C.3   271  LEU271      0.0022
    159  CD1       -8.1250  -28.2060  -25.4100 C.3   271  LEU271      0.0001
    160  CD2       -7.4060  -26.5910  -27.1730 C.3   271  LEU271      0.0001
    161  N         -6.1630  -19.9390  -25.3650 N.3   274  TYR274     -0.1241
    162  CA        -6.2660  -19.5310  -26.7840 C.3   274  TYR274      0.1605
    163  C         -7.6470  -19.7240  -27.4130 C.2   274  TYR274      0.2264
    164  O         -8.0050  -18.9990  -28.3350 O.2   274  TYR274     -0.2867
    165  CB        -5.1370  -20.1610  -27.6220 C.3   274  TYR274      0.0534
    166  CG        -3.8050  -19.6770  -27.0910 C.ar  274  TYR274     -0.0201
    167  CD1       -3.3460  -18.3810  -27.3720 C.ar  274  TYR274     -0.0009
    168  CD2       -3.0650  -20.4560  -26.2140 C.ar  274  TYR274     -0.0009
    169  CE1       -2.1540  -17.9120  -26.8390 C.ar  274  TYR274      0.0417
    170  CE2       -1.8770  -19.9910  -25.6660 C.ar  274  TYR274      0.0417
    171  CZ        -1.4210  -18.7240  -25.9750 C.ar  274  TYR274      0.1957
    172  OH        -0.2430  -18.2740  -25.4110 O.3   274  TYR274     -0.2866
@<TRIPOS>BOND
     1    42    41    2
     2    70    71    1
     3    41    40    1
     4    87    86    1
     5    79    77   ar
     6    79    80   ar
     7    77    75   ar
     8    85    86    1
     9    85    82    1
    10    86    88    1
    11    81    82    1
    12    81    72   am
    13    80    78   ar
    14    71    72    1
    15    71    74    1
    16    40    43    1
    17    40    39    1
    18    59    58    2
    19    30    29    2
    20    62    64   ar
    21    62    61   ar
    22    64    65   ar
    23    82    83    1
    24    75    74    1
    25    75    76   ar
    26    83    84    2
    27    72    73    2
    28    29    39   am
    29    29    28    1
    30    43    44    1
    31    58    57    1
    32    78    76   ar
    33    61    60    1
    34    61    63   ar
    35    28    27    1
    36    28    31    1
    37    65    67   ar
    38    65    63   ar
    39    46    44    1
    40    60    57    1
    41    44    45    1
    42    67    69   ar
    43    57    56    1
    44    63    66   ar
    45    22    21    2
    46    31    32    1
    47    33    35   ar
    48    33    32   ar
    49    35    37   ar
    50    32    34   ar
    51    21    20    1
    52    69    68   ar
    53    92    91    2
    54    66    68   ar
    55    89    90    1
    56    37    38    1
    57    37    36   ar
    58    34    36   ar
    59    95    97   ar
    60    95    94   ar
    61    91    90    1
    62    20    23    1
    63    20    19    1
    64    23    24    1
    65    97    99   ar
    66    90    93    1
    67    50    49    2
    68    93    94    1
    69    15    14    2
    70    94    96   ar
    71     1     2    1
    72    49    48    1
    73    19    14   am
    74    14    13    1
    75   105   104    1
    76    25    24    1
    77    24    26    1
    78    99    98   ar
    79     2     5    1
    80     2     3    1
    81   100   101    1
    82    96    98   ar
    83    13    12    1
    84    13    16    1
    85    48    47    1
    86    48    51    1
    87     5     6    1
    88   104   101    1
    89   104   106    1
    90     3    12   am
    91     3     4    2
    92   101   102    1
    93    51    52    1
    94   122   121    2
    95    12    18    1
    96   102   103    2
    97     7     6   ar
    98     7     9   ar
    99     6     8   ar
   100    16    17    1
   101   121   123   am
   102   121   120    1
   103     9    11   ar
   104    18    17    1
   105    52    53    1
   106    54    53   ar
   107   120   119    1
   108     8    10   ar
   109   119   116    1
   110    53    55   ar
   111    11    10   ar
   112   118   117    2
   113   116   115    1
   114   116   117    1
   115   115   109   am
   116   107   108    1
   117   164   163    2
   118   111   108    1
   119   111   112    1
   120   114   112   am
   121   109   108    1
   122   109   110    2
   123   165   166    1
   124   165   162    1
   125   112   113    2
   126   163   162    1
   127   167   166   ar
   128   167   169   ar
   129   160   158    1
   130   166   168   ar
   131   169   171   ar
   132   162   161    1
   133   168   170   ar
   134   171   170   ar
   135   171   172    1
   136   158   159    1
   137   158   157    1
   138   143   141    1
   139   142   140    1
   140   152   150   am
   141   154   157    1
   142   154   153    1
   143   154   155    1
   144   156   155    2
   145   141   140    1
   146   147   146    2
   147   153   146   am
   148   148   149    1
   149   148   145    1
   150   133   131   ar
   151   133   134   ar
   152   146   145    1
   153   140   137    1
   154   131   129   ar
   155   150   149    1
   156   150   151    2
   157   135   134    1
   158   134   132   ar
   159   139   138    2
   160   145   144    1
   161   137   138    1
   162   137   136    1
   163   129   128    1
   164   129   130   ar
   165   128   125    1
   166   132   130   ar
   167   124   125    1
   168   125   126    1
   169   127   126    2
