@<TRIPOS>MOLECULE
tmp/5j81A02.pdb
 74 69 0 0 0
SMALL
GASTEIGER

@<TRIPOS>ATOM
      1  N          2.3470   22.6100  124.3630 N.3   317  ASP317     -0.1225
      2  CA         3.3990   22.0370  123.5410 C.3   317  ASP317      0.1805
      3  C          3.0450   22.2500  122.0750 C.2   317  ASP317      0.2598
      4  O          1.8680   22.2550  121.7030 O.2   317  ASP317     -0.2718
      5  CB         3.5800   20.5460  123.8310 C.3   317  ASP317      0.1424
      6  CG         4.9460   20.2280  124.3920 C.2   317  ASP317      0.3668
      7  OD1        5.8760   20.0140  123.5880 O.co2 317  ASP317     -0.2456
      8  OD2        5.0940   20.2050  125.6320 O.co2 317  ASP317     -0.2456
      9  N          4.0700   22.4340  121.2410 N.am  318  LEU318     -0.1966
     10  CA         3.8740   22.8130  119.8480 C.3   318  LEU318      0.1728
     11  C          4.6060   21.8600  118.9160 C.2   318  LEU318      0.2616
     12  O          5.6830   21.3510  119.2340 O.2   318  LEU318     -0.2715
     13  CB         4.3730   24.2380  119.5590 C.3   318  LEU318      0.0311
     14  CG         4.0370   25.3720  120.5200 C.3   318  LEU318      0.0022
     15  CD1        5.2110   25.6100  121.4540 C.3   318  LEU318      0.0001
     16  CD2        3.6930   26.6340  119.7480 C.3   318  LEU318      0.0001
     17  N          4.0130   21.6470  117.7450 N.am  319  ALA319     -0.1963
     18  CA         4.6640   20.9560  116.6440 C.3   319  ALA319      0.1728
     19  C          4.2940   21.6750  115.3580 C.2   319  ALA319      0.2617
     20  O          3.1590   22.1320  115.2040 O.2   319  ALA319     -0.2715
     21  CB         4.2530   19.4800  116.5670 C.3   319  ALA319      0.0334
     22  N          5.2540   21.7940  114.4470 N.am  320  THR320     -0.1937
     23  CA         5.0080   22.4390  113.1640 C.3   320  THR320      0.2028
     24  C          4.5690   21.3800  112.1560 C.2   320  THR320      0.2642
     25  O          5.3370   20.4720  111.8240 O.2   320  THR320     -0.2714
     26  CB         6.2510   23.1850  112.6800 C.3   320  THR320      0.1808
     27  OG1        6.4630   24.3330  113.5130 O.3   320  THR320     -0.2208
     28  CG2        6.0570   23.6480  111.2410 C.3   320  THR320      0.0379
     29  N          3.3290   21.5020  111.6780 N.am  321  ALA321     -0.1977
     30  CA         2.6970   20.4670  110.8650 C.3   321  ALA321      0.1597
     31  C          3.0030   20.6110  109.3770 C.2   321  ALA321      0.2287
     32  O          3.3710   19.6310  108.7230 O.2   321  ALA321     -0.2864
     33  CB         1.1810   20.4820  111.0890 C.3   321  ALA321      0.0319
     34  N          0.3000   22.4240  115.3620 N.3   338  THR338     -0.1218
     35  CA        -0.4470   21.5980  116.2970 C.3   338  THR338      0.1862
     36  C         -0.0620   22.0230  117.7060 C.2   338  THR338      0.2287
     37  O          1.1030   21.9010  118.0970 O.2   338  THR338     -0.2866
     38  CB        -0.1520   20.1170  116.0920 C.3   338  THR338      0.1770
     39  OG1       -0.5090   19.7380  114.7560 O.3   338  THR338     -0.2211
     40  CG2       -0.9560   19.3000  117.0790 C.3   338  THR338      0.0375
     41  N         -0.9690   21.7050  121.7760 N.3   340  SER340     -0.1217
     42  CA        -1.6380   20.9010  122.7880 C.3   340  SER340      0.1889
     43  C         -1.6300   21.6430  124.1170 C.2   340  SER340      0.2288
     44  O         -0.5730   22.0730  124.5900 O.2   340  SER340     -0.2866
     45  CB        -0.9700   19.5330  122.9250 C.3   340  SER340      0.2089
     46  OG        -0.7630   18.9430  121.6560 O.3   340  SER340     -0.2183
     47  N         -5.7580   18.8260  121.9580 N.3   371  GLN371     -0.1245
     48  CA        -5.0430   19.1880  120.7450 C.3   371  GLN371      0.1566
     49  C         -5.8000   20.2530  119.9620 C.2   371  GLN371      0.2260
     50  O         -7.0340   20.2450  119.9080 O.2   371  GLN371     -0.2867
     51  CB        -4.8260   17.9480  119.8790 C.3   371  GLN371      0.0367
     52  CG        -3.7250   18.0950  118.8640 C.3   371  GLN371      0.0905
     53  CD        -3.3220   16.7690  118.2530 C.2   371  GLN371      0.2608
     54  OE1       -2.6010   15.9800  118.8660 O.2   371  GLN371     -0.2717
     55  NE2       -3.7880   16.5150  117.0370 N.am  371  GLN371     -0.0878
     56  N          8.8310   24.5720  118.4460 N.3   396  SER396     -0.1202
     57  CA         8.7690   23.1790  118.0310 C.3   396  SER396      0.2020
     58  C         10.1530   22.7090  117.5910 C.2   396  SER396      0.2619
     59  O         11.0150   23.5030  117.2040 O.2   396  SER396     -0.2717
     60  CB         7.7640   22.9940  116.8920 C.3   396  SER396      0.2103
     61  OG         8.2280   23.5910  115.6940 O.3   396  SER396     -0.2182
     62  N         10.3620   21.3940  117.6510 N.am  397  SER397     -0.1937
     63  CA        11.6820   20.8490  117.3610 C.3   397  SER397      0.2055
     64  C         11.9890   20.7830  115.8700 C.2   397  SER397      0.2643
     65  O         13.1620   20.6550  115.5030 O.2   397  SER397     -0.2714
     66  CB        11.8280   19.4570  117.9850 C.3   397  SER397      0.2130
     67  OG        10.6970   18.6510  117.7160 O.3   397  SER397     -0.2179
     68  N         10.9820   20.8690  115.0040 N.am  398  THR398     -0.1950
     69  CA        11.2050   20.8640  113.5660 C.3   398  THR398      0.1897
     70  C         10.6980   22.1590  112.9470 C.2   398  THR398      0.2313
     71  O          9.8130   22.8310  113.4830 O.2   398  THR398     -0.2863
     72  CB        10.5220   19.6710  112.8800 C.3   398  THR398      0.1794
     73  OG1        9.1050   19.7430  113.0740 O.3   398  THR398     -0.2208
     74  CG2       11.0470   18.3520  113.4340 C.3   398  THR398      0.0378
@<TRIPOS>BOND
     1    32    31    2
     2    31    30    1
     3    30    33    1
     4    30    29    1
     5    28    26    1
     6    29    24   am
     7    25    24    2
     8    24    23    1
     9    26    23    1
    10    26    27    1
    11    72    73    1
    12    72    74    1
    13    72    69    1
    14    70    71    2
    15    70    69    1
    16    23    22    1
    17    69    68    1
    18    22    19   am
    19    39    38    1
    20    68    64   am
    21    20    19    2
    22    19    18    1
    23    34    35    1
    24    65    64    2
    25    61    60    1
    26    64    63    1
    27    38    35    1
    28    38    40    1
    29    35    36    1
    30    21    18    1
    31    18    17    1
    32    60    57    1
    33    55    53   am
    34    59    58    2
    35    63    62    1
    36    63    66    1
    37    58    62   am
    38    58    57    1
    39    36    37    2
    40    67    66    1
    41    17    11   am
    42    57    56    1
    43    53    52    1
    44    53    54    2
    45    52    51    1
    46    11    12    2
    47    11    10    1
    48    13    10    1
    49    13    14    1
    50    16    14    1
    51    10     9    1
    52    51    48    1
    53    50    49    2
    54    49    48    1
    55    14    15    1
    56    48    47    1
    57     9     3   am
    58    46    45    1
    59     4     3    2
    60    41    42    1
    61     3     2    1
    62    42    45    1
    63    42    43    1
    64     2     5    1
    65     2     1    1
    66     7     6   ar
    67     5     6    1
    68    43    44    2
    69     6     8   ar
