@<TRIPOS>MOLECULE
tmp/5j82A00.pdb
 170 159 0 0 0
SMALL
GASTEIGER

@<TRIPOS>ATOM
      1  N         -1.0350   33.7190  -16.3740 N.3    33  LEU33      -0.1245
      2  CA        -1.5820   33.1430  -17.6030 C.3    33  LEU33       0.1561
      3  C         -2.8970   33.7970  -18.0110 C.2    33  LEU33       0.2260
      4  O         -3.1030   34.0090  -19.2040 O.2    33  LEU33      -0.2867
      5  CB        -1.7190   31.6110  -17.5300 C.3    33  LEU33       0.0270
      6  CG        -0.4200   30.8150  -17.3200 C.3    33  LEU33       0.0019
      7  CD1       -0.7200   29.3580  -17.0640 C.3    33  LEU33       0.0001
      8  CD2        0.5760   30.9890  -18.4900 C.3    33  LEU33       0.0001
      9  N         -2.1610   37.2340  -19.4430 N.3    36  ASN36      -0.1225
     10  CA        -1.6350   37.0600  -20.7940 C.3    36  ASN36       0.1785
     11  C         -2.7650   36.7760  -21.7680 C.2    36  ASN36       0.2597
     12  O         -2.7260   37.2670  -22.9000 O.2    36  ASN36      -0.2718
     13  CB        -0.5490   35.9650  -20.8480 C.3    36  ASN36       0.1169
     14  CG         0.8170   36.4400  -20.3920 C.2    36  ASN36       0.2627
     15  OD1        1.0160   37.6100  -20.0080 O.2    36  ASN36      -0.2716
     16  ND2        1.8030   35.5520  -20.4610 N.am   36  ASN36      -0.0877
     17  N         -3.7900   36.0230  -21.3110 N.am   37  SER37      -0.1952
     18  CA        -4.9860   35.7250  -22.1070 C.3    37  SER37       0.1924
     19  C         -5.7590   36.9950  -22.3780 C.2    37  SER37       0.2314
     20  O         -6.1550   37.2520  -23.5150 O.2    37  SER37      -0.2863
     21  CB        -5.8770   34.7250  -21.3840 C.3    37  SER37       0.2116
     22  OG        -5.3770   33.4110  -21.5420 O.3    37  SER37      -0.2180
     23  N         -4.6370   40.0970  -22.3460 N.3    39  ASP39      -0.1225
     24  CA        -3.8780   40.9790  -23.2350 C.3    39  ASP39       0.1805
     25  C         -4.0330   40.5190  -24.6980 C.2    39  ASP39       0.2597
     26  O         -4.0690   41.3670  -25.5850 O.2    39  ASP39      -0.2718
     27  CB        -2.3840   41.0520  -22.8590 C.3    39  ASP39       0.1424
     28  CG        -2.0190   41.7180  -21.5410 C.2    39  ASP39       0.3668
     29  OD1       -2.8180   42.5600  -21.0490 O.co2  39  ASP39      -0.2456
     30  OD2       -0.9140   41.4310  -21.0180 O.co2  39  ASP39      -0.2456
     31  N         -4.1730   39.1880  -24.9430 N.am   40  ALA40      -0.1979
     32  CA        -4.3810   38.6520  -26.2990 C.3    40  ALA40       0.1597
     33  C         -5.8060   39.0000  -26.7940 C.2    40  ALA40       0.2287
     34  O         -6.0240   39.2200  -27.9900 O.2    40  ALA40      -0.2864
     35  CB        -4.1740   37.1510  -26.3070 C.3    40  ALA40       0.0319
     36  N         -5.7950   42.6990  -27.7330 N.3    43  LYS43      -0.1245
     37  CA        -5.0820   42.8340  -29.0050 C.3    43  LYS43       0.1561
     38  C         -6.0390   42.5450  -30.1760 C.2    43  LYS43       0.2260
     39  O         -6.0390   43.2990  -31.1490 O.2    43  LYS43      -0.2867
     40  CB        -3.8010   41.9590  -29.0660 C.3    43  LYS43       0.0271
     41  CG        -2.5490   42.5670  -28.3950 C.3    43  LYS43       0.0035
     42  CD        -1.2450   41.7170  -28.5770 C.3    43  LYS43       0.0206
     43  CE        -0.0350   42.2970  -27.8540 C.3    43  LYS43       0.1093
     44  NZ         1.1300   41.3650  -27.8170 N.3    43  LYS43      -0.1314
     45  N         -5.8020   26.4260  -19.9860 N.3    76  ILE76      -0.1245
     46  CA        -6.2580   27.8080  -20.0320 C.3    76  ILE76       0.1561
     47  C         -6.5360   28.1050  -21.4980 C.2    76  ILE76       0.2260
     48  O         -5.5880   28.2010  -22.2960 O.2    76  ILE76      -0.2867
     49  CB        -5.3150   28.8460  -19.3540 C.3    76  ILE76       0.0252
     50  CG1       -5.2120   28.6400  -17.8190 C.3    76  ILE76       0.0019
     51  CG2       -5.7970   30.2940  -19.6320 C.3    76  ILE76       0.0019
     52  CD1       -4.1240   27.7240  -17.3400 C.3    76  ILE76       0.0001
     53  N         -8.1130   30.6640  -24.4420 N.3    78  ASP78      -0.1239
     54  CA        -8.6110   31.9930  -24.7710 C.3    78  ASP78       0.1674
     55  C         -8.8830   32.0960  -26.2430 C.2    78  ASP78       0.2266
     56  O         -8.3770   31.2810  -27.0120 O.2    78  ASP78      -0.2867
     57  CB        -7.7240   33.1290  -24.2520 C.3    78  ASP78       0.1410
     58  CG        -6.3950   33.2940  -24.9520 C.2    78  ASP78       0.3668
     59  OD1       -6.3820   33.8100  -26.0790 O.co2  78  ASP78      -0.2456
     60  OD2       -5.3660   33.0000  -24.3310 O.co2  78  ASP78      -0.2456
     61  N         -5.9890   37.1520  -29.8350 N.3    81  ILE81      -0.1231
     62  CA        -5.3890   37.2870  -31.1570 C.3    81  ILE81       0.1692
     63  C         -4.5650   36.0340  -31.6050 C.2    81  ILE81       0.2593
     64  O         -4.4160   35.8320  -32.7980 O.2    81  ILE81      -0.2718
     65  CB        -4.5910   38.6040  -31.2990 C.3    81  ILE81       0.0266
     66  CG1       -4.3440   38.9400  -32.7960 C.3    81  ILE81       0.0019
     67  CG2       -3.2960   38.5910  -30.4690 C.3    81  ILE81       0.0020
     68  CD1       -3.7170   40.2550  -33.0900 C.3    81  ILE81       0.0001
     69  N         -4.0920   35.2010  -30.6770 N.am   82  GLY82      -0.1942
     70  CA        -3.3010   34.0240  -31.0340 C.3    82  GLY82       0.2014
     71  C         -1.8630   34.3890  -31.3600 C.2    82  GLY82       0.2638
     72  O         -1.4560   35.5540  -31.2390 O.2    82  GLY82      -0.2714
     73  N         -1.0710   33.4070  -31.7590 N.am   83  MET83      -0.1976
     74  CA         0.3440   33.6560  -32.0790 C.3    83  MET83       0.1605
     75  C          0.7940   32.9310  -33.3260 C.2    83  MET83       0.2287
     76  O          0.3690   31.7980  -33.5590 O.2    83  MET83      -0.2864
     77  CB         1.2590   33.2470  -30.9170 C.3    83  MET83       0.0413
     78  CG         1.1620   34.1410  -29.7200 C.3    83  MET83       0.0598
     79  SD         2.0280   33.4620  -28.3050 S.3    83  MET83      -0.1393
     80  CE         0.9400   32.0600  -27.8460 C.3    83  MET83       0.0692
     81  N          6.2180   34.4310  -33.6260 N.3    87  ASP87      -0.1225
     82  CA         5.9860   34.8490  -32.2370 C.3    87  ASP87       0.1805
     83  C          6.5080   33.7720  -31.2960 C.2    87  ASP87       0.2597
     84  O          7.4350   34.0400  -30.5270 O.2    87  ASP87      -0.2718
     85  CB         4.5020   35.1640  -31.9610 C.3    87  ASP87       0.1424
     86  CG         3.8750   36.2550  -32.8150 C.2    87  ASP87       0.3668
     87  OD1        4.6320   37.0650  -33.4100 O.co2  87  ASP87      -0.2456
     88  OD2        2.6280   36.2880  -32.9090 O.co2  87  ASP87      -0.2456
     89  N          6.0080   32.5310  -31.4510 N.am   88  LEU88      -0.1979
     90  CA         6.4330   31.3770  -30.6570 C.3    88  LEU88       0.1596
     91  C          7.9550   31.2160  -30.6040 C.2    88  LEU88       0.2287
     92  O          8.5360   31.1050  -29.5190 O.2    88  LEU88      -0.2864
     93  CB         5.8200   30.0820  -31.2110 C.3    88  LEU88       0.0297
     94  CG         4.3210   29.8610  -31.0660 C.3    88  LEU88       0.0022
     95  CD1        3.9370   28.5090  -31.6600 C.3    88  LEU88       0.0001
     96  CD2        3.8760   29.9170  -29.6060 C.3    88  LEU88       0.0001
     97  N          8.9340   36.0700  -29.0830 N.3    92  LEU92      -0.1245
     98  CA         8.8200   35.8590  -27.6290 C.3    92  LEU92       0.1561
     99  C         10.0870   35.2960  -26.9730 C.2    92  LEU92       0.2260
    100  O         10.0690   34.9150  -25.8000 O.2    92  LEU92      -0.2867
    101  CB         7.6040   34.9980  -27.2790 C.3    92  LEU92       0.0270
    102  CG         6.2530   35.5780  -27.6460 C.3    92  LEU92       0.0019
    103  CD1        5.2600   34.4910  -27.7720 C.3    92  LEU92       0.0001
    104  CD2        5.7950   36.6250  -26.6420 C.3    92  LEU92       0.0001
    105  N         12.1890   39.4470  -26.8940 N.3    95  ILE95      -0.1245
    106  CA        11.5700   40.3480  -25.9030 C.3    95  ILE95       0.1561
    107  C         11.7510   39.8160  -24.4690 C.2    95  ILE95       0.2260
    108  O         11.8530   40.6110  -23.5250 O.2    95  ILE95      -0.2867
    109  CB        10.0840   40.7320  -26.2070 C.3    95  ILE95       0.0252
    110  CG1        9.1700   39.4970  -26.4570 C.3    95  ILE95       0.0019
    111  CG2        9.9880   41.7450  -27.3540 C.3    95  ILE95       0.0019
    112  CD1        8.4630   38.8730  -25.2140 C.3    95  ILE95       0.0001
    113  N          4.8450   34.0210  -17.9580 N.3   123  PHE123     -0.1227
    114  CA         4.6280   32.6720  -18.4980 C.3   123  PHE123      0.1736
    115  C          5.4770   31.6110  -17.8150 C.2   123  PHE123      0.2595
    116  O          4.9890   30.5280  -17.5620 O.2   123  PHE123     -0.2718
    117  CB         4.9020   32.6200  -20.0250 C.3   123  PHE123      0.0547
    118  CG         4.9740   31.2040  -20.5630 C.ar  123  PHE123     -0.0202
    119  CD1        3.8230   30.4310  -20.6930 C.ar  123  PHE123     -0.0042
    120  CD2        6.2040   30.6070  -20.8370 C.ar  123  PHE123     -0.0042
    121  CE1        3.8990   29.0990  -21.1150 C.ar  123  PHE123     -0.0003
    122  CE2        6.2780   29.2780  -21.2530 C.ar  123  PHE123     -0.0003
    123  CZ         5.1250   28.5350  -21.4030 C.ar  123  PHE123     -0.0000
    124  N          6.7480   31.9130  -17.5460 N.am  124  TYR124     -0.1976
    125  CA         7.7140   30.9530  -17.0210 C.3   124  TYR124      0.1639
    126  C          7.3710   30.4780  -15.6040 C.2   124  TYR124      0.2290
    127  O          7.7800   29.3710  -15.2260 O.2   124  TYR124     -0.2864
    128  CB         9.1440   31.5000  -17.1950 C.3   124  TYR124      0.0560
    129  CG         9.4710   31.6090  -18.6790 C.ar  124  TYR124     -0.0198
    130  CD1        9.7540   30.4750  -19.4360 C.ar  124  TYR124     -0.0009
    131  CD2        9.3450   32.8230  -19.3560 C.ar  124  TYR124     -0.0009
    132  CE1        9.9620   30.5500  -20.8170 C.ar  124  TYR124      0.0417
    133  CE2        9.5410   32.9120  -20.7380 C.ar  124  TYR124      0.0417
    134  CZ         9.8700   31.7760  -21.4630 C.ar  124  TYR124      0.1957
    135  OH        10.0940   31.8620  -22.8190 O.3   124  TYR124     -0.2866
    136  N          1.4140   24.4880  -25.6790 N.3   135  VAL135     -0.1245
    137  CA         0.6950   25.6710  -26.1110 C.3   135  VAL135      0.1561
    138  C          0.1630   25.3800  -27.5300 C.2   135  VAL135      0.2260
    139  O          0.9530   25.0670  -28.4220 O.2   135  VAL135     -0.2867
    140  CB         1.5570   26.9610  -26.0580 C.3   135  VAL135      0.0252
    141  CG1        0.7970   28.1710  -26.5910 C.3   135  VAL135      0.0019
    142  CG2        2.1000   27.2350  -24.6540 C.3   135  VAL135      0.0019
    143  N          3.3770   24.2900  -29.5250 N.3   147  TRP147     -0.1241
    144  CA         4.6340   24.5910  -28.8680 C.3   147  TRP147      0.1605
    145  C          4.6350   23.7000  -27.6110 C.2   147  TRP147      0.2264
    146  O          3.5900   23.5100  -26.9760 O.2   147  TRP147     -0.2867
    147  CB         4.7270   26.0880  -28.5500 C.3   147  TRP147      0.0550
    148  CG         5.9530   26.5230  -27.7940 C.ar  147  TRP147      0.0003
    149  CD1        7.0290   27.1970  -28.3000 C.ar  147  TRP147      0.0946
    150  CD2        6.1950   26.3850  -26.3780 C.ar  147  TRP147      0.0152
    151  NE1        7.8990   27.5340  -27.2840 N.ar  147  TRP147     -0.2442
    152  CE2        7.4350   27.0040  -26.1030 C.ar  147  TRP147      0.0810
    153  CE3        5.4730   25.8130  -25.3110 C.ar  147  TRP147      0.0012
    154  CZ2        7.9710   27.0620  -24.8070 C.ar  147  TRP147      0.0191
    155  CZ3        6.0190   25.8410  -24.0390 C.ar  147  TRP147      0.0001
    156  CH2        7.2500   26.4660  -23.7950 C.ar  147  TRP147      0.0015
    157  N         -5.4380   30.9040  -28.1580 N.3   169  THR169     -0.1218
    158  CA        -4.3420   30.2100  -27.4870 C.3   169  THR169      0.1862
    159  C         -4.9320   29.3090  -26.4170 C.2   169  THR169      0.2287
    160  O         -5.7730   29.7340  -25.6580 O.2   169  THR169     -0.2866
    161  CB        -3.2950   31.2200  -26.9760 C.3   169  THR169      0.1770
    162  OG1       -2.7710   31.9650  -28.0800 O.3   169  THR169     -0.2211
    163  CG2       -2.1480   30.5760  -26.1780 C.3   169  THR169      0.0375
    164  N         -3.4130   26.8740  -23.4330 N.3   171  VAL171     -0.1245
    165  CA        -2.2280   26.4930  -22.6430 C.3   171  VAL171      0.1561
    166  C         -2.5720   25.2650  -21.8080 C.2   171  VAL171      0.2260
    167  O         -3.5050   25.3080  -21.0090 O.2   171  VAL171     -0.2867
    168  CB        -1.6170   27.6510  -21.7860 C.3   171  VAL171      0.0252
    169  CG1       -0.3860   27.1760  -21.0080 C.3   171  VAL171      0.0019
    170  CG2       -1.2690   28.8610  -22.6610 C.3   171  VAL171      0.0019
@<TRIPOS>BOND
     1    81    82    1
     2    76    75    2
     3    87    86   ar
     4    75    74    1
     5    68    66    1
     6    88    86   ar
     7    86    85    1
     8    64    63    2
     9    66    65    1
    10    82    85    1
    11    82    83    1
    12    74    73    1
    13    74    77    1
    14    73    71   am
    15    95    94    1
    16    63    62    1
    17    63    69   am
    18    89    83   am
    19    89    90    1
    20    71    72    2
    21    71    70    1
    22    65    62    1
    23    65    67    1
    24    83    84    2
    25    93    94    1
    26    93    90    1
    27    62    61    1
    28    39    38    2
    29    94    96    1
    30    70    69    1
    31    77    78    1
    32    90    91    1
    33    91    92    2
    34    38    37    1
    35    78    79    1
    36   143   144    1
    37    97    98    1
    38    40    37    1
    39    40    41    1
    40    37    36    1
    41   144   147    1
    42   144   145    1
    43    42    41    1
    44    42    43    1
    45   147   148    1
    46   139   138    2
    47    79    80    1
    48   149   148   ar
    49   149   151   ar
    50   157   158    1
    51   162   161    1
    52    34    33    2
    53    43    44    1
    54   148   150   ar
    55   103   102    1
    56   102   101    1
    57   102   104    1
    58    98   101    1
    59    98    99    1
    60   145   146    2
    61   138   137    1
    62   158   161    1
    63   158   159    1
    64   111   109    1
    65   151   152   ar
    66    56    55    2
    67   161   163    1
    68    99   100    2
    69   105   106    1
    70    33    32    1
    71   141   140    1
    72   110   109    1
    73   110   112    1
    74   159   160    2
    75   150   152   ar
    76   150   153   ar
    77    35    32    1
    78    32    31    1
    79    55    54    1
    80   109   106    1
    81   137   140    1
    82   137   136    1
    83   152   154   ar
    84    59    58   ar
    85   140   142    1
    86   106   107    1
    87    26    25    2
    88   153   155   ar
    89    58    60   ar
    90    58    57    1
    91    31    25   am
    92   154   156   ar
    93    54    53    1
    94    54    57    1
    95    25    24    1
    96   107   108    2
    97   155   156   ar
    98    20    19    2
    99   164   165    1
   100    24    27    1
   101    24    23    1
   102    12    11    2
   103    27    28    1
   104   135   134    1
   105   170   168    1
   106   165   166    1
   107   165   168    1
   108    19    18    1
   109    48    47    2
   110    18    21    1
   111    18    17    1
   112   166   167    2
   113   168   169    1
   114    11    17   am
   115    11    10    1
   116    22    21    1
   117    28    29   ar
   118    28    30   ar
   119    47    46    1
   120   134   132   ar
   121   134   133   ar
   122   123   122   ar
   123   123   121   ar
   124   122   120   ar
   125   121   119   ar
   126    13    10    1
   127    13    14    1
   128   120   118   ar
   129   132   130   ar
   130    10     9    1
   131   133   131   ar
   132   119   118   ar
   133   118   117    1
   134    16    14   am
   135    14    15    2
   136    46    45    1
   137    46    49    1
   138   117   114    1
   139    51    49    1
   140   130   129   ar
   141   131   129   ar
   142    49    50    1
   143     4     3    2
   144   129   128    1
   145   114   113    1
   146   114   115    1
   147     8     6    1
   148     3     2    1
   149    50    52    1
   150   115   116    2
   151   115   124   am
   152     2     5    1
   153     2     1    1
   154   124   125    1
   155     5     6    1
   156     6     7    1
   157   128   125    1
   158   125   126    1
   159   126   127    2
