@<TRIPOS>MOLECULE
tmp/5j86A00.pdb
 178 167 0 0 0
SMALL
GASTEIGER

@<TRIPOS>ATOM
      1  N        -32.3890  -11.7100   16.3350 N.3    33  LEU33      -0.1245
      2  CA       -31.7580  -12.2650   17.5480 C.3    33  LEU33       0.1561
      3  C        -30.4730  -11.5460   17.8920 C.2    33  LEU33       0.2260
      4  O        -30.2650  -11.2230   19.0550 O.2    33  LEU33      -0.2867
      5  CB       -31.5600  -13.7860   17.4490 C.3    33  LEU33       0.0270
      6  CG       -32.8520  -14.5910   17.2290 C.3    33  LEU33       0.0019
      7  CD1      -32.5410  -16.0280   17.0130 C.3    33  LEU33       0.0001
      8  CD2      -33.8270  -14.4000   18.3750 C.3    33  LEU33       0.0001
      9  N        -31.3710   -8.1520   19.3830 N.3    36  ASN36      -0.1225
     10  CA       -31.8340   -8.2580   20.7810 C.3    36  ASN36       0.1785
     11  C        -30.6370   -8.5040   21.7130 C.2    36  ASN36       0.2597
     12  O        -30.5990   -7.9500   22.8130 O.2    36  ASN36      -0.2718
     13  CB       -32.9010   -9.3460   20.9490 C.3    36  ASN36       0.1169
     14  CG       -34.2970   -8.9500   20.4640 C.2    36  ASN36       0.2627
     15  OD1      -34.5120   -7.9250   19.8130 O.2    36  ASN36      -0.2716
     16  ND2      -35.2790   -9.7800   20.7450 N.am   36  ASN36      -0.0877
     17  N        -29.6610   -9.3120   21.2610 N.am   37  SER37      -0.1952
     18  CA       -28.4520   -9.6040   22.0330 C.3    37  SER37       0.1924
     19  C        -27.6760   -8.3030   22.2490 C.2    37  SER37       0.2314
     20  O        -27.2750   -8.0210   23.3820 O.2    37  SER37      -0.2863
     21  CB       -27.5800  -10.6270   21.3100 C.3    37  SER37       0.2116
     22  OG       -28.1770  -11.9060   21.4100 O.3    37  SER37      -0.2180
     23  N        -28.8610   -5.1560   22.1640 N.3    39  ASP39      -0.1225
     24  CA       -29.6380   -4.3090   23.0970 C.3    39  ASP39       0.1805
     25  C        -29.4010   -4.7240   24.5490 C.2    39  ASP39       0.2597
     26  O        -29.2410   -3.8510   25.3990 O.2    39  ASP39      -0.2718
     27  CB       -31.1450   -4.3460   22.7890 C.3    39  ASP39       0.1424
     28  CG       -31.5720   -3.6930   21.4840 C.2    39  ASP39       0.3668
     29  OD1      -30.7150   -3.0930   20.8100 O.co2  39  ASP39      -0.2456
     30  OD2      -32.7640   -3.7860   21.1410 O.co2  39  ASP39      -0.2456
     31  N        -29.3480   -6.0540   24.8310 N.am   40  ALA40      -0.1979
     32  CA       -29.1050   -6.5620   26.1890 C.3    40  ALA40       0.1597
     33  C        -27.6550   -6.2880   26.6570 C.2    40  ALA40       0.2287
     34  O        -27.4310   -6.0450   27.8430 O.2    40  ALA40      -0.2864
     35  CB       -29.4340   -8.0430   26.2660 C.3    40  ALA40       0.0319
     36  N        -27.5440   -2.6230   27.5860 N.3    43  LYS43      -0.1245
     37  CA       -28.1770   -2.5180   28.9020 C.3    43  LYS43       0.1561
     38  C        -27.2010   -2.8080   30.0500 C.2    43  LYS43       0.2260
     39  O        -27.1350   -2.0090   30.9910 O.2    43  LYS43      -0.2867
     40  CB       -29.4410   -3.3900   29.0040 C.3    43  LYS43       0.0271
     41  CG       -30.6500   -2.8240   28.2720 C.3    43  LYS43       0.0035
     42  CD       -31.8550   -3.7760   28.3210 C.3    43  LYS43       0.0206
     43  CE       -32.9650   -3.3210   27.3970 C.3    43  LYS43       0.1093
     44  NZ       -34.0740   -4.3120   27.3090 N.3    43  LYS43      -0.1314
     45  N        -27.5920  -18.9010   19.7670 N.3    76  ILE76      -0.1245
     46  CA       -27.1480  -17.5080   19.8270 C.3    76  ILE76       0.1561
     47  C        -26.9030  -17.2270   21.2970 C.2    76  ILE76       0.2260
     48  O        -27.8560  -17.2280   22.0950 O.2    76  ILE76      -0.2867
     49  CB       -28.0960  -16.4560   19.1540 C.3    76  ILE76       0.0252
     50  CG1      -28.3090  -16.7320   17.6330 C.3    76  ILE76       0.0019
     51  CG2      -27.6020  -15.0050   19.4000 C.3    76  ILE76       0.0019
     52  CD1      -29.3370  -17.8920   17.3090 C.3    76  ILE76       0.0001
     53  N        -25.2830  -14.6000   24.1740 N.3    78  ASP78      -0.1239
     54  CA       -24.8080  -13.2720   24.5220 C.3    78  ASP78       0.1674
     55  C        -24.5170  -13.1980   26.0210 C.2    78  ASP78       0.2266
     56  O        -25.0800  -13.9730   26.8010 O.2    78  ASP78      -0.2867
     57  CB       -25.7210  -12.1310   24.0410 C.3    78  ASP78       0.1410
     58  CG       -27.0170  -11.9740   24.7980 C.2    78  ASP78       0.3668
     59  OD1      -26.9670  -11.6000   25.9920 O.co2  78  ASP78      -0.2456
     60  OD2      -28.0830  -12.2100   24.1990 O.co2  78  ASP78      -0.2456
     61  N        -27.3820   -8.2580   29.7560 N.3    81  ILE81      -0.1231
     62  CA       -27.9700   -8.1120   31.0940 C.3    81  ILE81       0.1692
     63  C        -28.7430   -9.3810   31.5710 C.2    81  ILE81       0.2593
     64  O        -28.8710   -9.5980   32.7770 O.2    81  ILE81      -0.2718
     65  CB       -28.8190   -6.8150   31.1500 C.3    81  ILE81       0.0266
     66  CG1      -29.0690   -6.3630   32.6150 C.3    81  ILE81       0.0019
     67  CG2      -30.1250   -6.9040   30.3190 C.3    81  ILE81       0.0020
     68  CD1      -29.2140   -4.8580   32.7780 C.3    81  ILE81       0.0001
     69  N        -29.2170  -10.2060   30.6360 N.am   82  GLY82      -0.1942
     70  CA       -29.9850  -11.4000   30.9720 C.3    82  GLY82       0.2014
     71  C        -31.4070  -11.0390   31.3600 C.2    82  GLY82       0.2638
     72  O        -31.8090   -9.8770   31.2600 O.2    82  GLY82      -0.2714
     73  N        -32.1870  -12.0260   31.7910 N.am   83  MET83      -0.1976
     74  CA       -33.5700  -11.7910   32.1880 C.3    83  MET83       0.1605
     75  C        -33.9260  -12.4670   33.5050 C.2    83  MET83       0.2287
     76  O        -33.5070  -13.5950   33.7540 O.2    83  MET83      -0.2864
     77  CB       -34.5430  -12.2690   31.0910 C.3    83  MET83       0.0413
     78  CG       -34.5870  -11.3670   29.8720 C.3    83  MET83       0.0598
     79  SD       -35.5640  -12.1510   28.5630 S.3    83  MET83      -0.1393
     80  CE       -34.3960  -13.4370   27.9940 C.3    83  MET83       0.0692
     81  N        -39.1000  -11.0980   33.9470 N.3    87  ASP87      -0.1225
     82  CA       -38.8450  -10.6720   32.5660 C.3    87  ASP87       0.1805
     83  C        -39.2400  -11.7770   31.5820 C.2    87  ASP87       0.2597
     84  O        -39.8510  -11.4720   30.5720 O.2    87  ASP87      -0.2718
     85  CB       -37.3690  -10.2630   32.3630 C.3    87  ASP87       0.1424
     86  CG       -36.8770   -9.1020   33.2170 C.2    87  ASP87       0.3668
     87  OD1      -37.6670   -8.1610   33.4570 O.co2  87  ASP87      -0.2456
     88  OD2      -35.6870   -9.1250   33.6260 O.co2  87  ASP87      -0.2456
     89  N        -38.9300  -13.0570   31.8760 N.am   88  LEU88      -0.1979
     90  CA       -39.3080  -14.1620   30.9920 C.3    88  LEU88       0.1596
     91  C        -40.8290  -14.2940   30.7670 C.2    88  LEU88       0.2287
     92  O        -41.2530  -14.6730   29.6690 O.2    88  LEU88      -0.2864
     93  CB       -38.7640  -15.4930   31.5040 C.3    88  LEU88       0.0297
     94  CG       -37.3150  -15.8310   31.2270 C.3    88  LEU88       0.0022
     95  CD1      -36.9830  -17.1740   31.8190 C.3    88  LEU88       0.0001
     96  CD2      -36.9950  -15.8340   29.7120 C.3    88  LEU88       0.0001
     97  N        -42.6050   -9.8620   30.4590 N.3    91  ASN91      -0.1225
     98  CA       -42.0200   -9.2740   29.2520 C.3    91  ASN91       0.1785
     99  C        -42.2730  -10.3100   28.1450 C.2    91  ASN91       0.2597
    100  O        -41.8960  -11.4780   28.2980 O.2    91  ASN91      -0.2718
    101  CB       -40.5170   -9.0300   29.4990 C.3    91  ASN91       0.1169
    102  CG       -39.7050   -8.2900   28.4690 C.2    91  ASN91       0.2627
    103  OD1      -40.0390   -8.1950   27.2910 O.2    91  ASN91      -0.2716
    104  ND2      -38.5670   -7.7840   28.9090 N.am   91  ASN91      -0.0877
    105  N        -42.9970   -9.8920   27.0820 N.am   92  LEU92      -0.1980
    106  CA       -43.4410  -10.6990   25.9290 C.3    92  LEU92       0.1596
    107  C        -44.6060  -11.7160   26.2510 C.2    92  LEU92       0.2287
    108  O        -44.5730  -12.8410   25.7410 O.2    92  LEU92      -0.2864
    109  CB       -42.2530  -11.4170   25.2340 C.3    92  LEU92       0.0297
    110  CG       -41.5610  -10.7020   24.0730 C.3    92  LEU92       0.0022
    111  CD1      -40.6480   -9.6060   24.5610 C.3    92  LEU92       0.0001
    112  CD2      -40.7200  -11.6720   23.2910 C.3    92  LEU92       0.0001
    113  N        -46.0480   -5.7050   26.7980 N.3    95  ILE95      -0.1245
    114  CA       -45.3000   -4.8230   25.8870 C.3    95  ILE95       0.1561
    115  C        -45.4000   -5.2990   24.4300 C.2    95  ILE95       0.2260
    116  O        -45.4910   -4.4720   23.5160 O.2    95  ILE95      -0.2867
    117  CB       -43.8240   -4.5930   26.3370 C.3    95  ILE95       0.0252
    118  CG1      -43.0710   -5.9180   26.6400 C.3    95  ILE95       0.0019
    119  CG2      -43.7400   -3.6160   27.5080 C.3    95  ILE95       0.0019
    120  CD1      -42.1720   -6.3720   25.5240 C.3    95  ILE95       0.0001
    121  N        -38.1060  -11.1560   17.8530 N.3   123  PHE123     -0.1227
    122  CA       -37.7490  -12.5020   18.3540 C.3   123  PHE123      0.1736
    123  C        -38.6100  -13.6060   17.7180 C.2   123  PHE123      0.2595
    124  O        -38.0650  -14.6360   17.3250 O.2   123  PHE123     -0.2718
    125  CB       -37.8270  -12.5980   19.8930 C.3   123  PHE123      0.0547
    126  CG       -37.8800  -14.0300   20.3860 C.ar  123  PHE123     -0.0202
    127  CD1      -36.7150  -14.7900   20.5010 C.ar  123  PHE123     -0.0042
    128  CD2      -39.1010  -14.6360   20.6950 C.ar  123  PHE123     -0.0042
    129  CE1      -36.7700  -16.1250   20.9360 C.ar  123  PHE123     -0.0003
    130  CE2      -39.1470  -15.9550   21.1670 C.ar  123  PHE123     -0.0003
    131  CZ       -37.9830  -16.6880   21.2830 C.ar  123  PHE123     -0.0000
    132  N        -39.9370  -13.3530   17.5610 N.am  124  TYR124     -0.1976
    133  CA       -40.8840  -14.3220   17.0250 C.3   124  TYR124      0.1639
    134  C        -40.5420  -14.7710   15.6070 C.2   124  TYR124      0.2290
    135  O        -40.9380  -15.8710   15.2430 O.2   124  TYR124     -0.2864
    136  CB       -42.3410  -13.8420   17.1800 C.3   124  TYR124      0.0560
    137  CG       -42.6850  -13.7810   18.6470 C.ar  124  TYR124     -0.0198
    138  CD1      -42.7980  -14.9480   19.4030 C.ar  124  TYR124     -0.0009
    139  CD2      -42.7250  -12.5620   19.3240 C.ar  124  TYR124     -0.0009
    140  CE1      -43.0020  -14.9050   20.7780 C.ar  124  TYR124      0.0417
    141  CE2      -42.9420  -12.5070   20.7040 C.ar  124  TYR124      0.0417
    142  CZ       -43.0910  -13.6850   21.4230 C.ar  124  TYR124      0.1957
    143  OH       -43.3090  -13.6780   22.7790 O.3   124  TYR124     -0.2866
    144  N        -34.7150  -20.9810   25.5810 N.3   135  VAL135     -0.1245
    145  CA       -34.0060  -19.7980   26.0290 C.3   135  VAL135      0.1561
    146  C        -33.4810  -20.0620   27.4590 C.2   135  VAL135      0.2260
    147  O        -34.2840  -20.2880   28.3730 O.2   135  VAL135     -0.2867
    148  CB       -34.8840  -18.5070   25.9670 C.3   135  VAL135      0.0252
    149  CG1      -34.1590  -17.3180   26.5990 C.3   135  VAL135      0.0019
    150  CG2      -35.3390  -18.1770   24.5310 C.3   135  VAL135      0.0019
    151  N        -36.6610  -21.0990   29.5060 N.3   147  TRP147     -0.1241
    152  CA       -37.9300  -20.8110   28.8640 C.3   147  TRP147      0.1605
    153  C        -37.9500  -21.6790   27.6200 C.2   147  TRP147      0.2264
    154  O        -36.9240  -21.8000   26.9440 O.2   147  TRP147     -0.2867
    155  CB       -38.0000  -19.3110   28.4870 C.3   147  TRP147      0.0550
    156  CG       -39.2170  -18.8640   27.7170 C.ar  147  TRP147      0.0003
    157  CD1      -40.3200  -18.2420   28.2280 C.ar  147  TRP147      0.0946
    158  CD2      -39.4130  -18.9220   26.2900 C.ar  147  TRP147      0.0152
    159  NE1      -41.1880  -17.9060   27.2130 N.ar  147  TRP147     -0.2442
    160  CE2      -40.6580  -18.3100   26.0140 C.ar  147  TRP147      0.0810
    161  CE3      -38.6650  -19.4450   25.2140 C.ar  147  TRP147      0.0012
    162  CZ2      -41.1510  -18.1700   24.7100 C.ar  147  TRP147      0.0191
    163  CZ3      -39.1780  -19.3430   23.9230 C.ar  147  TRP147      0.0001
    164  CH2      -40.3960  -18.6980   23.6820 C.ar  147  TRP147      0.0015
    165  N        -27.9020  -14.3840   27.9910 N.3   169  THR169     -0.1218
    166  CA       -28.9920  -15.1330   27.3830 C.3   169  THR169      0.1862
    167  C        -28.4620  -16.0110   26.2700 C.2   169  THR169      0.2287
    168  O        -27.6530  -15.5760   25.4340 O.2   169  THR169     -0.2866
    169  CB       -30.0960  -14.1710   26.9030 C.3   169  THR169      0.1770
    170  OG1      -30.5950  -13.4620   28.0300 O.3   169  THR169     -0.2211
    171  CG2      -31.2640  -14.8870   26.1620 C.3   169  THR169      0.0375
    172  N        -30.0470  -18.4700   23.2870 N.3   171  VAL171     -0.1245
    173  CA       -31.2200  -18.8160   22.4630 C.3   171  VAL171      0.1561
    174  C        -30.8340  -20.0410   21.6290 C.2   171  VAL171      0.2260
    175  O        -29.9360  -19.9740   20.7800 O.2   171  VAL171     -0.2867
    176  CB       -31.7470  -17.6360   21.5730 C.3   171  VAL171      0.0252
    177  CG1      -32.9580  -18.0720   20.7250 C.3   171  VAL171      0.0019
    178  CG2      -32.0690  -16.3850   22.4020 C.3   171  VAL171      0.0019
@<TRIPOS>BOND
     1   135   134    2
     2   134   133    1
     3     1     2    1
     4     7     6    1
     5   133   136    1
     6   133   132    1
     7   136   137    1
     8     6     5    1
     9     6     8    1
    10    52    50    1
    11   124   123    2
    12     5     2    1
    13     2     3    1
    14   132   123   am
    15    50    49    1
    16   123   122    1
    17   121   122    1
    18     3     4    2
    19   122   125    1
    20   137   139   ar
    21   137   138   ar
    22    49    51    1
    23    49    46    1
    24   139   141   ar
    25     9    10    1
    26   138   140   ar
    27    45    46    1
    28    15    14    2
    29    46    47    1
    30   125   126    1
    31   126   127   ar
    32   126   128   ar
    33    14    16   am
    34    14    13    1
    35   127   129   ar
    36   128   130   ar
    37   141   142   ar
    38   177   176    1
    39   140   142   ar
    40   175   174    2
    41    10    13    1
    42    10    11    1
    43    29    28   ar
    44   129   131   ar
    45    30    28   ar
    46   130   131   ar
    47    17    11   am
    48    17    18    1
    49    47    48    2
    50    21    22    1
    51    21    18    1
    52   142   143    1
    53    28    27    1
    54   176   178    1
    55   176   173    1
    56   174   173    1
    57    11    12    2
    58    18    19    1
    59    23    24    1
    60    19    20    2
    61   173   172    1
    62    27    24    1
    63    24    25    1
    64   112   110    1
    65   116   115    2
    66   164   163   ar
    67   164   162   ar
    68   163   161   ar
    69    57    54    1
    70    57    58    1
    71   110   111    1
    72   110   109    1
    73    53    54    1
    74    60    58   ar
    75   115   114    1
    76    54    55    1
    77   150   148    1
    78    25    31   am
    79    25    26    2
    80   162   160   ar
    81    58    59   ar
    82    31    32    1
    83   161   158   ar
    84   109   106    1
    85   168   167    2
    86   120   118    1
    87   144   145    1
    88   108   107    2
    89   114   117    1
    90   114   113    1
    91   106   107    1
    92   106   105    1
    93   148   145    1
    94   148   149    1
    95   160   158   ar
    96   160   159   ar
    97    55    56    2
    98   145   146    1
    99   171   169    1
   100    32    35    1
   101    32    33    1
   102   167   166    1
   103   158   156   ar
   104   117   118    1
   105   117   119    1
   106    33    34    2
   107   169   166    1
   108   169   170    1
   109   154   153    2
   110   105    99   am
   111   159   157   ar
   112   103   102    2
   113    44    43    1
   114   166   165    1
   115    43    42    1
   116   146   147    2
   117    36    37    1
   118   153   152    1
   119   156   157   ar
   120   156   155    1
   121    80    79    1
   122    99   100    2
   123    99    98    1
   124    41    42    1
   125    41    40    1
   126   102   104   am
   127   102   101    1
   128   155   152    1
   129    79    78    1
   130   152   151    1
   131    37    40    1
   132    37    38    1
   133    98   101    1
   134    98    97    1
   135    92    91    2
   136    96    94    1
   137    61    62    1
   138    78    77    1
   139    38    39    2
   140    67    65    1
   141    84    83    2
   142    69    70    1
   143    69    63   am
   144    91    90    1
   145    70    71    1
   146    90    93    1
   147    90    89    1
   148    77    74    1
   149    62    65    1
   150    62    63    1
   151    65    66    1
   152    94    93    1
   153    94    95    1
   154    72    71    2
   155    71    73   am
   156    63    64    2
   157    83    89   am
   158    83    82    1
   159    73    74    1
   160    74    75    1
   161    85    82    1
   162    85    86    1
   163    82    81    1
   164    66    68    1
   165    86    87   ar
   166    86    88   ar
   167    75    76    2
