@<TRIPOS>MOLECULE
tmp/5j89C00.pdb
 100 94 0 0 0
SMALL
GASTEIGER

@<TRIPOS>ATOM
      1  N         15.1100   38.1970  179.5580 N.3    37  ILE37      -0.1245
      2  CA        15.8580   37.0880  180.1230 C.3    37  ILE37       0.1561
      3  C         15.6140   35.8760  179.2380 C.2    37  ILE37       0.2260
      4  O         14.4580   35.5130  178.9900 O.2    37  ILE37      -0.2867
      5  CB        15.4350   36.7950  181.5640 C.3    37  ILE37       0.0252
      6  CG1       15.6850   38.0290  182.4390 C.3    37  ILE37       0.0019
      7  CG2       16.1570   35.5560  182.0560 C.3    37  ILE37       0.0019
      8  CD1       15.2440   37.8650  183.8730 C.3    37  ILE37       0.0001
      9  N         16.8420   31.8860  178.9660 N.3    39  TYR39      -0.1241
     10  CA        17.5410   30.7700  179.5690 C.3    39  TYR39       0.1605
     11  C         17.2940   29.5280  178.7170 C.2    39  TYR39       0.2264
     12  O         16.1450   29.2340  178.3600 O.2    39  TYR39      -0.2867
     13  CB        17.0560   30.5850  181.0150 C.3    39  TYR39       0.0534
     14  CG        17.9060   29.6820  181.8380 C.ar   39  TYR39      -0.0201
     15  CD1       19.0080   30.1720  182.5340 C.ar   39  TYR39      -0.0009
     16  CD2       17.6250   28.3290  181.9150 C.ar   39  TYR39      -0.0009
     17  CE1       19.8050   29.3310  183.3030 C.ar   39  TYR39       0.0417
     18  CE2       18.4120   27.4790  182.6760 C.ar   39  TYR39       0.0417
     19  CZ        19.4970   27.9840  183.3660 C.ar   39  TYR39       0.1957
     20  OH        20.2650   27.1220  184.1150 O.3    39  TYR39      -0.2866
     21  N         18.3470   25.3210  178.3810 N.3    41  GLU41      -0.1245
     22  CA        18.8790   24.1830  179.0690 C.3    41  GLU41       0.1567
     23  C         18.3790   22.8760  178.4750 C.2    41  GLU41       0.2260
     24  O         17.4600   22.8550  177.6930 O.2    41  GLU41      -0.2867
     25  CB        18.4460   24.2350  180.5280 C.3    41  GLU41       0.0388
     26  CG        16.9990   23.9180  180.7420 C.3    41  GLU41       0.1160
     27  CD        16.6140   23.7860  182.1870 C.2    41  GLU41       0.3649
     28  OE1       15.5740   23.1730  182.4250 O.co2  41  GLU41      -0.2457
     29  OE2       17.3350   24.2780  183.0620 O.co2  41  GLU41      -0.2457
     30  N         22.5430   23.7530  182.3790 N.3    46  ASN46      -0.1240
     31  CA        22.5140   25.1210  181.8660 C.3    46  ASN46       0.1653
     32  C         23.3190   25.2220  180.5750 C.2    46  ASN46       0.2266
     33  O         24.4580   24.7550  180.5020 O.2    46  ASN46      -0.2867
     34  CB        23.0680   26.0840  182.9280 C.3    46  ASN46       0.1155
     35  CG        23.1900   27.5410  182.4450 C.2    46  ASN46       0.2627
     36  OD1       23.1670   27.8410  181.2570 O.2    46  ASN46      -0.2716
     37  ND2       23.3310   28.4530  183.4000 N.am   46  ASN46      -0.0877
     38  N         22.4950   31.5520  179.7590 N.3    49  GLN49      -0.1245
     39  CA        21.8990   32.3830  180.8030 C.3    49  GLN49       0.1566
     40  C         22.1170   33.8270  180.3670 C.2    49  GLN49       0.2260
     41  O         23.1950   34.3950  180.5690 O.2    49  GLN49      -0.2867
     42  CB        22.5040   32.1030  182.1720 C.3    49  GLN49       0.0367
     43  CG        21.9700   33.0050  183.2680 C.3    49  GLN49       0.0905
     44  CD        22.7060   32.8190  184.5750 C.2    49  GLN49       0.2608
     45  OE1       22.8950   31.6940  185.0300 O.2    49  GLN49      -0.2717
     46  NE2       23.1350   33.9240  185.1820 N.am   49  GLN49      -0.0878
     47  N         20.8100   37.4670  180.8110 N.3    51  VAL51      -0.1245
     48  CA        20.0590   38.2480  181.7800 C.3    51  VAL51       0.1561
     49  C         20.3090   39.7200  181.5090 C.2    51  VAL51       0.2260
     50  O         21.4370   40.2020  181.6680 O.2    51  VAL51      -0.2867
     51  CB        20.4540   37.8950  183.2190 C.3    51  VAL51       0.0252
     52  CG1       19.5630   38.6320  184.1880 C.3    51  VAL51       0.0019
     53  CG2       20.3660   36.4050  183.4380 C.3    51  VAL51       0.0019
     54  N         13.3680   29.0610  178.1120 N.3    98  MET98      -0.1230
     55  CA        12.5750   29.8160  179.0650 C.3    98  MET98       0.1702
     56  C         12.8380   31.2890  178.8190 C.2    98  MET98       0.2592
     57  O         13.9950   31.7190  178.7910 O.2    98  MET98      -0.2718
     58  CB        12.9110   29.4210  180.4940 C.3    98  MET98       0.0401
     59  CG        13.1530   27.9760  180.6620 C.3    98  MET98       0.0596
     60  SD        13.7090   27.6350  182.3190 S.3    98  MET98      -0.1393
     61  CE        13.5500   25.8680  182.3570 C.3    98  MET98       0.0692
     62  N         11.7740   32.0500  178.5840 N.am   99  ILE99      -0.1966
     63  CA        11.8940   33.4300  178.1290 C.3    99  ILE99       0.1727
     64  C         11.0060   34.2990  178.9960 C.2    99  ILE99       0.2616
     65  O          9.8440   33.9510  179.2440 O.2    99  ILE99      -0.2715
     66  CB        11.5170   33.5840  176.6490 C.3    99  ILE99       0.0290
     67  CG1       12.3740   32.6460  175.7970 C.3    99  ILE99       0.0022
     68  CG2       11.6490   35.0440  176.2280 C.3    99  ILE99       0.0023
     69  CD1       12.2970   32.8990  174.3060 C.3    99  ILE99       0.0001
     70  N         11.5590   35.4230  179.4560 N.am  100  SER100     -0.1950
     71  CA        10.8430   36.4040  180.2610 C.3   100  SER100      0.1924
     72  C         11.0300   37.7530  179.5970 C.2   100  SER100      0.2314
     73  O         12.1620   38.2100  179.4040 O.2   100  SER100     -0.2863
     74  CB        11.3440   36.4320  181.7070 C.3   100  SER100      0.2116
     75  OG        10.9950   37.6410  182.3460 O.3   100  SER100     -0.2180
     76  N          6.1430   35.7760  180.8520 N.3   104  ALA104     -0.1231
     77  CA         7.1230   34.6970  180.8240 C.3   104  ALA104      0.1694
     78  C          6.4400   33.4060  180.4060 C.2   104  ALA104      0.2592
     79  O          5.2430   33.2140  180.6420 O.2   104  ALA104     -0.2718
     80  CB         7.8340   34.5230  182.1800 C.3   104  ALA104      0.0304
     81  N          7.2200   32.5250  179.7790 N.am  105  ASP105     -0.1960
     82  CA         6.7110   31.2830  179.2180 C.3   105  ASP105      0.1840
     83  C          7.9130   30.4400  178.8240 C.2   105  ASP105      0.2622
     84  O          9.0400   30.9360  178.7610 O.2   105  ASP105     -0.2715
     85  CB         5.7970   31.5480  178.0130 C.3   105  ASP105      0.1450
     86  CG         5.0320   30.3070  177.5550 C.2   105  ASP105      0.3671
     87  OD1        4.7290   29.4220  178.3900 O.co2 105  ASP105     -0.2456
     88  OD2        4.7100   30.2290  176.3490 O.co2 105  ASP105     -0.2456
     89  N          7.6730   29.1550  178.5840 N.am  106  TYR106     -0.1974
     90  CA         8.7560   28.3060  178.1090 C.3   106  TYR106      0.1639
     91  C          8.1850   27.2700  177.1640 C.2   106  TYR106      0.2290
     92  O          6.9890   26.9810  177.1900 O.2   106  TYR106     -0.2864
     93  CB         9.5120   27.6160  179.2480 C.3   106  TYR106      0.0560
     94  CG         8.8950   26.3190  179.7170 C.ar  106  TYR106     -0.0198
     95  CD1        7.9460   26.3140  180.7350 C.ar  106  TYR106     -0.0009
     96  CD2        9.2770   25.0960  179.1690 C.ar  106  TYR106     -0.0009
     97  CE1        7.3670   25.1430  181.1790 C.ar  106  TYR106      0.0417
     98  CE2        8.6970   23.9000  179.6140 C.ar  106  TYR106      0.0417
     99  CZ         7.7400   23.9420  180.6250 C.ar  106  TYR106      0.1957
    100  OH         7.1440   22.7950  181.1000 O.3   106  TYR106     -0.2866
@<TRIPOS>BOND
     1    69    67    1
     2    67    66    1
     3    68    66    1
     4    88    86   ar
     5    66    63    1
     6    91    92    2
     7    91    90    1
     8    86    85    1
     9    86    87   ar
    10    24    23    2
    11    85    82    1
    12    90    89    1
    13    90    93    1
    14    54    55    1
    15    63    62    1
    16    63    64    1
    17    12    11    2
    18    21    22    1
    19    23    22    1
    20    89    83   am
    21    62    56   am
    22    11    10    1
    23    84    83    2
    24    57    56    2
    25    56    55    1
    26    83    82    1
    27     9    10    1
    28     4     3    2
    29    64    65    2
    30    64    70   am
    31    55    58    1
    32    22    25    1
    33    96    98   ar
    34    96    94   ar
    35    82    81    1
    36     3     2    1
    37    93    94    1
    38    73    72    2
    39    70    71    1
    40     1     2    1
    41    10    13    1
    42    72    71    1
    43    98    99   ar
    44    94    95   ar
    45    38    39    1
    46    81    78   am
    47     2     5    1
    48    71    74    1
    49    40    41    2
    50    40    39    1
    51    78    79    2
    52    78    77    1
    53    58    59    1
    54    33    32    2
    55    25    26    1
    56    32    31    1
    57    99   100    1
    58    99    97   ar
    59    59    60    1
    60    95    97   ar
    61    26    27    1
    62    39    42    1
    63    47    48    1
    64    77    76    1
    65    77    80    1
    66    13    14    1
    67    36    35    2
    68    49    50    2
    69    49    48    1
    70     5     7    1
    71     5     6    1
    72    74    75    1
    73    48    51    1
    74    14    16   ar
    75    14    15   ar
    76    31    30    1
    77    31    34    1
    78    16    18   ar
    79    42    43    1
    80    27    28   ar
    81    27    29   ar
    82    60    61    1
    83     6     8    1
    84    35    34    1
    85    35    37   am
    86    15    17   ar
    87    18    19   ar
    88    51    53    1
    89    51    52    1
    90    43    44    1
    91    17    19   ar
    92    19    20    1
    93    44    45    2
    94    44    46   am
