@<TRIPOS>MOLECULE
tmp/5j8dC01.pdb
 102 99 0 0 0
SMALL
GASTEIGER

@<TRIPOS>ATOM
      1  N         18.5280   35.8550    3.8840 N.3    38  SER38      -0.1202
      2  CA        18.1800   36.1230    5.2770 C.3    38  SER38       0.2020
      3  C         17.5970   34.8420    5.8610 C.2    38  SER38       0.2619
      4  O         17.0660   34.0030    5.1260 O.2    38  SER38      -0.2717
      5  CB        17.1850   37.2880    5.4190 C.3    38  SER38       0.2103
      6  OG        15.9680   37.0290    4.7280 O.3    38  SER38      -0.2182
      7  N         17.7090   34.6980    7.1870 N.am   39  SER39      -0.1937
      8  CA        17.1790   33.5200    7.8730 C.3    39  SER39       0.2055
      9  C         15.6880   33.3410    7.6020 C.2    39  SER39       0.2644
     10  O         14.8900   34.2570    7.8210 O.2    39  SER39      -0.2714
     11  CB        17.4180   33.6220    9.3790 C.3    39  SER39       0.2130
     12  OG        16.8070   32.5370   10.0620 O.3    39  SER39      -0.2179
     13  N         15.3250   32.1380    7.1430 N.am   40  THR40      -0.1936
     14  CA        13.9740   31.7550    6.7250 C.3    40  THR40       0.2028
     15  C         13.4200   32.6480    5.6190 C.2    40  THR40       0.2642
     16  O         12.2010   32.7160    5.4380 O.2    40  THR40      -0.2714
     17  CB        12.9920   31.7220    7.9080 C.3    40  THR40       0.1808
     18  OG1       12.7630   33.0550    8.3850 O.3    40  THR40      -0.2208
     19  CG2       13.5420   30.8640    9.0520 C.3    40  THR40       0.0379
     20  N         14.2920   33.3190    4.8570 N.am   41  ASN41      -0.1971
     21  CA        13.8700   34.3240    3.8820 C.3    41  ASN41       0.1688
     22  C         12.9940   35.3880    4.5440 C.2    41  ASN41       0.2292
     23  O         12.1040   35.9610    3.9170 O.2    41  ASN41      -0.2864
     24  CB        13.1480   33.6670    2.6930 C.3    41  ASN41       0.1181
     25  CG        13.2690   34.4650    1.4150 C.2    41  ASN41       0.2629
     26  OD1       14.1470   35.3260    1.2680 O.2    41  ASN41      -0.2716
     27  ND2       12.3880   34.1690    0.4640 N.am   41  ASN41      -0.0877
     28  N          7.5810   28.3910   -5.4870 N.3   106  ARG106     -0.1231
     29  CA         8.5220   27.6100   -4.6900 C.3   106  ARG106      0.1694
     30  C          7.9110   26.3740   -4.0270 C.2   106  ARG106      0.2592
     31  O          8.6560   25.6000   -3.4140 O.2   106  ARG106     -0.2718
     32  CB         9.1730   28.4970   -3.6280 C.3   106  ARG106      0.0321
     33  CG        10.1930   29.4700   -4.2030 C.3   106  ARG106      0.0489
     34  CD        11.0300   30.1580   -3.1240 C.3   106  ARG106      0.2205
     35  NE        11.7130   29.2040   -2.2520 N.pl3 106  ARG106     -0.0865
     36  CZ        12.8850   28.6360   -2.5250 C.cat 106  ARG106      0.5346
     37  NH1       13.5210   28.9160   -3.6560 N.pl3 106  ARG106      0.1354
     38  NH2       13.4230   27.7810   -1.6600 N.pl3 106  ARG106      0.1354
     39  N          6.5980   26.1540   -4.1280 N.am  107  PHE107     -0.1962
     40  CA         5.9470   25.0020   -3.5060 C.3   107  PHE107      0.1771
     41  C          5.1700   24.2070   -4.5460 C.2   107  PHE107      0.2619
     42  O          4.4010   24.7780   -5.3250 O.2   107  PHE107     -0.2715
     43  CB         4.9970   25.4240   -2.3800 C.3   107  PHE107      0.0574
     44  CG         5.6270   26.3260   -1.3600 C.ar  107  PHE107     -0.0200
     45  CD1        6.7400   25.9140   -0.6440 C.ar  107  PHE107     -0.0042
     46  CD2        5.1030   27.5850   -1.1140 C.ar  107  PHE107     -0.0042
     47  CE1        7.3280   26.7500    0.2990 C.ar  107  PHE107     -0.0003
     48  CE2        5.6850   28.4240   -0.1740 C.ar  107  PHE107     -0.0003
     49  CZ         6.8000   28.0020    0.5310 C.ar  107  PHE107     -0.0000
     50  N          5.3490   22.8860   -4.5390 N.am  108  ASN108     -0.1972
     51  CA         4.6220   22.0130   -5.4500 C.3   108  ASN108      0.1688
     52  C          3.3890   21.3780   -4.8200 C.2   108  ASN108      0.2292
     53  O          2.6000   20.7550   -5.5390 O.2   108  ASN108     -0.2864
     54  CB         5.5460   20.9100   -5.9870 C.3   108  ASN108      0.1181
     55  CG         6.0080   19.9480   -4.9020 C.2   108  ASN108      0.2629
     56  OD1        6.2310   20.3410   -3.7560 O.2   108  ASN108     -0.2716
     57  ND2        6.1550   18.6780   -5.2650 N.am  108  ASN108     -0.0877
     58  N          3.8420   21.3510    1.3510 N.3   112  ALA112     -0.1245
     59  CA         5.1650   21.9680    1.3410 C.3   112  ALA112      0.1562
     60  C          5.1030   23.4140    1.8170 C.2   112  ALA112      0.2260
     61  O          6.0010   23.8780    2.5320 O.2   112  ALA112     -0.2867
     62  CB         5.7800   21.8800   -0.0560 C.3   112  ALA112      0.0290
     63  N          4.6220   23.2260    5.6520 N.3   115  ALA115     -0.1231
     64  CA         5.8540   22.8650    6.3480 C.3   115  ALA115      0.1694
     65  C          6.8260   24.0360    6.3860 C.2   115  ALA115      0.2592
     66  O          7.5130   24.2530    7.3940 O.2   115  ALA115     -0.2718
     67  CB         6.5030   21.6550    5.6780 C.3   115  ALA115      0.0304
     68  N          6.9040   24.7950    5.2930 N.am  116  ASN116     -0.1974
     69  CA         7.7670   25.9690    5.2780 C.3   116  ASN116      0.1688
     70  C          7.2680   27.0260    6.2560 C.2   116  ASN116      0.2292
     71  O          8.0680   27.6300    6.9830 O.2   116  ASN116     -0.2864
     72  CB         7.8540   26.5360    3.8590 C.3   116  ASN116      0.1181
     73  CG         8.7430   27.7630    3.7760 C.2   116  ASN116      0.2629
     74  OD1        8.2770   28.8920    3.9290 O.2   116  ASN116     -0.2716
     75  ND2       10.0310   27.5470    3.5330 N.am  116  ASN116     -0.0877
     76  N          8.0300   25.8140    9.7890 N.3   119  GLY119     -0.1225
     77  CA         9.4390   25.9220   10.1280 C.3   119  GLY119      0.1811
     78  C          9.8690   27.3550   10.3760 C.2   119  GLY119      0.2280
     79  O         10.7060   27.6200   11.2450 O.2   119  GLY119     -0.2866
     80  N          8.4550   28.4390   13.7610 N.3   122  TYR122     -0.1227
     81  CA         9.2000   27.8160   14.8500 C.3   122  TYR122      0.1736
     82  C         10.4420   28.6250   15.2000 C.2   122  TYR122      0.2595
     83  O         10.6900   28.9290   16.3730 O.2   122  TYR122     -0.2718
     84  CB         9.5770   26.3810   14.4740 C.3   122  TYR122      0.0548
     85  CG        10.6720   25.8030   15.3420 C.ar  122  TYR122     -0.0200
     86  CD1       11.9940   25.7880   14.9090 C.ar  122  TYR122     -0.0009
     87  CD2       10.3870   25.2820   16.5960 C.ar  122  TYR122     -0.0009
     88  CE1       13.0010   25.2660   15.7030 C.ar  122  TYR122      0.0417
     89  CE2       11.3850   24.7580   17.3960 C.ar  122  TYR122      0.0417
     90  CZ        12.6900   24.7520   16.9450 C.ar  122  TYR122      0.1957
     91  OH        13.6850   24.2300   17.7380 O.3   122  TYR122     -0.2866
     92  N         11.2360   28.9900   14.1930 N.am  123  PHE123     -0.1976
     93  CA        12.4500   29.7410   14.4820 C.3   123  PHE123      0.1639
     94  C         12.1430   31.1780   14.8910 C.2   123  PHE123      0.2290
     95  O         12.8450   31.7410   15.7430 O.2   123  PHE123     -0.2864
     96  CB        13.3950   29.7090   13.2820 C.3   123  PHE123      0.0560
     97  CG        14.8400   29.7770   13.6720 C.ar  123  PHE123     -0.0200
     98  CD1       15.4540   28.6920   14.2790 C.ar  123  PHE123     -0.0042
     99  CD2       15.5760   30.9330   13.4690 C.ar  123  PHE123     -0.0042
    100  CE1       16.7840   28.7510   14.6580 C.ar  123  PHE123     -0.0003
    101  CE2       16.9040   31.0000   13.8500 C.ar  123  PHE123     -0.0003
    102  CZ        17.5100   29.9070   14.4410 C.ar  123  PHE123     -0.0000
@<TRIPOS>BOND
     1    54    51    1
     2    54    55    1
     3    53    52    2
     4    28    29    1
     5    51    52    1
     6    51    50    1
     7    42    41    2
     8    57    55   am
     9    55    56    2
    10    29    30    1
    11    29    32    1
    12    41    50   am
    13    41    40    1
    14    33    32    1
    15    33    34    1
    16    39    30   am
    17    39    40    1
    18    30    31    2
    19    37    36    1
    20    40    43    1
    21    34    35    1
    22    36    35    2
    23    36    38    1
    24    43    44    1
    25    44    46   ar
    26    44    45   ar
    27    46    48   ar
    28    45    47   ar
    29    48    49   ar
    30    62    59    1
    31    47    49   ar
    32    27    25   am
    33    26    25    2
    34    59    58    1
    35    59    60    1
    36    25    24    1
    37    60    61    2
    38    24    21    1
    39    75    73   am
    40    73    72    1
    41    73    74    2
    42    72    69    1
    43    21    22    1
    44    21    20    1
    45     1     2    1
    46    23    22    2
    47     6     5    1
    48    20    15   am
    49     4     3    2
    50     2     5    1
    51     2     3    1
    52    69    68    1
    53    69    70    1
    54    68    65   am
    55    16    15    2
    56    15    14    1
    57    63    64    1
    58    67    64    1
    59     3     7   am
    60    70    71    2
    61    64    65    1
    62    65    66    2
    63    14    13    1
    64    14    17    1
    65    13     9   am
    66     7     8    1
    67     9    10    2
    68     9     8    1
    69     8    11    1
    70    17    18    1
    71    17    19    1
    72    11    12    1
    73    76    77    1
    74    77    78    1
    75    78    79    2
    76    96    97    1
    77    96    93    1
    78    99    97   ar
    79    99   101   ar
    80    97    98   ar
    81    80    81    1
    82   101   102   ar
    83    92    93    1
    84    92    82   am
    85    98   100   ar
    86   102   100   ar
    87    84    81    1
    88    84    85    1
    89    93    94    1
    90    81    82    1
    91    94    95    2
    92    86    85   ar
    93    86    88   ar
    94    82    83    2
    95    85    87   ar
    96    88    90   ar
    97    87    89   ar
    98    90    89   ar
    99    90    91    1
