@<TRIPOS>MOLECULE
tmp/5j8dC03.pdb
 96 92 0 0 0
SMALL
GASTEIGER

@<TRIPOS>ATOM
      1  N         36.1890   57.9030    2.3560 N.3    13  LYS13      -0.1245
      2  CA        36.0650   58.9700    3.3370 C.3    13  LYS13       0.1561
      3  C         35.6580   60.3070    2.7350 C.2    13  LYS13       0.2260
      4  O         35.3850   61.2430    3.4940 O.2    13  LYS13      -0.2867
      5  CB        37.3820   59.1430    4.1000 C.3    13  LYS13       0.0271
      6  CG        37.8170   57.9000    4.8670 C.3    13  LYS13       0.0035
      7  CD        36.8210   57.5550    5.9720 C.3    13  LYS13       0.0206
      8  CE        37.1730   56.2450    6.6680 C.3    13  LYS13       0.1093
      9  NZ        36.3220   56.0170    7.8750 N.3    13  LYS13      -0.1314
     10  N         27.2590   65.6350   16.6740 N.3    66  THR66      -0.1203
     11  CA        28.2200   64.6500   17.1700 C.3    66  THR66       0.1994
     12  C         28.9020   63.8810   16.0400 C.2    66  THR66       0.2617
     13  O         30.1130   63.6300   16.0900 O.2    66  THR66      -0.2717
     14  CB        27.5160   63.6670   18.1060 C.3    66  THR66       0.1784
     15  OG1       26.7130   64.3950   19.0430 O.3    66  THR66      -0.2211
     16  CG2       28.5400   62.8350   18.8600 C.3    66  THR66       0.0376
     17  N         28.1410   63.4630   15.0320 N.am   67  TYR67      -0.1975
     18  CA        28.6680   62.6330   13.9570 C.3    67  TYR67       0.1639
     19  C         28.9980   63.4430   12.7070 C.2    67  TYR67       0.2290
     20  O         28.8610   62.9430   11.5870 O.2    67  TYR67      -0.2864
     21  CB        27.6760   61.5210   13.6240 C.3    67  TYR67       0.0560
     22  CG        27.3630   60.5920   14.7870 C.ar   67  TYR67      -0.0198
     23  CD1       28.3340   59.7530   15.3130 C.ar   67  TYR67      -0.0009
     24  CD2       26.0910   60.5490   15.3440 C.ar   67  TYR67      -0.0009
     25  CE1       28.0470   58.8930   16.3670 C.ar   67  TYR67       0.0417
     26  CE2       25.7940   59.6980   16.3940 C.ar   67  TYR67       0.0417
     27  CZ        26.7730   58.8730   16.9010 C.ar   67  TYR67       0.1957
     28  OH        26.4680   58.0350   17.9490 O.3    67  TYR67      -0.2866
     29  N         31.6410   64.2720   11.2680 N.3    69  PHE69      -0.1227
     30  CA        32.6350   63.7080   10.3600 C.3    69  PHE69       0.1736
     31  C         32.0190   62.7910    9.3000 C.2    69  PHE69       0.2595
     32  O         32.6690   62.5290    8.2820 O.2    69  PHE69      -0.2718
     33  CB        33.7070   62.9530   11.1520 C.3    69  PHE69       0.0547
     34  CG        34.7000   63.8510   11.8470 C.ar   69  PHE69      -0.0202
     35  CD1       35.0730   65.0680   11.2910 C.ar   69  PHE69      -0.0042
     36  CD2       35.2650   63.4730   13.0570 C.ar   69  PHE69      -0.0042
     37  CE1       35.9910   65.8910   11.9320 C.ar   69  PHE69      -0.0003
     38  CE2       36.1820   64.2930   13.7050 C.ar   69  PHE69      -0.0003
     39  CZ        36.5460   65.5020   13.1420 C.ar   69  PHE69      -0.0000
     40  N         30.7900   62.3050    9.4930 N.am   70  ASN70      -0.1974
     41  CA        30.1060   61.5280    8.4620 C.3    70  ASN70       0.1688
     42  C         29.1370   62.3500    7.6270 C.2    70  ASN70       0.2292
     43  O         28.5660   61.8210    6.6650 O.2    70  ASN70      -0.2864
     44  CB        29.3560   60.3460    9.0860 C.3    70  ASN70       0.1181
     45  CG        30.2980   59.3080    9.6680 C.2    70  ASN70       0.2629
     46  OD1       31.3520   59.0300    9.1000 O.2    70  ASN70      -0.2716
     47  ND2       29.9270   58.7380   10.8100 N.am   70  ASN70      -0.0877
     48  N         30.0320   62.8120    3.7520 N.3    73  LYS73      -0.1245
     49  CA        29.9000   61.5880    2.9690 C.3    73  LYS73       0.1561
     50  C         28.4710   61.4020    2.4770 C.2    73  LYS73       0.2260
     51  O         28.2460   60.9780    1.3340 O.2    73  LYS73      -0.2867
     52  CB        30.3400   60.3840    3.8010 C.3    73  LYS73       0.0271
     53  CG        31.7940   60.4360    4.2350 C.3    73  LYS73       0.0035
     54  CD        32.0330   59.5600    5.4660 C.3    73  LYS73       0.0206
     55  CE        33.3640   59.8870    6.1250 C.3    73  LYS73       0.1093
     56  NZ        33.5300   59.1770    7.4290 N.3    73  LYS73      -0.1314
     57  N         28.2200   53.2030    7.5410 N.3   163  ILE163     -0.1231
     58  CA        28.2610   54.2190    8.5910 C.3   163  ILE163      0.1692
     59  C         27.3280   53.8100    9.7190 C.2   163  ILE163      0.2592
     60  O         26.1160   53.6870    9.5110 O.2   163  ILE163     -0.2718
     61  CB        27.8720   55.6140    8.0670 C.3   163  ILE163      0.0266
     62  CG1       28.8830   56.1020    7.0220 C.3   163  ILE163      0.0019
     63  CG2       27.7690   56.5930    9.2310 C.3   163  ILE163      0.0020
     64  CD1       28.5190   57.4330    6.3830 C.3   163  ILE163      0.0001
     65  N         27.8950   53.5860   10.9050 N.am  164  GLU164     -0.1966
     66  CA        27.1230   53.5040   12.1350 C.3   164  GLU164      0.1733
     67  C         27.1200   54.8140   12.9040 C.2   164  GLU164      0.2616
     68  O         26.3080   54.9770   13.8190 O.2   164  GLU164     -0.2715
     69  CB        27.6700   52.3990   13.0400 C.3   164  GLU164      0.0429
     70  CG        27.1570   51.0170   12.7030 C.3   164  GLU164      0.1163
     71  CD        27.7140   49.9650   13.6390 C.2   164  GLU164      0.3649
     72  OE1       28.6000   50.3040   14.4560 O.co2 164  GLU164     -0.2457
     73  OE2       27.2570   48.8110   13.5570 O.co2 164  GLU164     -0.2457
     74  N         28.0090   55.7390   12.5620 N.am  165  GLY165     -0.1955
     75  CA        28.0720   57.0140   13.2470 C.3   165  GLY165      0.1869
     76  C         27.0190   57.9800   12.7450 C.2   165  GLY165      0.2309
     77  O         27.3050   58.8610   11.9290 O.2   165  GLY165     -0.2863
     78  N         41.3710   60.2360    1.8510 N.3   198  PHE198     -0.1241
     79  CA        42.6800   59.8200    2.3450 C.3   198  PHE198      0.1605
     80  C         42.7820   58.3120    2.5450 C.2   198  PHE198      0.2264
     81  O         43.8990   57.7860    2.6180 O.2   198  PHE198     -0.2867
     82  CB        43.0030   60.5400    3.6620 C.3   198  PHE198      0.0534
     83  CG        42.0170   60.2600    4.7660 C.ar  198  PHE198     -0.0203
     84  CD1       40.9450   61.1080    4.9820 C.ar  198  PHE198     -0.0042
     85  CD2       42.1560   59.1450    5.5810 C.ar  198  PHE198     -0.0042
     86  CE1       40.0320   60.8500    5.9870 C.ar  198  PHE198     -0.0003
     87  CE2       41.2460   58.8820    6.5870 C.ar  198  PHE198     -0.0003
     88  CZ        40.1830   59.7370    6.7890 C.ar  198  PHE198     -0.0000
     89  N         45.5970   54.3580    1.5870 N.3   202  LEU202     -0.1245
     90  CA        46.1710   53.6830    2.7400 C.3   202  LEU202      0.1561
     91  C         46.1150   52.1680    2.5660 C.2   202  LEU202      0.2260
     92  O         45.1690   51.6390    1.9700 O.2   202  LEU202     -0.2867
     93  CB        45.4220   54.0630    4.0130 C.3   202  LEU202      0.0270
     94  CG        45.5910   55.4850    4.5300 C.3   202  LEU202      0.0019
     95  CD1       44.8130   55.6590    5.8270 C.3   202  LEU202      0.0001
     96  CD2       47.0670   55.8010    4.7250 C.3   202  LEU202      0.0001
@<TRIPOS>BOND
     1    51    50    2
     2    89    90    1
     3    78    79    1
     4    92    91    2
     5    79    80    1
     6    79    82    1
     7     1     2    1
     8    50    49    1
     9    80    81    2
    10    91    90    1
    11     3     2    1
    12     3     4    2
    13    90    93    1
    14    49    48    1
    15    49    52    1
    16     2     5    1
    17    82    83    1
    18    52    53    1
    19    93    94    1
    20     5     6    1
    21    53    54    1
    22    94    96    1
    23    94    95    1
    24    83    84   ar
    25    83    85   ar
    26     6     7    1
    27    84    86   ar
    28    54    55    1
    29    85    87   ar
    30     7     8    1
    31    86    88   ar
    32    55    56    1
    33    64    62    1
    34    87    88   ar
    35    43    42    2
    36     8     9    1
    37    62    61    1
    38    57    58    1
    39    42    41    1
    40    61    58    1
    41    61    63    1
    42    32    31    2
    43    41    44    1
    44    41    40    1
    45    58    59    1
    46    44    45    1
    47    46    45    2
    48    31    40   am
    49    31    30    1
    50    60    59    2
    51    45    47   am
    52    59    65   am
    53    30    33    1
    54    30    29    1
    55    65    66    1
    56    33    34    1
    57    35    34   ar
    58    35    37   ar
    59    20    19    2
    60    34    36   ar
    61    77    76    2
    62    37    39   ar
    63    66    67    1
    64    66    69    1
    65    74    67   am
    66    74    75    1
    67    70    69    1
    68    70    71    1
    69    19    18    1
    70    76    75    1
    71    67    68    2
    72    36    38   ar
    73    39    38   ar
    74    73    71   ar
    75    21    18    1
    76    21    22    1
    77    71    72   ar
    78    18    17    1
    79    22    23   ar
    80    22    24   ar
    81    17    12   am
    82    23    25   ar
    83    24    26   ar
    84    12    13    2
    85    12    11    1
    86    25    27   ar
    87    26    27   ar
    88    10    11    1
    89    27    28    1
    90    11    14    1
    91    14    16    1
    92    14    15    1
