@<TRIPOS>MOLECULE
tmp/5j8mB00.pdb
 124 112 0 0 0
SMALL
GASTEIGER

@<TRIPOS>ATOM
      1  N        -47.2160    2.6180   31.3560 N.3    33  LEU33      -0.1245
      2  CA       -48.4500    3.3150   30.9630 C.3    33  LEU33       0.1561
      3  C        -48.1640    4.5620   30.1260 C.2    33  LEU33       0.2260
      4  O        -48.8280    4.7790   29.0970 O.2    33  LEU33      -0.2867
      5  CB       -49.3220    3.6600   32.2070 C.3    33  LEU33       0.0270
      6  CG       -49.8450    2.4280   32.9800 C.3    33  LEU33       0.0019
      7  CD1      -50.6980    2.8390   34.1660 C.3    33  LEU33       0.0001
      8  CD2      -50.6410    1.4670   32.0550 C.3    33  LEU33       0.0001
      9  N        -47.1940    3.4220   26.6750 N.3    36  ASN36      -0.1225
     10  CA       -48.3880    3.0610   25.8890 C.3    36  ASN36       0.1785
     11  C        -49.0670    4.3240   25.3610 C.2    36  ASN36       0.2597
     12  O        -49.4780    4.3710   24.1910 O.2    36  ASN36      -0.2718
     13  CB       -49.3770    2.2550   26.7300 C.3    36  ASN36       0.1169
     14  CG       -48.9620    0.8050   26.9420 C.2    36  ASN36       0.2627
     15  OD1      -47.9250    0.3250   26.4630 O.2    36  ASN36      -0.2716
     16  ND2      -49.7870    0.0540   27.6330 N.am   36  ASN36      -0.0877
     17  N        -49.1710    5.3480   26.2320 N.am   37  SER37      -0.1952
     18  CA       -49.8020    6.6180   25.9070 C.3    37  SER37       0.1924
     19  C        -49.0290    7.2710   24.7600 C.2    37  SER37       0.2314
     20  O        -49.6400    7.6970   23.7790 O.2    37  SER37      -0.2863
     21  CB       -49.8540    7.5200   27.1360 C.3    37  SER37       0.2116
     22  OG       -50.9040    7.0790   27.9890 O.3    37  SER37      -0.2180
     23  N        -47.1070    5.7530   22.4690 N.3    39  ASP39      -0.1225
     24  CA       -47.3610    4.9720   21.2390 C.3    39  ASP39       0.1805
     25  C        -48.7250    5.3410   20.6020 C.2    39  ASP39       0.2597
     26  O        -48.8140    5.5020   19.3840 O.2    39  ASP39      -0.2718
     27  CB       -47.3410    3.4770   21.5480 C.3    39  ASP39       0.1424
     28  CG       -45.9790    2.8870   21.8920 C.2    39  ASP39       0.3668
     29  OD1      -44.9490    3.6040   21.7310 O.co2  39  ASP39      -0.2456
     30  OD2      -45.9390    1.7160   22.3250 O.co2  39  ASP39      -0.2456
     31  N        -49.7900    5.4620   21.4320 N.am   40  ALA40      -0.1979
     32  CA       -51.1260    5.8290   20.9510 C.3    40  ALA40       0.1597
     33  C        -51.1460    7.2700   20.3610 C.2    40  ALA40       0.2287
     34  O        -51.8390    7.5240   19.3700 O.2    40  ALA40      -0.2864
     35  CB       -52.1310    5.6980   22.0740 C.3    40  ALA40       0.0319
     36  N        -49.5170    7.2100   16.8410 N.3    43  LYS43      -0.1245
     37  CA       -50.4660    6.6560   15.8660 C.3    43  LYS43       0.1561
     38  C        -51.4270    7.7180   15.3280 C.2    43  LYS43       0.2260
     39  O        -51.6320    7.7790   14.1130 O.2    43  LYS43      -0.2867
     40  CB       -51.2470    5.4730   16.4530 C.3    43  LYS43       0.0271
     41  CG       -50.4090    4.2100   16.7320 C.3    43  LYS43       0.0035
     42  CD       -51.2820    3.1470   17.3930 C.3    43  LYS43       0.0206
     43  CE       -50.5030    2.0890   18.1530 C.3    43  LYS43       0.1093
     44  NZ       -51.3760    0.9520   18.5680 N.3    43  LYS43      -0.1314
     45  N        -54.4460   10.2460   28.0400 N.3    78  ASP78      -0.1239
     46  CA       -53.7600   10.6680   26.8150 C.3    78  ASP78       0.1674
     47  C        -54.8120   11.0090   25.7630 C.2    78  ASP78       0.2266
     48  O        -55.9620   10.5510   25.8520 O.2    78  ASP78      -0.2867
     49  CB       -52.7620    9.6190   26.3100 C.3    78  ASP78       0.1410
     50  CG       -53.3760    8.3200   25.8030 C.2    78  ASP78       0.3668
     51  OD1      -54.0230    8.3430   24.7210 O.co2  78  ASP78      -0.2456
     52  OD2      -53.1700    7.2790   26.4550 O.co2  78  ASP78      -0.2456
     53  N        -54.7480    7.8540   19.7700 N.3    81  ILE81      -0.1231
     54  CA       -55.7080    7.3050   18.8090 C.3    81  ILE81       0.1692
     55  C        -56.9740    6.6540   19.4710 C.2    81  ILE81       0.2593
     56  O        -58.0310    6.5730   18.8500 O.2    81  ILE81      -0.2718
     57  CB       -55.0070    6.3410   17.8090 C.3    81  ILE81       0.0266
     58  CG1      -55.8690    6.1600   16.5120 C.3    81  ILE81       0.0019
     59  CG2      -54.5990    4.9920   18.4490 C.3    81  ILE81       0.0020
     60  CD1      -55.0940    5.9590   15.2800 C.3    81  ILE81       0.0001
     61  N        -56.8500    6.2010   20.7040 N.am   82  GLY82      -0.1942
     62  CA       -57.9650    5.5280   21.3560 C.3    82  GLY82       0.2014
     63  C        -58.1160    4.0940   20.8790 C.2    82  GLY82       0.2638
     64  O        -57.3170    3.5930   20.0750 O.2    82  GLY82      -0.2714
     65  N        -59.1270    3.4050   21.3910 N.am   83  MET83      -0.1976
     66  CA       -59.3470    2.0090   21.0090 C.3    83  MET83       0.1605
     67  C        -60.8050    1.7970   20.6770 C.2    83  MET83       0.2287
     68  O        -61.6830    2.3160   21.3760 O.2    83  MET83      -0.2864
     69  CB       -58.9150    1.0380   22.1340 C.3    83  MET83       0.0413
     70  CG       -57.4040    0.8940   22.2930 C.3    83  MET83       0.0598
     71  SD       -56.9630   -0.0740   23.7930 S.3    83  MET83      -0.1393
     72  CE       -57.1050    1.1960   25.0750 C.3    83  MET83       0.0692
     73  N        -60.8650   -3.6080   19.5330 N.3    87  ASP87      -0.1239
     74  CA       -59.4860   -3.5490   20.0480 C.3    87  ASP87       0.1674
     75  C        -59.4860   -3.8060   21.5410 C.2    87  ASP87       0.2266
     76  O        -58.6950   -4.6090   22.0340 O.2    87  ASP87      -0.2867
     77  CB       -58.8420   -2.1600   19.8520 C.3    87  ASP87       0.1410
     78  CG       -58.5980   -1.7300   18.4250 C.2    87  ASP87       0.3668
     79  OD1      -58.2630   -2.6150   17.5790 O.co2  87  ASP87      -0.2456
     80  OD2      -58.7080   -0.4960   18.1470 O.co2  87  ASP87      -0.2456
     81  N        -57.4330   -7.0890   22.5330 N.3    91  ASN91      -0.1240
     82  CA       -56.0910   -6.8550   23.0790 C.3    91  ASN91       0.1653
     83  C        -55.7870   -7.9160   24.1440 C.2    91  ASN91       0.2266
     84  O        -54.6350   -8.3050   24.3100 O.2    91  ASN91      -0.2867
     85  CB       -55.9800   -5.4440   23.7190 C.3    91  ASN91       0.1155
     86  CG       -55.7140   -4.2950   22.7550 C.2    91  ASN91       0.2627
     87  OD1      -55.5870   -4.4700   21.5440 O.2    91  ASN91      -0.2716
     88  ND2      -55.6140   -3.0820   23.2780 N.am   91  ASN91      -0.0877
     89  N        -44.5540   -6.5050   25.0470 N.3   120  GLY120     -0.1225
     90  CA       -45.8120   -5.9160   24.5900 C.3   120  GLY120      0.1811
     91  C        -46.9750   -6.0360   25.5550 C.2   120  GLY120      0.2280
     92  O        -48.1240   -5.8880   25.1460 O.2   120  GLY120     -0.2866
     93  N        -48.9270   -2.8430   29.9710 N.3   123  PHE123     -0.1241
     94  CA       -50.1850   -2.4180   30.6140 C.3   123  PHE123      0.1605
     95  C        -50.4500   -3.1610   31.9460 C.2   123  PHE123      0.2264
     96  O        -50.8850   -2.5440   32.9160 O.2   123  PHE123     -0.2867
     97  CB       -51.3780   -2.6220   29.6590 C.3   123  PHE123      0.0534
     98  CG       -52.7260   -2.4440   30.3230 C.ar  123  PHE123     -0.0203
     99  CD1      -53.2270   -1.1750   30.5900 C.ar  123  PHE123     -0.0042
    100  CD2      -53.4730   -3.5500   30.7230 C.ar  123  PHE123     -0.0042
    101  CE1      -54.4730   -1.0140   31.1920 C.ar  123  PHE123     -0.0003
    102  CE2      -54.7060   -3.3900   31.3460 C.ar  123  PHE123     -0.0003
    103  CZ       -55.2050   -2.1240   31.5680 C.ar  123  PHE123     -0.0000
    104  N        -60.3430    1.2870   32.1660 N.3   135  VAL135     -0.1245
    105  CA       -59.8470    1.8900   30.9360 C.3   135  VAL135      0.1561
    106  C        -61.0250    2.5250   30.1770 C.2   135  VAL135      0.2260
    107  O        -61.9120    1.8120   29.6960 O.2   135  VAL135     -0.2867
    108  CB       -59.0090    0.9280   30.0510 C.3   135  VAL135      0.0252
    109  CG1      -58.4780    1.6400   28.7920 C.3   135  VAL135      0.0019
    110  CG2      -57.8610    0.2830   30.8460 C.3   135  VAL135      0.0019
    111  N        -57.4210    7.7790   25.5160 N.3   169  THR169     -0.1218
    112  CA       -57.5090    6.7500   26.5320 C.3   169  THR169      0.1862
    113  C        -57.2420    7.3220   27.9210 C.2   169  THR169      0.2287
    114  O        -56.3130    8.1170   28.1220 O.2   169  THR169     -0.2866
    115  CB       -56.5910    5.5690   26.1410 C.3   169  THR169      0.1770
    116  OG1      -57.0490    5.0230   24.8930 O.3   169  THR169     -0.2211
    117  CG2      -56.5180    4.4630   27.2050 C.3   169  THR169      0.0375
    118  N        -56.6260    5.7260   31.7610 N.3   171  VAL171     -0.1245
    119  CA       -56.3440    4.5340   32.5680 C.3   171  VAL171      0.1561
    120  C        -56.4800    4.9440   34.0310 C.2   171  VAL171      0.2260
    121  O        -55.6990    5.7590   34.5100 O.2   171  VAL171     -0.2867
    122  CB       -54.9630    3.8960   32.2540 C.3   171  VAL171      0.0252
    123  CG1      -54.6850    2.6880   33.1650 C.3   171  VAL171      0.0019
    124  CG2      -54.8540    3.5120   30.7700 C.3   171  VAL171      0.0019
@<TRIPOS>BOND
     1    39    38    2
     2    60    58    1
     3    38    37    1
     4    37    40    1
     5    37    36    1
     6    40    41    1
     7    58    57    1
     8    41    42    1
     9    42    43    1
    10    79    78   ar
    11    57    59    1
    12    57    54    1
    13    80    78   ar
    14    43    44    1
    15    78    77    1
    16    54    55    1
    17    54    53    1
    18    56    55    2
    19    34    33    2
    20    26    25    2
    21    55    61   am
    22    73    74    1
    23    77    74    1
    24    74    75    1
    25    64    63    2
    26    33    32    1
    27    25    24    1
    28    25    31   am
    29    67    66    1
    30    67    68    2
    31    61    62    1
    32    63    62    1
    33    63    65   am
    34    32    31    1
    35    32    35    1
    36    66    65    1
    37    66    69    1
    38    24    27    1
    39    24    23    1
    40    75    76    2
    41    87    86    2
    42    27    28    1
    43    29    28   ar
    44    28    30   ar
    45    69    70    1
    46    70    71    1
    47    81    82    1
    48    86    88   am
    49    86    85    1
    50    82    85    1
    51    82    83    1
    52    20    19    2
    53    71    72    1
    54    83    84    2
    55    12    11    2
    56    90    89    1
    57    90    91    1
    58    51    50   ar
    59    19    18    1
    60   116   115    1
    61    92    91    2
    62    11    10    1
    63    11    17   am
    64   111   112    1
    65    47    48    2
    66    47    46    1
    67    50    49    1
    68    50    52   ar
    69    10     9    1
    70    10    13    1
    71    18    17    1
    72    18    21    1
    73   115   112    1
    74   115   117    1
    75    49    46    1
    76    15    14    2
    77   112   113    1
    78    13    14    1
    79    46    45    1
    80    14    16   am
    81    21    22    1
    82   113   114    2
    83   109   108    1
    84     4     3    2
    85    97    98    1
    86    97    94    1
    87   107   106    2
    88    93    94    1
    89   108   110    1
    90   108   105    1
    91     3     2    1
    92   106   105    1
    93    98    99   ar
    94    98   100   ar
    95    99   101   ar
    96    94    95    1
    97   100   102   ar
    98   124   122    1
    99   105   104    1
   100     2     1    1
   101     2     5    1
   102   101   103   ar
   103   102   103   ar
   104   118   119    1
   105    95    96    2
   106     8     6    1
   107     5     6    1
   108   122   119    1
   109   122   123    1
   110   119   120    1
   111     6     7    1
   112   120   121    2
