@<TRIPOS>MOLECULE
tmp/5j8nA00.pdb
 117 113 0 0 0
SMALL
GASTEIGER

@<TRIPOS>ATOM
      1  N        -12.9060   -0.7310    1.3840 N.3   111  TYR111     -0.1241
      2  CA       -12.1900   -1.6950    2.2110 C.3   111  TYR111      0.1605
      3  C        -11.3140   -0.8770    3.1610 C.2   111  TYR111      0.2264
      4  O        -10.1980   -0.4770    2.8180 O.2   111  TYR111     -0.2867
      5  CB       -11.3350   -2.6470    1.3230 C.3   111  TYR111      0.0534
      6  CG       -10.5270   -3.6450    2.0750 C.ar  111  TYR111     -0.0201
      7  CD1      -11.0490   -4.3190    3.1630 C.ar  111  TYR111     -0.0009
      8  CD2       -9.2130   -3.8970    1.7170 C.ar  111  TYR111     -0.0009
      9  CE1      -10.2730   -5.2210    3.9110 C.ar  111  TYR111      0.0417
     10  CE2       -8.4490   -4.8620    2.4240 C.ar  111  TYR111      0.0417
     11  CZ        -9.0030   -5.5000    3.5310 C.ar  111  TYR111      0.1957
     12  OH        -8.2660   -6.4120    4.2610 O.3   111  TYR111     -0.2866
     13  N         -6.9750   -2.4540    7.8630 N.3   114  ASN114     -0.1240
     14  CA        -6.8270   -3.1310    9.1070 C.3   114  ASN114      0.1653
     15  C         -5.5990   -2.6200    9.8300 C.2   114  ASN114      0.2266
     16  O         -4.5320   -2.4420    9.2410 O.2   114  ASN114     -0.2867
     17  CB        -6.7450   -4.6200    8.8890 C.3   114  ASN114      0.1155
     18  CG        -6.7620   -5.3570   10.1780 C.2   114  ASN114      0.2627
     19  OD1       -5.7040   -5.4940   10.8100 O.2   114  ASN114     -0.2716
     20  ND2       -7.9620   -5.7870   10.6190 N.am  114  ASN114     -0.0877
     21  N         -4.1460   -3.9220   12.6820 N.3   116  LYS116     -0.1245
     22  CA        -3.5020   -4.8320   13.6280 C.3   116  LYS116      0.1561
     23  C         -2.0010   -5.0270   13.4630 C.2   116  LYS116      0.2260
     24  O         -1.3300   -5.3780   14.4390 O.2   116  LYS116     -0.2867
     25  CB        -4.1560   -6.2240   13.5530 C.3   116  LYS116      0.0271
     26  CG        -5.5250   -6.1960   14.1830 C.3   116  LYS116      0.0035
     27  CD        -6.2100   -7.5520   14.2710 C.3   116  LYS116      0.0206
     28  CE        -6.4990   -8.1580   12.8940 C.3   116  LYS116      0.1093
     29  NZ        -7.1450   -9.5210   12.9760 N.3   116  LYS116     -0.1314
     30  N        -13.6200   -2.7520    9.4140 N.3   153  ASN153     -0.1240
     31  CA       -12.5470   -3.3230   10.2420 C.3   153  ASN153      0.1653
     32  C        -12.5810   -2.8270   11.6850 C.2   153  ASN153      0.2266
     33  O        -11.5650   -2.9110   12.3910 O.2   153  ASN153     -0.2867
     34  CB       -11.1480   -3.1110    9.6060 C.3   153  ASN153      0.1155
     35  CG       -10.7030   -4.3110    8.8030 C.2   153  ASN153      0.2627
     36  OD1      -10.7420   -5.4340    9.3020 O.2   153  ASN153     -0.2716
     37  ND2      -10.3700   -4.0980    7.5280 N.am  153  ASN153     -0.0877
     38  N        -10.8960   -8.0480   23.8410 N.3   167  ASN167     -0.1240
     39  CA       -10.4140   -7.4160   22.6120 C.3   167  ASN167      0.1653
     40  C        -10.1830   -5.9110   22.6850 C.2   167  ASN167      0.2266
     41  O         -9.8860   -5.2980   21.6610 O.2   167  ASN167     -0.2867
     42  CB       -11.3380   -7.7650   21.4450 C.3   167  ASN167      0.1155
     43  CG       -11.1220   -9.1980   21.0040 C.2   167  ASN167      0.2627
     44  OD1      -10.0790   -9.5240   20.4770 O.2   167  ASN167     -0.2716
     45  ND2      -12.1140  -10.0440   21.2250 N.am  167  ASN167     -0.0877
     46  N         -6.9980   -4.6770   21.0800 N.3   170  ILE170     -0.1231
     47  CA        -6.8030   -5.1590   19.7120 C.3   170  ILE170      0.1692
     48  C         -7.4220   -4.2030   18.7090 C.2   170  ILE170      0.2593
     49  O         -8.6010   -3.8720   18.8340 O.2   170  ILE170     -0.2718
     50  CB        -7.4560   -6.5570   19.4980 C.3   170  ILE170      0.0266
     51  CG1       -6.8640   -7.5910   20.4640 C.3   170  ILE170      0.0019
     52  CG2       -7.3390   -7.0310   18.0100 C.3   170  ILE170      0.0020
     53  CD1       -5.3820   -7.7140   20.3540 C.3   170  ILE170      0.0001
     54  N         -6.6530   -3.7530   17.7180 N.am  171  SER171     -0.1938
     55  CA        -7.2330   -2.9600   16.6210 C.3   171  SER171      0.2055
     56  C         -8.4180   -3.7010   16.0100 C.2   171  SER171      0.2643
     57  O         -8.3260   -4.8920   15.6660 O.2   171  SER171     -0.2714
     58  CB        -6.1610   -2.6510   15.5540 C.3   171  SER171      0.2130
     59  OG        -6.7960   -1.9420   14.4510 O.3   171  SER171     -0.2179
     60  N         -9.5440   -2.9910   15.8990 N.am  172  GLY172     -0.1954
     61  CA       -10.8280   -3.6200   15.6440 C.3   172  GLY172      0.1869
     62  C        -11.7830   -3.2360   16.7680 C.2   172  GLY172      0.2309
     63  O        -12.9920   -3.1600   16.5610 O.2   172  GLY172     -0.2863
     64  N        -18.1220  -11.3350   10.6800 N.3   205  TRP205     -0.1241
     65  CA       -16.7560  -11.8960   10.5800 C.3   205  TRP205      0.1605
     66  C        -16.5240  -12.8550   11.7100 C.2   205  TRP205      0.2264
     67  O        -16.9490  -12.6110   12.8500 O.2   205  TRP205     -0.2867
     68  CB       -15.6920  -10.7490   10.6530 C.3   205  TRP205      0.0550
     69  CG       -14.3050  -11.3090   10.5970 C.ar  205  TRP205      0.0003
     70  CD1      -13.5680  -11.6190    9.4530 C.ar  205  TRP205      0.0946
     71  CD2      -13.4680  -11.7020   11.7120 C.ar  205  TRP205      0.0152
     72  NE1      -12.3470  -12.1740    9.8060 N.ar  205  TRP205     -0.2442
     73  CE2      -12.2590  -12.2720   11.1760 C.ar  205  TRP205      0.0810
     74  CE3      -13.6370  -11.6940   13.1100 C.ar  205  TRP205      0.0012
     75  CZ2      -11.2320  -12.7380   11.9710 C.ar  205  TRP205      0.0191
     76  CZ3      -12.6060  -12.2160   13.8980 C.ar  205  TRP205      0.0001
     77  CH2      -11.4180  -12.7170   13.3210 C.ar  205  TRP205      0.0015
     78  N        -17.6080  -10.9090   15.0010 N.3   219  TRP219     -0.1241
     79  CA       -17.5320   -9.4400   15.0830 C.3   219  TRP219      0.1605
     80  C        -18.3680   -8.8900   13.9750 C.2   219  TRP219      0.2264
     81  O        -18.3270   -9.4510   12.8760 O.2   219  TRP219     -0.2867
     82  CB       -16.0840   -8.9510   14.8920 C.3   219  TRP219      0.0550
     83  CG       -15.0300   -9.4090   15.8290 C.ar  219  TRP219      0.0003
     84  CD1      -14.7340  -10.6890   16.2240 C.ar  219  TRP219      0.0946
     85  CD2      -14.0250   -8.5670   16.4040 C.ar  219  TRP219      0.0152
     86  NE1      -13.6230  -10.6880   17.0440 N.ar  219  TRP219     -0.2442
     87  CE2      -13.1680   -9.3960   17.1610 C.ar  219  TRP219      0.0810
     88  CE3      -13.7780   -7.1780   16.3480 C.ar  219  TRP219      0.0012
     89  CZ2      -12.0580   -8.8910   17.8600 C.ar  219  TRP219      0.0191
     90  CZ3      -12.6510   -6.6690   17.0570 C.ar  219  TRP219      0.0001
     91  CH2      -11.8180   -7.5360   17.7880 C.ar  219  TRP219      0.0015
     92  N        -18.0540   -6.3200   11.4790 N.3   221  LEU221     -0.1245
     93  CA       -17.0610   -5.4390   10.8430 C.3   221  LEU221      0.1561
     94  C        -17.5730   -4.7940    9.5780 C.2   221  LEU221      0.2260
     95  O        -16.9370   -3.8690    9.0700 O.2   221  LEU221     -0.2867
     96  CB       -15.7960   -6.2330   10.4740 C.3   221  LEU221      0.0270
     97  CG       -15.1570   -6.9800   11.6630 C.3   221  LEU221      0.0019
     98  CD1      -13.9050   -7.6900   11.2040 C.3   221  LEU221      0.0001
     99  CD2      -14.7880   -5.9690   12.7790 C.3   221  LEU221      0.0001
    100  N        -13.9920  -15.3810    5.3740 N.3   247  ASP247     -0.1225
    101  CA       -14.0910  -15.1590    6.8260 C.3   247  ASP247      0.1805
    102  C        -15.1600  -14.1520    7.1740 C.2   247  ASP247      0.2597
    103  O        -15.6100  -14.1620    8.3020 O.2   247  ASP247     -0.2718
    104  CB       -12.7170  -14.7650    7.4500 C.3   247  ASP247      0.1424
    105  CG       -12.0120  -13.5960    6.7710 C.2   247  ASP247      0.3668
    106  OD1      -12.3190  -13.1760    5.6300 O.co2 247  ASP247     -0.2456
    107  OD2      -11.0730  -13.0650    7.4460 O.co2 247  ASP247     -0.2456
    108  N        -15.5340  -13.2710    6.2370 N.am  248  HIS248     -0.1975
    109  CA       -16.6970  -12.4020    6.4070 C.3   248  HIS248      0.1656
    110  C        -17.9150  -13.0330    5.7290 C.2   248  HIS248      0.2291
    111  O        -17.7620  -13.8180    4.7760 O.2   248  HIS248     -0.2864
    112  CB       -16.5080  -11.0380    5.7420 C.3   248  HIS248      0.0771
    113  CG       -15.3860  -10.2260    6.2980 C.ar  248  HIS248      0.0820
    114  ND1      -15.5970   -9.0330    6.9620 N.ar  248  HIS248     -0.2267
    115  CD2      -14.0480  -10.4070    6.2310 C.ar  248  HIS248      0.1154
    116  CE1      -14.4200   -8.5130    7.2830 C.ar  248  HIS248      0.1986
    117  NE2      -13.4770   -9.3380    6.8690 N.ar  248  HIS248     -0.2212
@<TRIPOS>BOND
     1     5     6    1
     2     5     2    1
     3     1     2    1
     4     8     6   ar
     5     8    10   ar
     6     6     7   ar
     7     2     3    1
     8    10    11   ar
     9     4     3    2
    10     7     9   ar
    11    11     9   ar
    12    11    12    1
    13   111   110    2
    14   100   101    1
    15   106   105   ar
    16   110   109    1
    17   112   113    1
    18   112   109    1
    19   115   113   ar
    20   115   117   ar
    21   108   109    1
    22   108   102   am
    23   113   114   ar
    24   105   107   ar
    25   105   104    1
    26   101   102    1
    27   101   104    1
    28   117   116   ar
    29   114   116   ar
    30   102   103    2
    31    37    35   am
    32    13    14    1
    33    35    36    2
    34    35    34    1
    35    17    14    1
    36    17    18    1
    37    95    94    2
    38    14    15    1
    39    16    15    2
    40    30    31    1
    41    70    72   ar
    42    70    69   ar
    43    94    93    1
    44    34    31    1
    45    72    73   ar
    46    18    20   am
    47    18    19    2
    48    31    32    1
    49    96    93    1
    50    96    97    1
    51    65    68    1
    52    65    64    1
    53    65    66    1
    54    69    68    1
    55    69    71   ar
    56    93    92    1
    57    73    71   ar
    58    73    75   ar
    59    98    97    1
    60    97    99    1
    61    32    33    2
    62    66    67    2
    63    71    74   ar
    64    75    77   ar
    65    21    22    1
    66    81    80    2
    67    28    29    1
    68    28    27    1
    69    74    76   ar
    70    77    76   ar
    71    23    22    1
    72    23    24    2
    73    25    22    1
    74    25    26    1
    75    80    79    1
    76    26    27    1
    77    59    58    1
    78    82    79    1
    79    82    83    1
    80    78    79    1
    81    58    55    1
    82    61    60    1
    83    61    62    1
    84    57    56    2
    85    83    84   ar
    86    83    85   ar
    87    60    56   am
    88    56    55    1
    89    84    86   ar
    90    88    85   ar
    91    88    90   ar
    92    85    87   ar
    93    63    62    2
    94    55    54    1
    95    86    87   ar
    96    90    91   ar
    97    87    89   ar
    98    54    48   am
    99    91    89   ar
   100    52    50    1
   101    48    49    2
   102    48    47    1
   103    50    47    1
   104    50    51    1
   105    47    46    1
   106    53    51    1
   107    44    43    2
   108    43    45   am
   109    43    42    1
   110    42    39    1
   111    41    40    2
   112    39    40    1
   113    39    38    1
