@<TRIPOS>MOLECULE
tmp/5j8oB00.pdb
 94 92 0 0 0
SMALL
GASTEIGER

@<TRIPOS>ATOM
      1  N          0.8460   44.4840   26.9940 N.3     2  PHE2       -0.1227
      2  CA         2.0410   44.9350   26.2810 C.3     2  PHE2        0.1736
      3  C          1.8890   44.5820   24.7940 C.2     2  PHE2        0.2596
      4  O          1.5360   43.4510   24.4630 O.2     2  PHE2       -0.2718
      5  CB         3.2920   44.3230   26.8750 C.3     2  PHE2        0.0547
      6  CG         4.5630   44.8600   26.2780 C.ar    2  PHE2       -0.0202
      7  CD1        5.1890   45.9710   26.8190 C.ar    2  PHE2       -0.0042
      8  CD2        5.1280   44.2540   25.1520 C.ar    2  PHE2       -0.0042
      9  CE1        6.3560   46.4720   26.2570 C.ar    2  PHE2       -0.0003
     10  CE2        6.2930   44.7470   24.5900 C.ar    2  PHE2       -0.0003
     11  CZ         6.9130   45.8560   25.1410 C.ar    2  PHE2       -0.0000
     12  N          2.0660   45.5690   23.9160 N.am    3  THR3       -0.1953
     13  CA         2.0140   45.3480   22.4670 C.3     3  THR3        0.1897
     14  C          3.0600   46.1600   21.7060 C.2     3  THR3        0.2313
     15  O          3.2950   47.3550   21.9750 O.2     3  THR3       -0.2863
     16  CB         0.6760   45.7140   21.8360 C.3     3  THR3        0.1794
     17  OG1        0.5540   47.1320   21.7970 O.3     3  THR3       -0.2208
     18  CG2       -0.4920   45.1090   22.5910 C.3     3  THR3        0.0378
     19  N         14.8810   44.4690   26.3690 N.3    37  ILE37      -0.1245
     20  CA        15.5450   43.7160   25.2970 C.3    37  ILE37       0.1561
     21  C         14.8520   43.9800   23.9530 C.2    37  ILE37       0.2260
     22  O         13.6090   43.9140   23.8560 O.2    37  ILE37      -0.2867
     23  CB        15.6160   42.1960   25.6250 C.3    37  ILE37       0.0252
     24  CG1       16.3510   41.9690   26.9610 C.3    37  ILE37       0.0019
     25  CG2       16.3540   41.4220   24.5410 C.3    37  ILE37       0.0019
     26  CD1       15.4270   41.7470   28.1190 C.3    37  ILE37       0.0001
     27  N         15.3720   42.3570   20.0190 N.3    39  TYR39      -0.1241
     28  CA        16.0040   41.5390   18.9370 C.3    39  TYR39       0.1605
     29  C         15.3490   41.9080   17.5810 C.2    39  TYR39       0.2264
     30  O         14.1290   41.9950   17.4760 O.2    39  TYR39      -0.2867
     31  CB        15.8510   40.0180   19.1200 C.3    39  TYR39       0.0534
     32  CG        16.6380   39.3020   20.2370 C.ar   39  TYR39      -0.0201
     33  CD1       17.3720   39.9850   21.2100 C.ar   39  TYR39      -0.0009
     34  CD2       16.5400   37.9150   20.3650 C.ar   39  TYR39      -0.0009
     35  CE1       18.0320   39.2940   22.2440 C.ar   39  TYR39       0.0417
     36  CE2       17.1850   37.2140   21.3920 C.ar   39  TYR39       0.0417
     37  CZ        17.9210   37.9090   22.3280 C.ar   39  TYR39       0.1957
     38  OH        18.5780   37.2150   23.2870 O.3    39  TYR39      -0.2866
     39  N         11.2280   42.0020   18.0680 N.3    98  MET98      -0.1230
     40  CA        10.8630   41.2600   19.2630 C.3    98  MET98       0.1702
     41  C         11.2690   42.1170   20.4640 C.2    98  MET98       0.2592
     42  O         12.3930   42.5710   20.5190 O.2    98  MET98      -0.2718
     43  CB        11.6510   39.9670   19.2950 C.3    98  MET98       0.0401
     44  CG        11.4000   39.0380   18.1260 C.3    98  MET98       0.0596
     45  SD        12.6000   37.7170   18.1510 S.3    98  MET98      -0.1393
     46  CE        12.1040   36.7710   19.5870 C.3    98  MET98       0.0692
     47  N         10.3590   42.3510   21.4050 N.am   99  ILE99      -0.1966
     48  CA        10.6230   43.2740   22.5020 C.3    99  ILE99       0.1727
     49  C         10.0760   42.7650   23.7960 C.2    99  ILE99       0.2616
     50  O          8.9140   42.4470   23.8940 O.2    99  ILE99      -0.2715
     51  CB        10.0320   44.6780   22.2440 C.3    99  ILE99       0.0290
     52  CG1       10.4780   45.1710   20.8590 C.3    99  ILE99       0.0022
     53  CG2       10.5060   45.6800   23.3280 C.3    99  ILE99       0.0023
     54  CD1       10.1260   46.6040   20.5550 C.3    99  ILE99       0.0001
     55  N         10.9470   42.7030   24.7850 N.am  100  SER100     -0.1950
     56  CA        10.5930   42.4350   26.1490 C.3   100  SER100      0.1924
     57  C         10.8180   43.7680   26.8750 C.2   100  SER100      0.2314
     58  O         11.9210   44.3850   26.7800 O.2   100  SER100     -0.2863
     59  CB        11.5080   41.3530   26.7310 C.3   100  SER100      0.2116
     60  OG        11.1710   41.0700   28.0790 O.3   100  SER100     -0.2180
     61  N          6.0150   41.3670   26.7370 N.3   104  ALA104     -0.1231
     62  CA         6.7580   40.7750   25.6300 C.3   104  ALA104      0.1694
     63  C          5.8690   40.5940   24.4280 C.2   104  ALA104      0.2592
     64  O          4.7630   40.1100   24.5560 O.2   104  ALA104     -0.2718
     65  CB         7.3180   39.4280   26.0550 C.3   104  ALA104      0.0304
     66  N          6.3690   40.9700   23.2610 N.am  105  ASP105     -0.1960
     67  CA         5.6160   40.9000   22.0140 C.3   105  ASP105      0.1840
     68  C          6.6280   40.9320   20.8550 C.2   105  ASP105      0.2622
     69  O          7.8000   41.2530   21.0640 O.2   105  ASP105     -0.2715
     70  CB         4.6270   42.0820   21.9070 C.3   105  ASP105      0.1450
     71  CG         3.5990   41.9190   20.7750 C.2   105  ASP105      0.3671
     72  OD1        3.1820   40.7940   20.5160 O.co2 105  ASP105     -0.2456
     73  OD2        3.1630   42.9320   20.1460 O.co2 105  ASP105     -0.2456
     74  N          6.1800   40.5380   19.6590 N.am  106  TYR106     -0.1960
     75  CA         6.9170   40.7700   18.4110 C.3   106  TYR106      0.1771
     76  C          5.9270   40.9030   17.2760 C.2   106  TYR106      0.2619
     77  O          4.8350   40.3310   17.3350 O.2   106  TYR106     -0.2715
     78  CB         7.9070   39.6270   18.1090 C.3   106  TYR106      0.0574
     79  CG         7.3000   38.3940   17.4430 C.ar  106  TYR106     -0.0198
     80  CD1        7.2770   38.2510   16.0490 C.ar  106  TYR106     -0.0009
     81  CD2        6.7400   37.3880   18.2040 C.ar  106  TYR106     -0.0009
     82  CE1        6.6960   37.1470   15.4600 C.ar  106  TYR106      0.0417
     83  CE2        6.1540   36.2820   17.6220 C.ar  106  TYR106      0.0417
     84  CZ         6.1570   36.1620   16.2370 C.ar  106  TYR106      0.1957
     85  OH         5.6040   35.0510   15.6570 O.3   106  TYR106     -0.2866
     86  N          6.3460   41.6310   16.2350 N.am  107  LYS107     -0.1977
     87  CA         5.5800   41.8180   15.0160 C.3   107  LYS107      0.1596
     88  C          6.4600   41.6110   13.7880 C.2   107  LYS107      0.2287
     89  O          7.6900   41.8100   13.8320 O.2   107  LYS107     -0.2864
     90  CB         4.9580   43.2200   14.9780 C.3   107  LYS107      0.0298
     91  CG         3.8340   43.4630   16.0070 C.3   107  LYS107      0.0038
     92  CD         2.4570   42.9080   15.5930 C.3   107  LYS107      0.0206
     93  CE         1.3000   43.5190   16.4080 C.3   107  LYS107      0.1093
     94  NZ         1.5600   43.6050   17.8860 N.3   107  LYS107     -0.1314
@<TRIPOS>BOND
     1    88    89    2
     2    88    87    1
     3    90    87    1
     4    90    91    1
     5    87    86    1
     6    82    80   ar
     7    82    84   ar
     8    92    91    1
     9    92    93    1
    10    85    84    1
    11    80    79   ar
    12    86    76   am
    13    84    83   ar
    14    93    94    1
    15    76    77    2
    16    76    75    1
    17    79    78    1
    18    79    81   ar
    19    30    29    2
    20    29    28    1
    21    83    81   ar
    22    39    40    1
    23    78    75    1
    24    44    45    1
    25    44    43    1
    26    45    46    1
    27    75    74    1
    28    28    31    1
    29    28    27    1
    30    31    32    1
    31    40    43    1
    32    40    41    1
    33    74    68   am
    34    73    71   ar
    35    32    34   ar
    36    32    33   ar
    37    34    36   ar
    38    41    42    2
    39    41    47   am
    40    72    71   ar
    41    54    52    1
    42    71    70    1
    43    68    69    2
    44    68    67    1
    45    52    51    1
    46    33    35   ar
    47    36    37   ar
    48    47    48    1
    49    14    15    2
    50    14    13    1
    51    17    16    1
    52    16    13    1
    53    16    18    1
    54    70    67    1
    55    67    66    1
    56    51    48    1
    57    51    53    1
    58    35    37   ar
    59    37    38    1
    60    13    12    1
    61    48    49    1
    62    66    63   am
    63    49    50    2
    64    49    55   am
    65    22    21    2
    66    12     3   am
    67    21    20    1
    68    63    64    2
    69    63    62    1
    70     4     3    2
    71    25    23    1
    72    10    11   ar
    73    10     8   ar
    74    55    56    1
    75     3     2    1
    76    11     9   ar
    77     8     6   ar
    78    20    23    1
    79    20    19    1
    80    23    24    1
    81    62    65    1
    82    62    61    1
    83    56    59    1
    84    56    57    1
    85     9     7   ar
    86     6     7   ar
    87     6     5    1
    88     2     5    1
    89     2     1    1
    90    59    60    1
    91    58    57    2
    92    24    26    1
