@<TRIPOS>MOLECULE
tmp/5j8qA00.pdb
 111 102 0 0 0
SMALL
GASTEIGER

@<TRIPOS>ATOM
      1  N         54.0330   17.5620   51.9410 N.3    28  ALA28      -0.1231
      2  CA        52.5740   17.3330   52.0290 C.3    28  ALA28       0.1694
      3  C         51.9540   16.8190   50.7380 C.2    28  ALA28       0.2591
      4  O         50.8910   16.2650   50.7830 O.2    28  ALA28      -0.2718
      5  CB        51.8220   18.5790   52.4990 C.3    28  ALA28       0.0304
      6  N         52.6140   17.0660   49.6030 N.am   29  ALA29      -0.1980
      7  CA        52.2130   16.4780   48.3330 C.3    29  ALA29       0.1597
      8  C         52.7660   15.0620   48.2140 C.2    29  ALA29       0.2287
      9  O         52.0250   14.1480   47.8720 O.2    29  ALA29      -0.2864
     10  CB        52.6580   17.3320   47.1590 C.3    29  ALA29       0.0319
     11  N         46.1070    3.3190   48.3540 N.3    91  GLY91      -0.1210
     12  CA        46.3370    4.6330   48.9420 C.3    91  GLY91       0.1956
     13  C         45.1290    5.0840   49.7440 C.2    91  GLY91       0.2613
     14  O         44.0890    4.4290   49.7680 O.2    91  GLY91      -0.2717
     15  N         45.2660    6.2340   50.3620 N.am   92  THR92      -0.1938
     16  CA        44.1840    6.7930   51.2070 C.3    92  THR92       0.2028
     17  C         42.9130    6.9200   50.4140 C.2    92  THR92       0.2642
     18  O         41.8230    6.6180   50.9010 O.2    92  THR92      -0.2714
     19  CB        44.5870    8.1940   51.7810 C.3    92  THR92       0.1808
     20  OG1       45.6990    8.0370   52.6710 O.3    92  THR92      -0.2208
     21  CG2       43.4830    8.8600   52.5400 C.3    92  THR92       0.0379
     22  N         43.0270    7.4700   49.2130 N.am   93  THR93      -0.1950
     23  CA        41.8040    7.6670   48.3940 C.3    93  THR93       0.1897
     24  C         41.0490    6.3400   48.1850 C.2    93  THR93       0.2313
     25  O         39.8250    6.2840   48.3820 O.2    93  THR93      -0.2863
     26  CB        42.1630    8.3370   47.0650 C.3    93  THR93       0.1794
     27  OG1       42.8600    9.5650   47.3350 O.3    93  THR93      -0.2208
     28  CG2       40.9260    8.5560   46.1920 C.3    93  THR93       0.0378
     29  N         39.8760   17.1210   52.4310 N.3   121  HIS121     -0.1241
     30  CA        40.4550   16.8740   51.1530 C.3   121  HIS121      0.1621
     31  C         39.3450   16.2280   50.2960 C.2   121  HIS121      0.2264
     32  O         38.4770   15.5210   50.7970 O.2   121  HIS121     -0.2867
     33  CB        41.6410   15.8960   51.3830 C.3   121  HIS121      0.0745
     34  CG        42.4710   15.5890   50.1800 C.ar  121  HIS121      0.0817
     35  ND1       42.0520   14.7450   49.1700 N.ar  121  HIS121     -0.2268
     36  CD2       43.7540   15.8890   49.8980 C.ar  121  HIS121      0.1154
     37  CE1       43.0060   14.6020   48.2810 C.ar  121  HIS121      0.1986
     38  NE2       44.0550   15.2830   48.7040 N.ar  121  HIS121     -0.2212
     39  N         39.3320   13.5540   48.6010 N.3   123  ALA123     -0.1245
     40  CA        39.2550   12.1440   48.8360 C.3   123  ALA123      0.1562
     41  C         38.2500   11.7910   49.9300 C.2   123  ALA123      0.2260
     42  O         37.7030   10.7060   49.9180 O.2   123  ALA123     -0.2867
     43  CB        40.5910   11.6060   49.2400 C.3   123  ALA123      0.0290
     44  N         39.2510   14.7000   58.6110 N.3   169  SER169     -0.1217
     45  CA        40.6930   14.6000   58.5770 C.3   169  SER169      0.1889
     46  C         41.2840   14.6560   59.9940 C.2   169  SER169      0.2288
     47  O         40.8200   15.3920   60.8680 O.2   169  SER169     -0.2866
     48  CB        41.3410   15.6940   57.7290 C.3   169  SER169      0.2089
     49  OG        40.9280   16.8940   58.2460 O.3   169  SER169     -0.2183
     50  N         44.5200   15.5820   60.3400 N.3   171  VAL171     -0.1245
     51  CA        45.2560   16.8060   60.1500 C.3   171  VAL171      0.1561
     52  C         44.9240   17.3460   58.7840 C.2   171  VAL171      0.2260
     53  O         44.9260   16.5920   57.7990 O.2   171  VAL171     -0.2867
     54  CB        46.7760   16.5710   60.2630 C.3   171  VAL171      0.0252
     55  CG1       47.5740   17.8210   59.8710 C.3   171  VAL171      0.0019
     56  CG2       47.1340   16.1010   61.6470 C.3   171  VAL171      0.0019
     57  N         45.8030   19.2160   55.3900 N.3   173  ASN173     -0.1240
     58  CA        46.9380   19.4850   54.5530 C.3   173  ASN173      0.1653
     59  C         47.0400   20.9470   54.0880 C.2   173  ASN173      0.2266
     60  O         47.9480   21.2710   53.3190 O.2   173  ASN173     -0.2867
     61  CB        46.8250   18.5820   53.2710 C.3   173  ASN173      0.1155
     62  CG        45.4990   18.8210   52.5000 C.2   173  ASN173      0.2627
     63  OD1       44.3200   18.7790   53.0490 O.2   173  ASN173     -0.2716
     64  ND2       45.6530   19.0610   51.2380 N.am  173  ASN173     -0.0877
     65  N         40.4570   10.2910   57.9980 N.3   198  ASP198     -0.1239
     66  CA        41.4780   10.4680   56.9620 C.3   198  ASP198      0.1674
     67  C         42.7780   10.8510   57.6560 C.2   198  ASP198      0.2266
     68  O         42.9650   11.9810   58.1290 O.2   198  ASP198     -0.2867
     69  CB        41.0350   11.5050   55.9330 C.3   198  ASP198      0.1410
     70  CG        42.1080   11.8690   54.9480 C.2   198  ASP198      0.3668
     71  OD1       43.2160   11.3630   55.0260 O.co2 198  ASP198     -0.2456
     72  OD2       41.7690   12.7580   54.0660 O.co2 198  ASP198     -0.2456
     73  N         45.8900   10.6360   56.3260 N.3   200  ALA200     -0.1231
     74  CA        47.0230   10.7410   55.3660 C.3   200  ALA200      0.1694
     75  C         48.1040   11.7290   55.8140 C.2   200  ALA200      0.2591
     76  O         49.2490   11.5070   55.5280 O.2   200  ALA200     -0.2718
     77  CB        46.4940   11.1120   53.9820 C.3   200  ALA200      0.0304
     78  N         47.7060   12.8320   56.4800 N.am  201  GLN201     -0.1979
     79  CA        48.6370   13.8850   56.8540 C.3   201  GLN201      0.1601
     80  C         49.0560   13.7440   58.3170 C.2   201  GLN201      0.2287
     81  O         49.9780   14.3980   58.7390 O.2   201  GLN201     -0.2864
     82  CB        48.0120   15.2370   56.5340 C.3   201  GLN201      0.0394
     83  CG        48.9520   16.3880   56.6500 C.3   201  GLN201      0.0908
     84  CD        50.0490   16.3530   55.5110 C.2   201  GLN201      0.2608
     85  OE1       49.8290   15.9180   54.3760 O.2   201  GLN201     -0.2717
     86  NE2       51.1840   16.7520   55.8910 N.am  201  GLN201     -0.0878
     87  N         48.3920    6.8200   53.5750 N.3   221  SER221     -0.1217
     88  CA        49.1500    6.6440   52.3540 C.3   221  SER221      0.1889
     89  C         50.6660    6.4780   52.6080 C.2   221  SER221      0.2288
     90  O         51.3120    7.3280   53.2250 O.2   221  SER221     -0.2866
     91  CB        48.9500    7.8390   51.3960 C.3   221  SER221      0.2089
     92  OG        47.6490    7.8440   50.8020 O.3   221  SER221     -0.2183
     93  N         53.0990    6.9340   50.4190 N.3   223  HIS223     -0.1226
     94  CA        53.9630    7.8910   49.7500 C.3   223  HIS223      0.1752
     95  C         54.1970    9.1770   50.5300 C.2   223  HIS223      0.2595
     96  O         55.1890    9.8610   50.2750 O.2   223  HIS223     -0.2718
     97  CB        53.4580    8.1950   48.3130 C.3   223  HIS223      0.0759
     98  CG        52.2750    9.0850   48.2630 C.ar  223  HIS223      0.0818
     99  ND1       52.3880   10.4440   48.1330 N.ar  223  HIS223     -0.2268
    100  CD2       50.9520    8.8390   48.3250 C.ar  223  HIS223      0.1154
    101  CE1       51.2010   11.0020   48.1320 C.ar  223  HIS223      0.1986
    102  NE2       50.3090   10.0550   48.2810 N.ar  223  HIS223     -0.2212
    103  N         53.3390    9.4660   51.5160 N.am  224  LYS224     -0.1980
    104  CA        53.5330   10.6380   52.3850 C.3   224  LYS224      0.1596
    105  C         54.4200   10.3720   53.6240 C.2   224  LYS224      0.2287
    106  O         54.8100   11.3080   54.2850 O.2   224  LYS224     -0.2864
    107  CB        52.1750   11.1230   52.8490 C.3   224  LYS224      0.0298
    108  CG        51.3770   11.7280   51.6900 C.3   224  LYS224      0.0038
    109  CD        50.2110   12.4780   52.0590 C.3   224  LYS224      0.0206
    110  CE        49.6570   13.1390   50.7990 C.3   224  LYS224      0.1093
    111  NZ        48.2410   13.3950   51.0600 N.3   224  LYS224     -0.1314
@<TRIPOS>BOND
     1    28    26    1
     2    26    27    1
     3    26    23    1
     4    10     7    1
     5     9     8    2
     6   101    99   ar
     7   101   102   ar
     8    99    98   ar
     9    24    25    2
    10    24    23    1
    11     8     7    1
    12    98    97    1
    13    98   100   ar
    14    37    38   ar
    15    37    35   ar
    16   102   100   ar
    17    97    94    1
    18     7     6    1
    19    11    12    1
    20    23    22    1
    21    39    40    1
    22    38    36   ar
    23    40    43    1
    24    40    41    1
    25    12    13    1
    26    35    34   ar
    27    22    17   am
    28     6     3   am
    29    13    14    2
    30    13    15   am
    31    94    93    1
    32    94    95    1
    33    36    34   ar
    34    42    41    2
    35    34    33    1
    36    96    95    2
    37    31    32    2
    38    31    30    1
    39    15    16    1
    40    17    18    2
    41    17    16    1
    42    95   103   am
    43     3     4    2
    44     3     2    1
    45   110   111    1
    46   110   109    1
    47    92    91    1
    48    30    33    1
    49    30    29    1
    50    16    19    1
    51    64    62   am
    52    91    88    1
    53   103   104    1
    54   108   109    1
    55   108   107    1
    56    19    21    1
    57    19    20    1
    58     1     2    1
    59     2     5    1
    60    88    89    1
    61    88    87    1
    62   104   107    1
    63   104   105    1
    64    62    63    2
    65    62    61    1
    66    89    90    2
    67    61    58    1
    68    60    59    2
    69   105   106    2
    70    77    74    1
    71    72    70   ar
    72    59    58    1
    73    85    84    2
    74    58    57    1
    75    70    71   ar
    76    70    69    1
    77    74    75    1
    78    74    73    1
    79    84    86   am
    80    84    83    1
    81    76    75    2
    82    75    78   am
    83    69    66    1
    84    78    79    1
    85    82    83    1
    86    82    79    1
    87    79    80    1
    88    66    67    1
    89    66    65    1
    90    67    68    2
    91    48    49    1
    92    48    45    1
    93    53    52    2
    94    80    81    2
    95    45    44    1
    96    45    46    1
    97    52    51    1
    98    55    54    1
    99    46    47    2
   100    51    54    1
   101    51    50    1
   102    54    56    1
