@<TRIPOS>MOLECULE
tmp/5j8xA00.pdb
 120 114 0 0 0
SMALL
GASTEIGER

@<TRIPOS>ATOM
      1  N         16.7960    4.3280  301.3030 N.3    41  SER41      -0.1217
      2  CA        16.1230    5.6820  301.0890 C.3    41  SER41       0.1889
      3  C         16.6470    6.4080  299.8310 C.2    41  SER41       0.2288
      4  O         16.1220    7.4240  299.4880 O.2    41  SER41      -0.2866
      5  CB        16.3190    6.5650  302.3860 C.3    41  SER41       0.2089
      6  OG        15.5510    5.9910  303.4640 O.3    41  SER41      -0.2183
      7  N         14.1530    7.4460  297.5020 N.3    44  LYS44      -0.1245
      8  CA        13.4650    8.7250  297.6270 C.3    44  LYS44       0.1561
      9  C         13.9510    9.7510  296.6130 C.2    44  LYS44       0.2260
     10  O         13.2650   10.7560  296.3940 O.2    44  LYS44      -0.2867
     11  CB        13.6260    9.2640  299.0500 C.3    44  LYS44       0.0271
     12  CG        12.9440    8.3950  300.1030 C.3    44  LYS44       0.0035
     13  CD        13.1460    8.9400  301.5100 C.3    44  LYS44       0.0206
     14  CE        12.3410    8.1510  302.5350 C.3    44  LYS44       0.1093
     15  NZ        12.8390    6.7670  302.7080 N.3    44  LYS44      -0.1314
     16  N         14.2240   12.1230  305.1980 N.3    92  SER92      -0.1217
     17  CA        14.0350   10.7370  304.7820 C.3    92  SER92       0.1889
     18  C         12.7840   10.1390  305.4300 C.2    92  SER92       0.2288
     19  O         12.7550    8.9590  305.7770 O.2    92  SER92      -0.2866
     20  CB        15.2720    9.8950  305.1050 C.3    92  SER92       0.2089
     21  OG        15.3170    8.7220  304.3130 O.3    92  SER92      -0.2183
     22  N          9.5370    8.2980  305.7420 N.3    94  ASN94      -0.1240
     23  CA         8.7640    7.3410  304.9530 C.3    94  ASN94       0.1653
     24  C          7.2890    7.7080  304.9090 C.2    94  ASN94       0.2266
     25  O          6.6210    7.4650  303.8980 O.2    94  ASN94      -0.2867
     26  CB         8.9280    5.9290  305.5200 C.3    94  ASN94       0.1155
     27  CG        10.3520    5.4210  305.4100 C.2    94  ASN94       0.2627
     28  OD1       11.1070    5.8580  304.5430 O.2    94  ASN94      -0.2716
     29  ND2       10.7260    4.4940  306.2860 N.am   94  ASN94      -0.0877
     30  N          9.3070    4.5460  299.4220 N.3   133  HIS133     -0.1226
     31  CA        10.2260    5.0500  300.4300 C.3   133  HIS133      0.1752
     32  C         11.5790    4.3590  300.4380 C.2   133  HIS133      0.2597
     33  O         12.5380    4.9350  300.9590 O.2   133  HIS133     -0.2718
     34  CB         9.6020    4.9210  301.8270 C.3   133  HIS133      0.0759
     35  CG         8.6680    3.7580  301.9630 C.ar  133  HIS133      0.0818
     36  ND1        9.0460    2.4620  301.6810 N.ar  133  HIS133     -0.2268
     37  CD2        7.3690    3.6960  302.3440 C.ar  133  HIS133      0.1154
     38  CE1        8.0230    1.6520  301.8890 C.ar  133  HIS133      0.1986
     39  NE2        6.9930    2.3750  302.2890 N.ar  133  HIS133     -0.2212
     40  N         11.6900    3.1540  299.8870 N.am  134  GLY134     -0.1942
     41  CA        12.9570    2.4630  299.8070 C.3   134  GLY134      0.2014
     42  C         13.1610    1.3670  300.8280 C.2   134  GLY134      0.2638
     43  O         14.2550    0.7900  300.8780 O.2   134  GLY134     -0.2714
     44  N         12.1590    1.0660  301.6490 N.am  135  LEU135     -0.1977
     45  CA        12.2840   -0.0490  302.5760 C.3   135  LEU135      0.1596
     46  C         12.5250   -1.3400  301.8010 C.2   135  LEU135      0.2287
     47  O         12.0910   -1.4920  300.6570 O.2   135  LEU135     -0.2864
     48  CB        11.0290   -0.1610  303.4450 C.3   135  LEU135      0.0297
     49  CG        10.7770    0.9950  304.4210 C.3   135  LEU135      0.0022
     50  CD1        9.4420    0.8060  305.1070 C.3   135  LEU135      0.0001
     51  CD2       11.8920    1.1130  305.4640 C.3   135  LEU135      0.0001
     52  N         19.9230   15.0950  306.6950 N.3   180  ARG180     -0.1245
     53  CA        20.7730   13.9730  307.0720 C.3   180  ARG180      0.1563
     54  C         22.0540   13.8950  306.2530 C.2   180  ARG180      0.2260
     55  O         22.9070   13.0530  306.5500 O.2   180  ARG180     -0.2867
     56  CB        20.0000   12.6590  306.9360 C.3   180  ARG180      0.0307
     57  CG        18.7840   12.5650  307.8510 C.3   180  ARG180      0.0489
     58  CD        18.1240   11.2030  307.7680 C.3   180  ARG180      0.2205
     59  NE        16.9120   11.1510  308.5770 N.pl3 180  ARG180     -0.0865
     60  CZ        16.8910   10.9230  309.8860 C.cat 180  ARG180      0.5346
     61  NH1       18.0220   10.7230  310.5450 N.pl3 180  ARG180      0.1354
     62  NH2       15.7360   10.8990  310.5370 N.pl3 180  ARG180      0.1354
     63  N         20.9230   10.5160  301.4200 N.3   196  THR196     -0.1203
     64  CA        21.4260    9.4040  302.2130 C.3   196  THR196      0.1994
     65  C         20.3820    8.2960  302.2820 C.2   196  THR196      0.2618
     66  O         19.2130    8.4770  301.9390 O.2   196  THR196     -0.2717
     67  CB        21.7900    9.8430  303.6410 C.3   196  THR196      0.1784
     68  OG1       20.6090   10.2630  304.3430 O.3   196  THR196     -0.2211
     69  CG2       22.8080   10.9670  303.6290 C.3   196  THR196      0.0376
     70  N         20.8240    7.1390  302.7550 N.am  197  GLY197     -0.1942
     71  CA        19.9230    6.0340  303.0140 C.3   197  GLY197      0.2014
     72  C         20.6480    4.9400  303.7590 C.2   197  GLY197      0.2639
     73  O         21.8820    4.8870  303.7780 O.2   197  GLY197     -0.2714
     74  N         19.8630    4.0850  304.4080 N.am  198  HIS198     -0.1959
     75  CA        20.4260    2.9030  305.0410 C.3   198  HIS198      0.1787
     76  C         19.3010    1.9460  305.4060 C.2   198  HIS198      0.2621
     77  O         18.2080    2.3820  305.7750 O.2   198  HIS198     -0.2715
     78  CB        21.2450    3.2770  306.2880 C.3   198  HIS198      0.0785
     79  CG        20.4240    3.4240  307.5300 C.ar  198  HIS198      0.0821
     80  ND1       19.6430    4.5310  307.7800 N.ar  198  HIS198     -0.2267
     81  CD2       20.2690    2.6060  308.5970 C.ar  198  HIS198      0.1154
     82  CE1       19.0340    4.3840  308.9430 C.ar  198  HIS198      0.1986
     83  NE2       19.3970    3.2240  309.4590 N.ar  198  HIS198     -0.2212
     84  N         19.5710    0.6470  305.2620 N.am  199  THR199     -0.1937
     85  CA        18.7160   -0.4190  305.7700 C.3   199  THR199      0.2028
     86  C         19.6070   -1.5950  306.1310 C.2   199  THR199      0.2642
     87  O         20.8110   -1.5940  305.8630 O.2   199  THR199     -0.2714
     88  CB        17.6520   -0.8710  304.7580 C.3   199  THR199      0.1808
     89  OG1       18.2870   -1.4070  303.5910 O.3   199  THR199     -0.2208
     90  CG2       16.7400    0.2740  304.3660 C.3   199  THR199      0.0379
     91  N         19.0010   -2.6150  306.7340 N.am  200  ASP200     -0.1971
     92  CA        19.7700   -3.7920  307.1170 C.3   200  ASP200      0.1709
     93  C         20.3280   -4.5100  305.8920 C.2   200  ASP200      0.2293
     94  O         21.4850   -4.9470  305.8980 O.2   200  ASP200     -0.2864
     95  CB        18.9040   -4.7300  307.9590 C.3   200  ASP200      0.1436
     96  CG        18.6790   -4.2060  309.3750 C.2   200  ASP200      0.3671
     97  OD1       19.4910   -3.3770  309.8370 O.co2 200  ASP200     -0.2456
     98  OD2       17.6980   -4.6240  310.0300 O.co2 200  ASP200     -0.2456
     99  N         27.9730    4.3930  309.6140 N.3   227  PHE227     -0.1241
    100  CA        27.2260    5.6360  309.4760 C.3   227  PHE227      0.1605
    101  C         28.1570    6.7980  309.1490 C.2   227  PHE227      0.2264
    102  O         27.9270    7.5410  308.1870 O.2   227  PHE227     -0.2867
    103  CB        26.4390    5.8950  310.7600 C.3   227  PHE227      0.0534
    104  CG        25.8080    7.2450  310.8220 C.ar  227  PHE227     -0.0203
    105  CD1       24.8760    7.6320  309.8740 C.ar  227  PHE227     -0.0042
    106  CD2       26.1330    8.1290  311.8370 C.ar  227  PHE227     -0.0042
    107  CE1       24.2900    8.8810  309.9310 C.ar  227  PHE227     -0.0003
    108  CE2       25.5490    9.3790  311.8990 C.ar  227  PHE227     -0.0003
    109  CZ        24.6290    9.7560  310.9470 C.ar  227  PHE227     -0.0000
    110  N         29.9670    6.5390  305.7420 N.3   230  ARG230     -0.1245
    111  CA        29.1240    6.9350  304.6200 C.3   230  ARG230      0.1563
    112  C         29.6140    8.2350  303.9960 C.2   230  ARG230      0.2260
    113  O         29.8420    8.3140  302.7830 O.2   230  ARG230     -0.2867
    114  CB        27.6860    7.0780  305.1170 C.3   230  ARG230      0.0307
    115  CG        26.6810    7.3380  304.0520 C.3   230  ARG230      0.0489
    116  CD        25.2920    6.9550  304.5290 C.3   230  ARG230      0.2205
    117  NE        24.7360    7.8490  305.5320 N.pl3 230  ARG230     -0.0865
    118  CZ        23.5230    7.6970  306.0570 C.cat 230  ARG230      0.5346
    119  NH1       22.7540    6.6860  305.6820 N.pl3 230  ARG230      0.1354
    120  NH2       23.0700    8.5510  306.9570 N.pl3 230  ARG230      0.1354
@<TRIPOS>BOND
     1    10     9    2
     2     9     8    1
     3     7     8    1
     4     8    11    1
     5    11    12    1
     6    30    31    1
     7     4     3    2
     8    41    40    1
     9    41    42    1
    10     3     2    1
    11    40    32   am
    12    12    13    1
    13    31    32    1
    14    31    34    1
    15    32    33    2
    16    47    46    2
    17    42    43    2
    18    42    44   am
    19     2     1    1
    20     2     5    1
    21    63    64    1
    22    13    14    1
    23    44    45    1
    24    36    38   ar
    25    36    35   ar
    26    46    45    1
    27    34    35    1
    28    38    39   ar
    29    66    65    2
    30    35    37   ar
    31    64    65    1
    32    64    67    1
    33    65    70   am
    34    39    37   ar
    35     5     6    1
    36    14    15    1
    37    45    48    1
    38    70    71    1
    39   113   112    2
    40    71    72    1
    41    48    49    1
    42    89    88    1
    43    69    67    1
    44    67    68    1
    45    72    73    2
    46    72    74   am
    47    25    24    2
    48   112   111    1
    49   115   116    1
    50   115   114    1
    51    21    20    1
    52    90    88    1
    53    74    75    1
    54    49    50    1
    55    49    51    1
    56   116   117    1
    57    28    27    2
    58   111   114    1
    59   111   110    1
    60    88    85    1
    61    17    20    1
    62    17    16    1
    63    17    18    1
    64    24    23    1
    65    23    26    1
    66    23    22    1
    67    75    76    1
    68    75    78    1
    69    84    76   am
    70    84    85    1
    71    76    77    2
    72    27    26    1
    73    27    29   am
    74    18    19    2
    75   117   118    2
    76   119   118    1
    77    85    86    1
    78    87    86    2
    79    93    94    2
    80    93    92    1
    81   118   120    1
    82    86    91   am
    83    54    55    2
    84    54    53    1
    85    78    79    1
    86    52    53    1
    87    91    92    1
    88    56    53    1
    89    56    57    1
    90    92    95    1
    91    79    80   ar
    92    79    81   ar
    93    58    57    1
    94    58    59    1
    95    80    82   ar
    96    95    96    1
    97   102   101    2
    98    59    60    2
    99    81    83   ar
   100    82    83   ar
   101   101   100    1
   102    96    97   ar
   103    96    98   ar
   104   100    99    1
   105   100   103    1
   106   105   107   ar
   107   105   104   ar
   108    60    62    1
   109    60    61    1
   110   107   109   ar
   111   103   104    1
   112   104   106   ar
   113   109   108   ar
   114   106   108   ar
