@<TRIPOS>MOLECULE
tmp/5j8zA01.pdb
 183 177 0 0 0
SMALL
GASTEIGER

@<TRIPOS>ATOM
      1  N        -12.8140    4.8320    5.6120 N.3    70  GLU70      -0.1245
      2  CA       -12.7950    6.1820    6.1760 C.3    70  GLU70       0.1567
      3  C        -14.1370    6.8940    6.0670 C.2    70  GLU70       0.2260
      4  O        -14.8860    6.6750    5.1160 O.2    70  GLU70      -0.2867
      5  CB       -11.7200    7.0120    5.4620 C.3    70  GLU70       0.0388
      6  CG       -10.3830    6.2880    5.3410 C.3    70  GLU70       0.1160
      7  CD        -9.4590    6.9140    4.3070 C.2    70  GLU70       0.3649
      8  OE1       -9.9600    7.6040    3.3930 O.co2  70  GLU70      -0.2457
      9  OE2       -8.2340    6.6930    4.3980 O.co2  70  GLU70      -0.2457
     10  N        -15.5930   13.1050    8.9400 N.3    73  ASP73      -0.1239
     11  CA       -15.6850   13.4670   10.3450 C.3    73  ASP73       0.1674
     12  C        -15.5720   14.9730   10.5460 C.2    73  ASP73       0.2266
     13  O        -15.1140   15.4260   11.5950 O.2    73  ASP73      -0.2867
     14  CB       -14.5940   12.7460   11.1480 C.3    73  ASP73       0.1410
     15  CG       -13.1940   13.1630   10.7380 C.2    73  ASP73       0.3668
     16  OD1      -13.0320   13.7670    9.6500 O.co2  73  ASP73      -0.2456
     17  OD2      -12.2430   12.8740   11.4950 O.co2  73  ASP73      -0.2456
     18  N        -13.9820    8.2030   12.6850 N.3    92  ILE92      -0.1231
     19  CA       -13.1240    8.6500   11.5990 C.3    92  ILE92       0.1692
     20  C        -12.8030    7.5020   10.6470 C.2    92  ILE92       0.2591
     21  O        -12.6840    7.7020    9.4350 O.2    92  ILE92      -0.2718
     22  CB       -11.8160    9.2800   12.1360 C.3    92  ILE92       0.0266
     23  CG1      -10.8970    9.6360   10.9620 C.3    92  ILE92       0.0019
     24  CG2      -11.1310    8.3370   13.1220 C.3    92  ILE92       0.0020
     25  CD1       -9.7850   10.5850   11.3370 C.3    92  ILE92       0.0001
     26  N        -12.6710    6.2970   11.1900 N.am   93  GLN93      -0.1979
     27  CA       -12.3790    5.1380   10.3460 C.3    93  GLN93       0.1601
     28  C        -12.5380    3.8490   11.1170 C.2    93  GLN93       0.2287
     29  O        -12.6150    3.8630   12.3370 O.2    93  GLN93      -0.2864
     30  CB       -10.9300    5.2050    9.8210 C.3    93  GLN93       0.0394
     31  CG        -9.8560    5.3100   10.9400 C.3    93  GLN93       0.0908
     32  CD        -9.0660    4.0190   11.1690 C.2    93  GLN93       0.2608
     33  OE1       -9.5950    2.9110   11.0470 O.2    93  GLN93      -0.2717
     34  NE2       -7.7940    4.1670   11.5280 N.am   93  GLN93      -0.0878
     35  N        -11.2000   -0.4950   10.8490 N.3    95  HIS95      -0.1241
     36  CA       -10.3390   -1.4740   10.1980 C.3    95  HIS95       0.1621
     37  C        -10.4060   -2.7360   11.0300 C.2    95  HIS95       0.2264
     38  O        -11.0760   -2.7720   12.0780 O.2    95  HIS95      -0.2867
     39  CB        -8.8840   -1.0150   10.1640 C.3    95  HIS95       0.0745
     40  CG        -8.3460   -0.6640   11.5130 C.ar   95  HIS95       0.0817
     41  ND1       -8.5360    0.5570   12.1220 N.ar   95  HIS95      -0.2268
     42  CD2       -7.6710   -1.4270   12.4120 C.ar   95  HIS95       0.1154
     43  CE1       -7.9890    0.4940   13.3450 C.ar   95  HIS95       0.1986
     44  NE2       -7.4540   -0.6930   13.5570 N.ar   95  HIS95      -0.2212
     45  N         -8.0270   -6.5000   12.2570 N.3    97  HIS97      -0.1241
     46  CA        -6.7550   -7.1930   12.4730 C.3    97  HIS97       0.1621
     47  C         -7.2330   -8.6440   12.3710 C.2    97  HIS97       0.2264
     48  O         -8.2790   -8.9890   12.9290 O.2    97  HIS97      -0.2867
     49  CB        -6.1980   -6.9310   13.8700 C.3    97  HIS97       0.0745
     50  CG        -5.8620   -5.4970   14.1130 C.ar   97  HIS97       0.0817
     51  ND1       -4.6270   -4.9390   13.8560 N.ar   97  HIS97      -0.2268
     52  CD2       -6.6510   -4.4750   14.5280 C.ar   97  HIS97       0.1154
     53  CE1       -4.7090   -3.6170   14.1220 C.ar   97  HIS97       0.1986
     54  NE2       -5.9170   -3.2920   14.5310 N.ar   97  HIS97      -0.2212
     55  N        -12.0380   -2.6290   14.7230 N.3   120  HIS120     -0.1241
     56  CA       -11.7630   -1.4380   15.5080 C.3   120  HIS120      0.1621
     57  C        -12.4370   -0.2310   14.8570 C.2   120  HIS120      0.2264
     58  O        -12.0810    0.1490   13.7360 O.2   120  HIS120     -0.2867
     59  CB       -10.2440   -1.1990   15.5840 C.3   120  HIS120      0.0745
     60  CG        -9.5270   -2.1820   16.4590 C.ar  120  HIS120      0.0817
     61  ND1       -8.1580   -2.3390   16.4100 N.ar  120  HIS120     -0.2268
     62  CD2      -10.0400   -3.0090   17.4040 C.ar  120  HIS120      0.1154
     63  CE1       -7.8720   -3.2510   17.3220 C.ar  120  HIS120      0.1986
     64  NE2       -8.9750   -3.6890   17.9510 N.ar  120  HIS120     -0.2212
     65  N        -12.7120    3.4730   15.1580 N.3   122  VAL122     -0.1245
     66  CA       -11.9300    4.5540   15.7530 C.3   122  VAL122      0.1561
     67  C        -12.6470    5.8980   15.7990 C.2   122  VAL122      0.2260
     68  O        -13.0910    6.3920   14.7670 O.2   122  VAL122     -0.2867
     69  CB       -10.6060    4.7080   14.9620 C.3   122  VAL122      0.0252
     70  CG1       -9.6960    5.7070   15.6370 C.3   122  VAL122      0.0019
     71  CG2       -9.9200    3.3430   14.8370 C.3   122  VAL122      0.0019
     72  N         -9.3600   18.1910   16.0970 N.3   130  ASP130     -0.1225
     73  CA        -9.0210   17.3110   14.9860 C.3   130  ASP130      0.1805
     74  C         -8.3170   16.0770   15.5230 C.2   130  ASP130      0.2598
     75  O         -7.8320   16.0640   16.6580 O.2   130  ASP130     -0.2718
     76  CB        -8.1720   18.0420   13.9100 C.3   130  ASP130      0.1424
     77  CG        -6.7750   18.4130   14.3870 C.2   130  ASP130      0.3668
     78  OD1       -5.9600   17.5080   14.6580 O.co2 130  ASP130     -0.2456
     79  OD2       -6.4730   19.6230   14.4830 O.co2 130  ASP130     -0.2456
     80  N         -8.2910   15.0330   14.7050 N.am  131  PHE131     -0.1962
     81  CA        -7.6880   13.7660   15.0760 C.3   131  PHE131      0.1771
     82  C         -6.2280   13.8940   15.4750 C.2   131  PHE131      0.2620
     83  O         -5.7930   13.2670   16.4440 O.2   131  PHE131     -0.2715
     84  CB        -7.8130   12.7800   13.9170 C.3   131  PHE131      0.0574
     85  CG        -7.3010   11.4150   14.2310 C.ar  131  PHE131     -0.0200
     86  CD1       -8.1040   10.4920   14.8960 C.ar  131  PHE131     -0.0042
     87  CD2       -6.0190   11.0420   13.8620 C.ar  131  PHE131     -0.0042
     88  CE1       -7.6330    9.2200   15.1820 C.ar  131  PHE131     -0.0003
     89  CE2       -5.5350    9.7760   14.1400 C.ar  131  PHE131     -0.0003
     90  CZ        -6.3410    8.8560   14.8030 C.ar  131  PHE131     -0.0000
     91  N         -5.4740   14.6850   14.7140 N.am  132  GLY132     -0.1954
     92  CA        -4.0650   14.8760   15.0130 C.3   132  GLY132      0.1869
     93  C         -3.8230   15.4170   16.4140 C.2   132  GLY132      0.2309
     94  O         -2.8600   15.0270   17.0660 O.2   132  GLY132     -0.2863
     95  N         -4.8830   12.5330   19.2610 N.3   135  VAL135     -0.1231
     96  CA        -3.9740   11.4310   19.6060 C.3   135  VAL135      0.1692
     97  C         -2.8770   11.8450   20.5790 C.2   135  VAL135      0.2591
     98  O         -2.1640   10.9980   21.1000 O.2   135  VAL135     -0.2718
     99  CB        -3.3110   10.7490   18.3470 C.3   135  VAL135      0.0266
    100  CG1       -4.3870   10.1800   17.4420 C.3   135  VAL135      0.0020
    101  CG2       -2.4290   11.7290   17.5880 C.3   135  VAL135      0.0020
    102  N         -2.7540   13.1450   20.8350 N.am  136  GLN136     -0.1979
    103  CA        -1.7430   13.6420   21.7710 C.3   136  GLN136      0.1601
    104  C         -2.3410   13.8290   23.1760 C.2   136  GLN136      0.2287
    105  O         -1.6740   14.3390   24.0830 O.2   136  GLN136     -0.2864
    106  CB        -1.1850   14.9740   21.2620 C.3   136  GLN136      0.0394
    107  CG        -0.5750   14.8660   19.8750 C.3   136  GLN136      0.0908
    108  CD        -0.0490   16.1880   19.3570 C.2   136  GLN136      0.2608
    109  OE1        0.8180   16.8110   19.9740 O.2   136  GLN136     -0.2717
    110  NE2       -0.5690   16.6260   18.2130 N.am  136  GLN136     -0.0878
    111  N         -8.9340    9.5550   22.1160 N.3   141  LEU141     -0.1245
    112  CA        -9.6110    8.5870   21.2700 C.3   141  LEU141      0.1561
    113  C        -10.4590    7.5870   22.0330 C.2   141  LEU141      0.2260
    114  O        -10.2360    7.3350   23.2170 O.2   141  LEU141     -0.2867
    115  CB        -8.5710    7.8000   20.4540 C.3   141  LEU141      0.0270
    116  CG        -8.1580    8.2880   19.0610 C.3   141  LEU141      0.0019
    117  CD1       -7.5970    9.6860   19.1420 C.3   141  LEU141      0.0001
    118  CD2       -7.1330    7.3300   18.4720 C.3   141  LEU141      0.0001
    119  N        -11.8500    3.7480   21.0190 N.3   143  VAL143     -0.1245
    120  CA       -11.9190    2.7310   19.9720 C.3   143  VAL143      0.1561
    121  C        -12.8720    1.6500   20.4460 C.2   143  VAL143      0.2260
    122  O        -12.7370    1.1330   21.5620 O.2   143  VAL143     -0.2867
    123  CB       -10.5450    2.0880   19.6570 C.3   143  VAL143      0.0252
    124  CG1      -10.6900    1.1090   18.4780 C.3   143  VAL143      0.0019
    125  CG2       -9.5430    3.1590   19.2970 C.3   143  VAL143      0.0019
    126  N         -2.8720    3.0880   21.1060 N.3   198  LEU198     -0.1231
    127  CA        -3.0240    2.6500   19.7230 C.3   198  LEU198      0.1693
    128  C         -2.2730    1.3180   19.7430 C.2   198  LEU198      0.2593
    129  O         -1.2650    1.1870   20.4550 O.2   198  LEU198     -0.2718
    130  CB        -2.2910    3.6020   18.7760 C.3   198  LEU198      0.0284
    131  CG        -2.7700    5.0510   18.7400 C.3   198  LEU198      0.0019
    132  CD1       -1.8920    5.8600   17.7840 C.3   198  LEU198      0.0001
    133  CD2       -4.2450    5.0800   18.2900 C.3   198  LEU198      0.0001
    134  N         -2.7300    0.3340   18.9750 N.am  199  THR199     -0.1939
    135  CA        -2.0400   -0.9520   18.9640 C.3   199  THR199      0.2028
    136  C         -0.9730   -1.0840   17.8790 C.2   199  THR199      0.2643
    137  O         -0.4100   -2.1640   17.7060 O.2   199  THR199     -0.2714
    138  CB        -3.0130   -2.1080   18.8160 C.3   199  THR199      0.1808
    139  OG1       -3.6050   -2.0510   17.5140 O.3   199  THR199     -0.2208
    140  CG2       -4.0940   -2.0270   19.8980 C.3   199  THR199      0.0379
    141  N         -0.7380   -0.0160   17.1120 N.am  200  THR200     -0.1937
    142  CA         0.3480   -0.0240   16.1260 C.3   200  THR200      0.2013
    143  C          1.1270    1.2680   16.3310 C.2   200  THR200      0.2484
    144  O          0.6170    2.2280   16.9130 O.2   200  THR200     -0.2729
    145  CB        -0.1140   -0.0060   14.6410 C.3   200  THR200      0.1807
    146  OG1       -0.6730    1.2750   14.3250 O.3   200  THR200     -0.2208
    147  CG2       -1.1340   -1.0960   14.3630 C.3   200  THR200      0.0379
    148  N          2.3780    1.3070   15.8610 N.am  201  PRO201     -0.2715
    149  CA         3.1630    2.5340   16.0170 C.3   201  PRO201      0.1521
    150  C          2.2870    3.6590   15.4720 C.2   201  PRO201      0.2440
    151  O          1.5720    3.4610   14.4870 O.2   201  PRO201     -0.2731
    152  CB         4.3790    2.2580   15.1420 C.3   201  PRO201      0.0310
    153  CG         4.6100    0.7910   15.3920 C.3   201  PRO201      0.0237
    154  CD         3.1980    0.2170   15.2980 C.3   201  PRO201      0.0939
    155  N          2.3640    4.8670   16.0510 N.am  202  PRO202     -0.2727
    156  CA         3.1890    5.3350   17.1690 C.3   202  PRO202      0.1402
    157  C          2.8390    4.8630   18.5860 C.2   202  PRO202      0.2269
    158  O          3.4170    5.3600   19.5460 O.2   202  PRO202     -0.2865
    159  CB         3.1160    6.8540   17.0280 C.3   202  PRO202      0.0296
    160  CG         1.7300    7.0680   16.5350 C.3   202  PRO202      0.0237
    161  CD         1.5530    5.9740   15.4980 C.3   202  PRO202      0.0939
    162  N          0.6540    5.5390   20.6640 N.3   204  LEU204     -0.1245
    163  CA         0.2950    6.6150   21.5880 C.3   204  LEU204      0.1561
    164  C         -0.7480    6.1850   22.6250 C.2   204  LEU204      0.2260
    165  O         -1.7260    5.5070   22.3060 O.2   204  LEU204     -0.2867
    166  CB        -0.2050    7.8240   20.7890 C.3   204  LEU204      0.0270
    167  CG         0.8580    8.3900   19.8330 C.3   204  LEU204      0.0019
    168  CD1        0.2310    9.4520   18.9430 C.3   204  LEU204      0.0001
    169  CD2        2.0200    8.9890   20.6410 C.3   204  LEU204      0.0001
    170  N        -10.4070    2.2910   25.6040 N.3   209  TRP209     -0.1241
    171  CA       -10.8610    1.1100   24.8940 C.3   209  TRP209      0.1605
    172  C        -12.2110    0.6300   25.3920 C.2   209  TRP209      0.2264
    173  O        -12.4510    0.5600   26.5950 O.2   209  TRP209     -0.2867
    174  CB        -9.8290   -0.0160   25.0390 C.3   209  TRP209      0.0550
    175  CG        -8.7440    0.0990   24.0180 C.ar  209  TRP209      0.0003
    176  CD1       -7.5150    0.6790   24.1710 C.ar  209  TRP209      0.0946
    177  CD2       -8.8230   -0.3350   22.6610 C.ar  209  TRP209      0.0152
    178  NE1       -6.8240    0.6330   22.9830 N.ar  209  TRP209     -0.2442
    179  CE2       -7.6060    0.0120   22.0410 C.ar  209  TRP209      0.0810
    180  CE3       -9.8120   -0.9880   21.9080 C.ar  209  TRP209      0.0012
    181  CZ2       -7.3440   -0.2700   20.7000 C.ar  209  TRP209      0.0191
    182  CZ3       -9.5530   -1.2720   20.5690 C.ar  209  TRP209      0.0001
    183  CH2       -8.3250   -0.9110   19.9810 C.ar  209  TRP209      0.0015
@<TRIPOS>BOND
     1     8     7   ar
     2     7     9   ar
     3     7     6    1
     4     4     3    2
     5     6     5    1
     6     5     2    1
     7     1     2    1
     8     3     2    1
     9    10    11    1
    10    21    20    2
    11    16    15   ar
    12    30    27    1
    13    30    31    1
    14    39    36    1
    15    39    40    1
    16    36    35    1
    17    36    37    1
    18    11    12    1
    19    11    14    1
    20    27    28    1
    21    27    26    1
    22    12    13    2
    23    20    26   am
    24    20    19    1
    25    15    14    1
    26    15    17   ar
    27    31    32    1
    28    23    25    1
    29    23    22    1
    30    37    38    2
    31    33    32    2
    32    28    29    2
    33    32    34   am
    34    40    41   ar
    35    40    42   ar
    36    19    22    1
    37    19    18    1
    38    41    43   ar
    39    22    24    1
    40    45    46    1
    41    47    46    1
    42    47    48    2
    43    42    44   ar
    44    46    49    1
    45    43    44   ar
    46    58    57    2
    47    51    50   ar
    48    51    53   ar
    49    87    89   ar
    50    87    85   ar
    51    49    50    1
    52    76    77    1
    53    76    73    1
    54    84    85    1
    55    84    81    1
    56    50    52   ar
    57    53    54   ar
    58    89    90   ar
    59    85    86   ar
    60   146   145    1
    61   147   145    1
    62    77    79   ar
    63    77    78   ar
    64   151   150    2
    65    52    54   ar
    66   145   142    1
    67    80    81    1
    68    80    74   am
    69    91    92    1
    70    91    82   am
    71    55    56    1
    72    68    67    2
    73    90    88   ar
    74    71    69    1
    75    57    56    1
    76    86    88   ar
    77    69    70    1
    78    69    66    1
    79    73    74    1
    80    73    72    1
    81    92    93    1
    82    81    82    1
    83   152   153    1
    84   152   149    1
    85    65    66    1
    86   154   153    1
    87   154   148    1
    88   150   149    1
    89   150   155   am
    90    82    83    2
    91   161   155    1
    92   161   160    1
    93    56    59    1
    94    74    75    2
    95    59    60    1
    96    66    67    1
    97   148   149    1
    98   148   143   am
    99   155   156    1
   100   142   143    1
   101   142   141    1
   102   143   144    2
   103    61    60   ar
   104    61    63   ar
   105    93    94    2
   106    60    62   ar
   107   160   159    1
   108   159   156    1
   109   141   136   am
   110   156   157    1
   111    63    64   ar
   112    62    64   ar
   113   100    99    1
   114   139   138    1
   115   101    99    1
   116   137   136    2
   117   132   131    1
   118   136   135    1
   119   110   108   am
   120   133   131    1
   121    99    96    1
   122   118   116    1
   123   124   123    1
   124   157   158    2
   125   131   130    1
   126   130   127    1
   127   138   135    1
   128   138   140    1
   129   168   167    1
   130   135   134    1
   131   134   128   am
   132   116   117    1
   133   116   115    1
   134    95    96    1
   135   125   123    1
   136   108   107    1
   137   108   109    2
   138    96    97    1
   139   123   120    1
   140   127   128    1
   141   127   126    1
   142   128   129    2
   143   167   169    1
   144   167   166    1
   145   107   106    1
   146   120   121    1
   147   120   119    1
   148   183   182   ar
   149   183   181   ar
   150   121   122    2
   151   115   112    1
   152   182   180   ar
   153    97   102   am
   154    97    98    2
   155   162   163    1
   156   181   179   ar
   157   166   163    1
   158   102   103    1
   159   106   103    1
   160   112   113    1
   161   112   111    1
   162   163   164    1
   163   103   104    1
   164   180   177   ar
   165   113   114    2
   166   179   177   ar
   167   179   178   ar
   168   165   164    2
   169   177   175   ar
   170   178   176   ar
   171   104   105    2
   172   175   176   ar
   173   175   174    1
   174   171   174    1
   175   171   172    1
   176   171   170    1
   177   172   173    2
