@<TRIPOS>MOLECULE
tmp/5j94A00.pdb
 117 113 0 0 0
SMALL
GASTEIGER

@<TRIPOS>ATOM
      1  N         -5.2140   -2.8080  -30.4370 N.3     5  TRP5       -0.1227
      2  CA        -4.4100   -3.8670  -29.8360 C.3     5  TRP5        0.1737
      3  C         -2.9630   -3.8670  -30.3100 C.2     5  TRP5        0.2595
      4  O         -2.2640   -4.8660  -30.1050 O.2     5  TRP5       -0.2718
      5  CB        -5.0430   -5.2310  -30.1230 C.3     5  TRP5        0.0564
      6  CG        -5.4220   -5.4280  -31.5610 C.ar    5  TRP5        0.0003
      7  CD1       -4.6970   -6.0750  -32.5200 C.ar    5  TRP5        0.0946
      8  CD2       -6.6240   -4.9800  -32.2010 C.ar    5  TRP5        0.0152
      9  NE1       -5.3720   -6.0550  -33.7170 N.ar    5  TRP5       -0.2442
     10  CE2       -6.5570   -5.3880  -33.5480 C.ar    5  TRP5        0.0810
     11  CE3       -7.7480   -4.2710  -31.7660 C.ar    5  TRP5        0.0012
     12  CZ2       -7.5720   -5.1130  -34.4620 C.ar    5  TRP5        0.0191
     13  CZ3       -8.7540   -3.9980  -32.6760 C.ar    5  TRP5        0.0001
     14  CH2       -8.6580   -4.4180  -34.0090 C.ar    5  TRP5        0.0015
     15  N         -2.5460   -2.7770  -30.9480 N.am    6  GLU6       -0.1965
     16  CA        -1.2290   -2.7000  -31.5610 C.3     6  GLU6        0.1733
     17  C         -0.4690   -1.4200  -31.2210 C.2     6  GLU6        0.2617
     18  O         -1.0250   -0.3220  -31.2040 O.2     6  GLU6       -0.2715
     19  CB        -1.3410   -2.8500  -33.0810 C.3     6  GLU6        0.0429
     20  CG        -1.2420   -4.2840  -33.5720 C.3     6  GLU6        0.1163
     21  CD        -0.7590   -4.3770  -35.0070 C.2     6  GLU6        0.3649
     22  OE1       -0.6160   -3.3200  -35.6570 O.co2   6  GLU6       -0.2457
     23  OE2       -0.5230   -5.5070  -35.4840 O.co2   6  GLU6       -0.2457
     24  N          0.8190   -1.5980  -30.9580 N.am    7  GLY7       -0.1940
     25  CA         1.7650   -0.5270  -30.6980 C.3     7  GLY7        0.2014
     26  C          1.5780    0.2340  -29.3860 C.2     7  GLY7        0.2639
     27  O          0.8300   -0.1760  -28.5400 O.2     7  GLY7       -0.2714
     28  N          2.2080    1.4130  -29.2930 N.am    8  ARG8       -0.1963
     29  CA         2.4430    2.1190  -28.0490 C.3     8  ARG8        0.1729
     30  C          1.2970    2.9890  -27.5740 C.2     8  ARG8        0.2616
     31  O          0.7860    3.8420  -28.3000 O.2     8  ARG8       -0.2715
     32  CB         3.7190    2.9620  -28.1550 C.3     8  ARG8        0.0348
     33  CG         4.4540    3.1430  -26.8370 C.3     8  ARG8        0.0492
     34  CD         5.3320    4.3840  -26.8610 C.3     8  ARG8        0.2205
     35  NE         4.5610    5.6040  -26.6420 N.pl3   8  ARG8       -0.0865
     36  CZ         4.6930    6.3910  -25.5790 C.cat   8  ARG8        0.5346
     37  NH1        5.5700    6.0860  -24.6310 N.pl3   8  ARG8        0.1354
     38  NH2        3.9490    7.4820  -25.4620 N.pl3   8  ARG8        0.1354
     39  N          0.9190    2.7570  -26.3270 N.am    9  ALA9       -0.1977
     40  CA         0.0100    3.5980  -25.6160 C.3     9  ALA9        0.1597
     41  C          0.8350    4.6620  -24.9480 C.2     9  ALA9        0.2287
     42  O          1.9720    4.4080  -24.6470 O.2     9  ALA9       -0.2864
     43  CB        -0.6890    2.7750  -24.6250 C.3     9  ALA9        0.0319
     44  N          2.1130    7.0890  -21.8470 N.3    11  ASP11      -0.1239
     45  CA         2.4650    6.7510  -20.4720 C.3    11  ASP11       0.1674
     46  C          1.4810    7.3060  -19.4420 C.2    11  ASP11       0.2266
     47  O          1.3810    6.7840  -18.3310 O.2    11  ASP11      -0.2867
     48  CB         3.8820    7.2320  -20.1500 C.3    11  ASP11       0.1410
     49  CG         4.9290    6.6000  -21.0470 C.2    11  ASP11       0.3668
     50  OD1        5.3250    5.4460  -20.7790 O.co2  11  ASP11      -0.2456
     51  OD2        5.3550    7.2570  -22.0190 O.co2  11  ASP11      -0.2456
     52  N         -3.5940   -6.6700  -17.8980 N.3   126  GLU126     -0.1231
     53  CA        -3.5520   -5.2570  -17.5340 C.3   126  GLU126      0.1699
     54  C         -3.0350   -4.3880  -18.6710 C.2   126  GLU126      0.2592
     55  O         -3.4100   -3.2140  -18.7680 O.2   126  GLU126     -0.2718
     56  CB        -2.6900   -5.0520  -16.2880 C.3   126  GLU126      0.0402
     57  CG        -3.2740   -5.6420  -15.0160 C.3   126  GLU126      0.1161
     58  CD        -2.6000   -5.1110  -13.7650 C.2   126  GLU126      0.3649
     59  OE1       -2.8670   -3.9480  -13.3940 O.co2 126  GLU126     -0.2457
     60  OE2       -1.7990   -5.8510  -13.1580 O.co2 126  GLU126     -0.2457
     61  N         -2.2010   -4.9750  -19.5230 N.am  127  LYS127     -0.1980
     62  CA        -1.6870   -4.2900  -20.6990 C.3   127  LYS127      0.1596
     63  C         -2.8160   -4.0250  -21.6870 C.2   127  LYS127      0.2287
     64  O         -2.8580   -2.9710  -22.3210 O.2   127  LYS127     -0.2864
     65  CB        -0.5860   -5.1180  -21.3650 C.3   127  LYS127      0.0298
     66  CG         0.5120   -5.5670  -20.4150 C.3   127  LYS127      0.0038
     67  CD         1.5570   -6.4030  -21.1350 C.3   127  LYS127      0.0206
     68  CE         2.6680   -6.8320  -20.1910 C.3   127  LYS127      0.1093
     69  NZ         3.6880   -7.6720  -20.8760 N.3   127  LYS127     -0.1314
     70  N         -4.9410   -1.3410  -20.2790 N.3   130  LYS130     -0.1231
     71  CA        -4.2910   -0.0500  -20.4660 C.3   130  LYS130      0.1693
     72  C         -4.5000    0.4750  -21.8810 C.2   130  LYS130      0.2591
     73  O         -4.7950    1.6600  -22.0720 O.2   130  LYS130     -0.2718
     74  CB        -2.8020   -0.1670  -20.1490 C.3   130  LYS130      0.0285
     75  CG        -1.9940    1.0580  -20.5240 C.3   130  LYS130      0.0035
     76  CD        -0.5180    0.8390  -20.2600 C.3   130  LYS130      0.0206
     77  CE         0.2270    2.1550  -20.2640 C.3   130  LYS130      0.1093
     78  NZ         0.3080    2.7370  -21.6300 N.3   130  LYS130     -0.1314
     79  N         -4.3510   -0.3930  -22.8850 N.am  131  ARG131     -0.1980
     80  CA        -4.5590    0.0320  -24.2650 C.3   131  ARG131      0.1597
     81  C         -6.0030    0.4580  -24.5000 C.2   131  ARG131      0.2287
     82  O         -6.2630    1.4170  -25.2360 O.2   131  ARG131     -0.2864
     83  CB        -4.1680   -1.0900  -25.2280 C.3   131  ARG131      0.0334
     84  CG        -2.6750   -1.3890  -25.2710 C.3   131  ARG131      0.0492
     85  CD        -2.3410   -2.4010  -26.3580 C.3   131  ARG131      0.2205
     86  NE        -2.8730   -3.7290  -26.0640 N.pl3 131  ARG131     -0.0865
     87  CZ        -2.1550   -4.7270  -25.5570 C.cat 131  ARG131      0.5346
     88  NH1       -0.8690   -4.5500  -25.2870 N.pl3 131  ARG131      0.1354
     89  NH2       -2.7210   -5.9030  -25.3210 N.pl3 131  ARG131      0.1354
     90  N          3.0760    2.9350  -10.4510 N.3   184  LYS184     -0.1245
     91  CA         2.0630    2.9950  -11.4950 C.3   184  LYS184      0.1561
     92  C          0.6780    2.7680  -10.9010 C.2   184  LYS184      0.2260
     93  O          0.5040    2.0050   -9.9480 O.2   184  LYS184     -0.2867
     94  CB         2.3460    1.9520  -12.5760 C.3   184  LYS184      0.0271
     95  CG         3.6670    2.1500  -13.2990 C.3   184  LYS184      0.0035
     96  CD         3.9120    1.0450  -14.3120 C.3   184  LYS184      0.0206
     97  CE         5.2440    1.2320  -15.0190 C.3   184  LYS184      0.1093
     98  NZ         5.5360    0.1030  -15.9440 N.3   184  LYS184     -0.1314
     99  N         -1.1090   -0.3670  -10.4060 N.3   206  ARG206     -0.1231
    100  CA        -1.0990   -0.9170  -11.7520 C.3   206  ARG206      0.1694
    101  C          0.1640   -1.7450  -11.9520 C.2   206  ARG206      0.2592
    102  O          1.2290   -1.4050  -11.4240 O.2   206  ARG206     -0.2718
    103  CB        -1.1780    0.2000  -12.8000 C.3   206  ARG206      0.0321
    104  CG        -1.1440   -0.2780  -14.2450 C.3   206  ARG206      0.0489
    105  CD        -1.5860    0.8170  -15.2050 C.3   206  ARG206      0.2205
    106  NE        -0.7560    2.0140  -15.1090 N.pl3 206  ARG206     -0.0865
    107  CZ         0.3400    2.2220  -15.8300 C.cat 206  ARG206      0.5346
    108  NH1        0.7450    1.3110  -16.7040 N.pl3 206  ARG206      0.1354
    109  NH2        1.0320    3.3430  -15.6780 N.pl3 206  ARG206      0.1354
    110  N          0.0320   -2.8390  -12.7040 N.am  207  ASN207     -0.1974
    111  CA         1.1380   -3.7540  -12.9910 C.3   207  ASN207      0.1688
    112  C          1.7130   -4.3700  -11.7190 C.2   207  ASN207      0.2292
    113  O          2.9090   -4.6630  -11.6430 O.2   207  ASN207     -0.2864
    114  CB         2.2420   -3.0640  -13.7980 C.3   207  ASN207      0.1181
    115  CG         1.8460   -2.8310  -15.2420 C.2   207  ASN207      0.2629
    116  OD1        0.6940   -3.0430  -15.6230 O.2   207  ASN207     -0.2716
    117  ND2        2.8000   -2.3950  -16.0560 N.am  207  ASN207     -0.0877
@<TRIPOS>BOND
     1    22    21   ar
     2    23    21   ar
     3    21    20    1
     4    12    14   ar
     5    12    10   ar
     6    14    13   ar
     7     9    10   ar
     8     9     7   ar
     9    20    19    1
    10    10     8   ar
    11    19    16    1
    12    13    11   ar
    13     7     6   ar
    14     8    11   ar
    15     8     6   ar
    16     6     5    1
    17    16    17    1
    18    16    15    1
    19    17    18    2
    20    17    24   am
    21    24    25    1
    22    15     3   am
    23    25    26    1
    24     1     2    1
    25     3     4    2
    26     3     2    1
    27     5     2    1
    28    26    28   am
    29    26    27    2
    30    28    29    1
    31    31    30    2
    32    32    29    1
    33    32    33    1
    34    29    30    1
    35    30    39   am
    36    34    33    1
    37    34    35    1
    38    35    36    2
    39    85    86    1
    40    85    84    1
    41    39    40    1
    42    86    87    2
    43    40    41    1
    44    40    43    1
    45    36    38    1
    46    36    37    1
    47    87    89    1
    48    87    88    1
    49    84    83    1
    50    82    81    2
    51    83    80    1
    52    41    42    2
    53    81    80    1
    54    80    79    1
    55    79    72   am
    56    64    63    2
    57    73    72    2
    58    51    49   ar
    59    72    71    1
    60    44    45    1
    61    63    62    1
    62    78    77    1
    63    65    62    1
    64    65    66    1
    65    67    66    1
    66    67    68    1
    67    49    50   ar
    68    49    48    1
    69    69    68    1
    70    62    61    1
    71    75    76    1
    72    75    74    1
    73    45    48    1
    74    45    46    1
    75    71    70    1
    76    71    74    1
    77    77    76    1
    78    61    54   am
    79    46    47    2
    80    55    54    2
    81    54    53    1
    82    52    53    1
    83    53    56    1
    84   108   107    1
    85    56    57    1
    86   117   115   am
    87    98    97    1
    88   107   109    1
    89   107   106    2
    90   116   115    2
    91   115   114    1
    92   105   106    1
    93   105   104    1
    94    97    96    1
    95    57    58    1
    96    96    95    1
    97   104   103    1
    98   114   111    1
    99    58    59   ar
   100    58    60   ar
   101    95    94    1
   102   111   110    1
   103   111   112    1
   104   103   100    1
   105   110   101   am
   106    94    91    1
   107   101   100    1
   108   101   102    2
   109   100    99    1
   110   112   113    2
   111    91    92    1
   112    91    90    1
   113    92    93    2
