@<TRIPOS>MOLECULE
tmp/5j95A00.pdb
 151 141 0 0 0
SMALL
GASTEIGER

@<TRIPOS>ATOM
      1  N        -41.2580   -6.0500   28.2420 N.3    17  VAL17      -0.1231
      2  CA       -41.3030   -5.1730   27.0530 C.3    17  VAL17       0.1692
      3  C        -39.9040   -4.5860   26.8890 C.2    17  VAL17       0.2592
      4  O        -39.3010   -4.1150   27.8590 O.2    17  VAL17      -0.2718
      5  CB       -42.3960   -4.0640   27.0790 C.3    17  VAL17       0.0266
      6  CG1      -42.5840   -3.4410   25.7010 C.3    17  VAL17       0.0020
      7  CG2      -43.7300   -4.5840   27.6060 C.3    17  VAL17       0.0020
      8  N        -39.3790   -4.6690   25.6730 N.am   18  VAL18      -0.1966
      9  CA       -38.0220   -4.2650   25.3700 C.3    18  VAL18       0.1727
     10  C        -37.9630   -2.8690   24.6890 C.2    18  VAL18       0.2616
     11  O        -38.8870   -2.4660   23.9600 O.2    18  VAL18      -0.2715
     12  CB       -37.3320   -5.4180   24.5910 C.3    18  VAL18       0.0290
     13  CG1      -37.1430   -5.1320   23.1030 C.3    18  VAL18       0.0023
     14  CG2      -36.0460   -5.8570   25.2750 C.3    18  VAL18       0.0023
     15  N        -36.8820   -2.1480   24.9990 N.am   19  GLY19      -0.1955
     16  CA       -36.6250   -0.7850   24.5490 C.3    19  GLY19       0.1869
     17  C        -37.3190    0.1550   25.5060 C.2    19  GLY19       0.2309
     18  O        -36.7100    0.6830   26.4490 O.2    19  GLY19      -0.2863
     19  N        -40.6400    0.2850   19.6750 N.3    23  TYR23      -0.1241
     20  CA       -41.0420   -0.7520   18.7260 C.3    23  TYR23       0.1605
     21  C        -42.4450   -1.2770   19.0040 C.2    23  TYR23       0.2264
     22  O        -42.9640   -2.0820   18.2290 O.2    23  TYR23      -0.2867
     23  CB       -40.0360   -1.9050   18.7870 C.3    23  TYR23       0.0534
     24  CG       -38.5980   -1.4740   18.9450 C.ar   23  TYR23      -0.0201
     25  CD1      -37.8840   -0.9610   17.8680 C.ar   23  TYR23      -0.0009
     26  CD2      -37.9400   -1.6070   20.1650 C.ar   23  TYR23      -0.0009
     27  CE1      -36.5390   -0.6240   17.9880 C.ar   23  TYR23       0.0417
     28  CE2      -36.5970   -1.2600   20.3020 C.ar   23  TYR23       0.0417
     29  CZ       -35.8980   -0.7660   19.2080 C.ar   23  TYR23       0.1957
     30  OH       -34.5700   -0.4040   19.3180 O.3    23  TYR23      -0.2866
     31  N        -42.9950   -5.2920   21.5040 N.3    26  VAL26      -0.1245
     32  CA       -41.8030   -6.0780   21.2290 C.3    26  VAL26       0.1561
     33  C        -41.2380   -6.4250   22.6060 C.2    26  VAL26       0.2260
     34  O        -41.0240   -5.5460   23.4570 O.2    26  VAL26      -0.2867
     35  CB       -40.8100   -5.3590   20.2930 C.3    26  VAL26       0.0252
     36  CG1      -39.4900   -6.1150   20.2250 C.3    26  VAL26       0.0019
     37  CG2      -41.4100   -5.2140   18.9020 C.3    26  VAL26       0.0019
     38  N        -38.7240   -9.1040   25.2350 N.3    28  LYS28      -0.1245
     39  CA       -37.6120  -10.0020   25.5100 C.3    28  LYS28       0.1561
     40  C        -38.3310  -11.3150   25.8420 C.2    28  LYS28       0.2260
     41  O        -39.2530  -11.3380   26.6600 O.2    28  LYS28      -0.2867
     42  CB       -36.7880   -9.5170   26.7050 C.3    28  LYS28       0.0271
     43  CG       -35.6840  -10.4560   27.1810 C.3    28  LYS28       0.0035
     44  CD       -34.8540   -9.7360   28.2320 C.3    28  LYS28       0.0206
     45  CE       -33.8560  -10.6080   28.9440 C.3    28  LYS28       0.1093
     46  NZ       -33.3300   -9.9320   30.1670 N.3    28  LYS28      -0.1314
     47  N        -36.4060  -12.1600   20.5330 N.3    39  ALA39      -0.1245
     48  CA       -37.1970  -10.9420   20.4990 C.3    39  ALA39       0.1562
     49  C        -38.5620  -11.3720   19.9780 C.2    39  ALA39       0.2260
     50  O        -38.6310  -12.0520   18.9560 O.2    39  ALA39      -0.2867
     51  CB       -36.5620   -9.9310   19.5730 C.3    39  ALA39       0.0290
     52  N        -42.2690  -10.0320   18.7850 N.3    41  LYS41      -0.1245
     53  CA       -43.1820   -8.9680   18.3810 C.3    41  LYS41       0.1561
     54  C        -44.6090   -9.5430   18.4620 C.2    41  LYS41       0.2260
     55  O        -44.9350  -10.5210   17.7810 O.2    41  LYS41      -0.2867
     56  CB       -42.8390   -8.4490   16.9660 C.3    41  LYS41       0.0271
     57  CG       -43.6010   -7.1910   16.5370 C.3    41  LYS41       0.0035
     58  CD       -43.4190   -6.9410   15.0500 C.3    41  LYS41       0.0206
     59  CE       -43.8960   -5.5880   14.6010 C.3    41  LYS41       0.1093
     60  NZ       -43.5850   -5.3740   13.1620 N.3    41  LYS41      -0.1314
     61  N        -31.4210   -9.0880   11.6080 N.3    70  ALA70      -0.1245
     62  CA       -31.8390   -9.9620   12.7310 C.3    70  ALA70       0.1562
     63  C        -32.7620  -11.0940   12.2740 C.2    70  ALA70       0.2260
     64  O        -33.8960  -10.8500   11.8540 O.2    70  ALA70      -0.2867
     65  CB       -32.4750   -9.1490   13.8530 C.3    70  ALA70       0.0290
     66  N        -37.8830  -13.7700   16.7630 N.3    92  MET92      -0.1230
     67  CA       -36.6870  -13.2590   16.1170 C.3    92  MET92       0.1702
     68  C        -35.4760  -13.4340   16.9740 C.2    92  MET92       0.2595
     69  O        -35.5930  -13.6050   18.1900 O.2    92  MET92      -0.2718
     70  CB       -36.8470  -11.7400   16.0960 C.3    92  MET92       0.0401
     71  CG       -36.9410  -11.1170   14.7700 C.3    92  MET92       0.0596
     72  SD       -37.5880   -9.4770   15.1520 S.3    92  MET92      -0.1393
     73  CE       -39.3790   -9.8740   15.2900 C.3    92  MET92       0.0692
     74  N        -34.3120  -13.1570   16.3650 N.am   93  GLU93      -0.1920
     75  CA       -33.0210  -13.0980   17.0170 C.3    93  GLU93       0.1949
     76  C        -33.0140  -11.9250   18.0280 C.2    93  GLU93       0.2659
     77  O        -33.4640  -10.8160   17.6950 O.2    93  GLU93      -0.2711
     78  CB       -31.9340  -12.9060   15.9430 C.2    93  GLU93       0.0111
     79  CG       -30.5260  -12.7020   16.4740 C.2    93  GLU93       0.0838
     80  CD       -29.4480  -12.4900   15.4310 C.2    93  GLU93       0.3877
     81  OE1      -28.2570  -12.5350   15.8090 O.co2  93  GLU93      -0.2406
     82  OE2      -29.7810  -12.2820   14.2420 O.co2  93  GLU93      -0.2406
     83  N        -32.5230  -12.1870   19.2620 N.am   94  PHE94      -0.1957
     84  CA       -32.4040  -11.1710   20.2970 C.3    94  PHE94       0.1771
     85  C        -31.0470  -10.5150   20.1850 C.2    94  PHE94       0.2620
     86  O        -30.0140  -11.1880   20.2720 O.2    94  PHE94      -0.2715
     87  CB       -32.6110  -11.7680   21.7040 C.3    94  PHE94       0.0574
     88  CG       -32.8450  -10.7470   22.7930 C.ar   94  PHE94      -0.0200
     89  CD1      -34.0320  -10.0290   22.8540 C.ar   94  PHE94      -0.0042
     90  CD2      -31.8840  -10.5150   23.7700 C.ar   94  PHE94      -0.0042
     91  CE1      -34.2490   -9.0920   23.8730 C.ar   94  PHE94      -0.0003
     92  CE2      -32.1070   -9.5880   24.7920 C.ar   94  PHE94      -0.0003
     93  CZ       -33.2860   -8.8850   24.8390 C.ar   94  PHE94      -0.0000
     94  N        -31.0570   -9.2020   19.9350 N.am   95  CYS95      -0.1954
     95  CA       -29.8710   -8.3650   19.8290 C.3    95  CYS95       0.1843
     96  C        -29.7790   -7.6310   21.1830 C.2    95  CYS95       0.2626
     97  O        -30.2030   -6.4790   21.3150 O.2    95  CYS95      -0.2714
     98  CB       -30.0070   -7.4030   18.6510 C.3    95  CYS95       0.0997
     99  SG       -30.1680   -8.2180   17.0340 S.3    95  CYS95      -0.0797
    100  N        -29.3140   -8.3840   22.1840 N.am   96  GLY96      -0.1940
    101  CA       -29.2030   -8.0300   23.5980 C.3    96  GLY96       0.2014
    102  C        -28.6610   -6.6830   24.0200 C.2    96  GLY96       0.2639
    103  O        -29.0400   -6.1850   25.0870 O.2    96  GLY96      -0.2714
    104  N        -27.7680   -6.0880   23.2120 N.am   97  ALA97      -0.1963
    105  CA       -27.1450   -4.8020   23.5370 C.3    97  ALA97       0.1728
    106  C        -27.9750   -3.5790   23.1690 C.2    97  ALA97       0.2616
    107  O        -27.5210   -2.4510   23.3730 O.2    97  ALA97      -0.2715
    108  CB       -25.7660   -4.7160   22.9100 C.3    97  ALA97       0.0334
    109  N        -29.1820   -3.8070   22.6530 N.am   98  GLY98      -0.1955
    110  CA       -30.0920   -2.7460   22.2430 C.3    98  GLY98       0.1869
    111  C        -29.6960   -2.1060   20.9290 C.2    98  GLY98       0.2309
    112  O        -29.0760   -2.7590   20.0820 O.2    98  GLY98      -0.2863
    113  N        -29.1400    3.8000   21.7040 N.3   102  ASP102     -0.1239
    114  CA       -28.8160    3.4730   23.0930 C.3   102  ASP102      0.1674
    115  C        -27.3300    3.6380   23.3120 C.2   102  ASP102      0.2266
    116  O        -26.9240    4.2450   24.3030 O.2   102  ASP102     -0.2867
    117  CB       -29.2700    2.0570   23.4580 C.3   102  ASP102      0.1410
    118  CG       -30.7680    1.8470   23.4040 C.2   102  ASP102      0.3668
    119  OD1      -31.5000    2.6300   24.0460 O.co2 102  ASP102     -0.2456
    120  OD2      -31.2090    0.8870   22.7280 O.co2 102  ASP102     -0.2456
    121  N        -25.5200    6.2360   25.8010 N.3   106  ASN106     -0.1240
    122  CA       -24.7180    5.6600   26.8810 C.3   106  ASN106      0.1653
    123  C        -23.2240    6.0420   26.7950 C.2   106  ASN106      0.2266
    124  O        -22.4410    5.6060   27.6430 O.2   106  ASN106     -0.2867
    125  CB       -24.9200    4.1420   26.9870 C.3   106  ASN106      0.1155
    126  CG       -26.3260    3.7260   27.3840 C.2   106  ASN106      0.2627
    127  OD1      -26.9230    4.2470   28.3390 O.2   106  ASN106     -0.2716
    128  ND2      -26.8810    2.7450   26.6740 N.am  106  ASN106     -0.0877
    129  N        -29.5270   -2.5250   15.4610 N.3   147  LEU147     -0.1245
    130  CA       -29.2440   -3.1610   16.7450 C.3   147  LEU147      0.1561
    131  C        -27.8850   -3.8300   16.8560 C.2   147  LEU147      0.2260
    132  O        -27.2760   -4.1950   15.8530 O.2   147  LEU147     -0.2867
    133  CB       -30.3450   -4.1660   17.1150 C.3   147  LEU147      0.0270
    134  CG       -31.8100   -3.7410   16.9520 C.3   147  LEU147      0.0019
    135  CD1      -32.7210   -4.8560   17.3370 C.3   147  LEU147      0.0001
    136  CD2      -32.1590   -2.5210   17.7870 C.3   147  LEU147      0.0001
    137  N        -33.4530   -4.2310   11.8420 N.3   157  VAL157     -0.1231
    138  CA       -34.8090   -4.6470   12.2310 C.3   157  VAL157      0.1692
    139  C        -35.8660   -3.7290   11.6680 C.2   157  VAL157      0.2592
    140  O        -35.5720   -2.5750   11.3760 O.2   157  VAL157     -0.2718
    141  CB       -35.0010   -4.7960   13.7640 C.3   157  VAL157      0.0266
    142  CG1      -34.2120   -5.9760   14.3140 C.3   157  VAL157      0.0020
    143  CG2      -34.6810   -3.4980   14.5090 C.3   157  VAL157      0.0020
    144  N        -37.1100   -4.2430   11.5750 N.am  158  ASP158     -0.1974
    145  CA       -38.3430   -3.5680   11.1570 C.3   158  ASP158      0.1709
    146  C        -38.2850   -3.0310    9.7070 C.2   158  ASP158      0.2293
    147  O        -38.4490   -1.8370    9.4740 O.2   158  ASP158     -0.2864
    148  CB       -38.7270   -2.4770   12.1890 C.3   158  ASP158      0.1436
    149  CG       -40.1750   -2.0150   12.1930 C.2   158  ASP158      0.3671
    150  OD1      -41.0810   -2.8850   12.1710 O.co2 158  ASP158     -0.2456
    151  OD2      -40.4040   -0.7860   12.3010 O.co2 158  ASP158     -0.2456
@<TRIPOS>BOND
     1   147   146    2
     2   146   145    1
     3   145   144    1
     4   145   148    1
     5   140   139    2
     6   144   139   am
     7    61    62    1
     8   139   138    1
     9   137   138    1
    10    64    63    2
    11   150   149   ar
    12   148   149    1
    13   149   151   ar
    14   138   141    1
    15    63    62    1
    16    62    65    1
    17    60    59    1
    18   141   142    1
    19   141   143    1
    20    82    80   ar
    21    59    58    1
    22    71    72    1
    23    71    70    1
    24    58    57    1
    25    72    73    1
    26    80    81   ar
    27    80    79    1
    28   129   130    1
    29   132   131    2
    30    78    79    2
    31    78    75    1
    32    70    67    1
    33    67    66    1
    34    67    68    1
    35    74    68   am
    36    74    75    1
    37    57    56    1
    38   130   131    1
    39   130   133    1
    40   134   133    1
    41   134   135    1
    42   134   136    1
    43    56    53    1
    44    68    69    2
    45    75    76    1
    46    99    98    1
    47    77    76    2
    48    55    54    2
    49    25    27   ar
    50    25    24   ar
    51    27    29   ar
    52    76    83   am
    53    22    21    2
    54    53    54    1
    55    53    52    1
    56    98    95    1
    57    20    23    1
    58    20    21    1
    59    20    19    1
    60    23    24    1
    61    37    35    1
    62    24    26   ar
    63    50    49    2
    64    29    30    1
    65    29    28   ar
    66    83    84    1
    67    51    48    1
    68    95    94    1
    69    95    96    1
    70    94    85   am
    71    49    48    1
    72   112   111    2
    73    26    28   ar
    74    85    86    2
    75    85    84    1
    76    36    35    1
    77    35    32    1
    78    84    87    1
    79    48    47    1
    80   111   110    1
    81    96    97    2
    82    96   100   am
    83    32    31    1
    84    32    33    1
    85    87    88    1
    86   113   114    1
    87   100   101    1
    88   110   109    1
    89    33    34    2
    90   109   106   am
    91   120   118   ar
    92    88    89   ar
    93    88    90   ar
    94    89    91   ar
    95   108   105    1
    96   114   115    1
    97   114   117    1
    98    13    12    1
    99   106   107    2
   100   106   105    1
   101   104   105    1
   102   104   102   am
   103   115   116    2
   104   118   117    1
   105   118   119   ar
   106   101   102    1
   107    90    92   ar
   108    91    93   ar
   109    11    10    2
   110   102   103    2
   111    16    15    1
   112    16    17    1
   113    12    14    1
   114    12     9    1
   115    10    15   am
   116    10     9    1
   117    92    93   ar
   118    38    39    1
   119     9     8    1
   120    17    18    2
   121    39    40    1
   122    39    42    1
   123     8     3   am
   124     6     5    1
   125   121   122    1
   126    40    41    2
   127   128   126   am
   128    42    43    1
   129   123   122    1
   130   123   124    2
   131   122   125    1
   132     3     2    1
   133     3     4    2
   134   125   126    1
   135     2     5    1
   136     2     1    1
   137     5     7    1
   138    43    44    1
   139   126   127    2
   140    44    45    1
   141    45    46    1
