@<TRIPOS>MOLECULE
tmp/5j9lA00.pdb
 167 160 0 0 0
SMALL
GASTEIGER

@<TRIPOS>ATOM
      1  N        -19.2970  -53.5500  -13.8250 N.3    16  VAL16      -0.1231
      2  CA       -19.0560  -52.9410  -15.1290 C.3    16  VAL16       0.1692
      3  C        -18.5810  -53.9990  -16.1180 C.2    16  VAL16       0.2593
      4  O        -19.2880  -54.3220  -17.0800 O.2    16  VAL16      -0.2718
      5  CB       -18.0440  -51.7860  -15.0130 C.3    16  VAL16       0.0266
      6  CG1      -17.6910  -51.2290  -16.3890 C.3    16  VAL16       0.0020
      7  CG2      -18.6090  -50.6830  -14.1260 C.3    16  VAL16       0.0020
      8  N        -17.3880  -54.5400  -15.8980 N.am   17  GLY17      -0.1942
      9  CA       -16.8430  -55.5170  -16.8230 C.3    17  GLY17       0.2014
     10  C        -15.4440  -55.9310  -16.4240 C.2    17  GLY17       0.2639
     11  O        -14.9310  -55.5330  -15.3760 O.2    17  GLY17      -0.2714
     12  N        -14.8310  -56.7400  -17.2860 N.am   18  ARG18      -0.1963
     13  CA       -13.5080  -57.3040  -17.0480 C.3    18  ARG18       0.1729
     14  C        -12.5120  -56.7530  -18.0580 C.2    18  ARG18       0.2616
     15  O        -12.7980  -56.7090  -19.2600 O.2    18  ARG18      -0.2715
     16  CB       -13.5310  -58.8330  -17.1420 C.3    18  ARG18       0.0348
     17  CG       -14.1620  -59.5290  -15.9510 C.3    18  ARG18       0.0492
     18  CD       -15.6080  -59.8940  -16.2200 C.3    18  ARG18       0.2205
     19  NE       -16.2620  -60.4240  -15.0280 N.pl3  18  ARG18      -0.0865
     20  CZ       -17.5410  -60.7820  -14.9680 C.cat  18  ARG18       0.5346
     21  NH1      -18.3190  -60.6700  -16.0370 N.pl3  18  ARG18       0.1354
     22  NH2      -18.0440  -61.2530  -13.8350 N.pl3  18  ARG18       0.1354
     23  N        -11.3440  -56.3500  -17.5680 N.am   19  GLY19      -0.1955
     24  CA       -10.2410  -55.9680  -18.4290 C.3    19  GLY19       0.1869
     25  C         -9.3450  -57.1530  -18.7300 C.2    19  GLY19       0.2309
     26  O         -9.6440  -58.2800  -18.3340 O.2    19  GLY19      -0.2863
     27  N        -13.8940  -55.1090  -12.5540 N.3    22  VAL22      -0.1245
     28  CA       -14.1520  -53.7230  -12.1740 C.3    22  VAL22       0.1561
     29  C        -15.6020  -53.5960  -11.7320 C.2    22  VAL22       0.2260
     30  O        -16.4930  -54.2510  -12.2880 O.2    22  VAL22      -0.2867
     31  CB       -13.8430  -52.7630  -13.3400 C.3    22  VAL22       0.0252
     32  CG1      -14.0350  -51.3150  -12.9060 C.3    22  VAL22       0.0019
     33  CG2      -12.4270  -52.9830  -13.8660 C.3    22  VAL22       0.0019
     34  N        -14.5100  -45.9500   -9.3650 N.3    31  ALA31      -0.1245
     35  CA       -14.4610  -47.2810   -9.9550 C.3    31  ALA31       0.1562
     36  C        -13.3480  -48.0690   -9.2850 C.2    31  ALA31       0.2260
     37  O        -12.2390  -47.5530   -9.1050 O.2    31  ALA31      -0.2867
     38  CB       -14.2290  -47.2150  -11.4660 C.3    31  ALA31       0.0290
     39  N         -6.3420  -42.1750  -16.3760 N.3    60  VAL60      -0.1245
     40  CA        -7.2780  -42.3780  -15.2780 C.3    60  VAL60       0.1561
     41  C         -6.5780  -42.0990  -13.9570 C.2    60  VAL60       0.2260
     42  O         -5.4750  -42.5950  -13.6950 O.2    60  VAL60      -0.2867
     43  CB        -7.8610  -43.7990  -15.3240 C.3    60  VAL60       0.0252
     44  CG1       -6.7760  -44.8460  -15.0930 C.3    60  VAL60       0.0019
     45  CG2       -8.9860  -43.9490  -14.3070 C.3    60  VAL60       0.0019
     46  N        -10.2080  -46.0480   -8.3730 N.3    72  MET72      -0.1230
     47  CA        -9.8480  -45.1810   -9.4820 C.3    72  MET72       0.1702
     48  C        -11.0130  -44.2730   -9.8510 C.2    72  MET72       0.2592
     49  O        -12.1770  -44.5640   -9.5640 O.2    72  MET72      -0.2718
     50  CB        -9.4290  -46.0040  -10.7070 C.3    72  MET72       0.0401
     51  CG        -8.1610  -46.8160  -10.5040 C.3    72  MET72       0.0596
     52  SD        -7.7610  -47.8430  -11.9310 S.3    72  MET72      -0.1393
     53  CE        -9.0460  -49.0850  -11.8190 C.3    72  MET72       0.0692
     54  N        -10.6720  -43.1570  -10.4920 N.am   73  GLU73      -0.1966
     55  CA       -11.6730  -42.2620  -11.0540 C.3    73  GLU73       0.1733
     56  C        -12.6650  -43.0440  -11.9040 C.2    73  GLU73       0.2616
     57  O        -12.2770  -43.9000  -12.7030 O.2    73  GLU73      -0.2715
     58  CB       -10.9800  -41.1880  -11.8980 C.3    73  GLU73       0.0429
     59  CG       -11.9150  -40.2940  -12.7020 C.3    73  GLU73       0.1163
     60  CD       -11.1630  -39.3800  -13.6480 C.2    73  GLU73       0.3649
     61  OE1       -9.9320  -39.5480  -13.7840 O.co2  73  GLU73      -0.2457
     62  OE2      -11.8030  -38.4980  -14.2580 O.co2  73  GLU73      -0.2457
     63  N        -13.9490  -42.7490  -11.7260 N.am   74  TYR74      -0.1960
     64  CA       -14.9980  -43.3990  -12.4990 C.3    74  TYR74       0.1771
     65  C        -15.2150  -42.6450  -13.8040 C.2    74  TYR74       0.2619
     66  O        -15.4240  -41.4270  -13.7990 O.2    74  TYR74      -0.2715
     67  CB       -16.3050  -43.4660  -11.7090 C.3    74  TYR74       0.0574
     68  CG       -17.4380  -44.1000  -12.4850 C.ar   74  TYR74      -0.0198
     69  CD1      -17.3350  -45.4000  -12.9620 C.ar   74  TYR74      -0.0009
     70  CD2      -18.6100  -43.4020  -12.7390 C.ar   74  TYR74      -0.0009
     71  CE1      -18.3630  -45.9850  -13.6730 C.ar   74  TYR74       0.0417
     72  CE2      -19.6460  -43.9800  -13.4490 C.ar   74  TYR74       0.0417
     73  CZ       -19.5170  -45.2720  -13.9130 C.ar   74  TYR74       0.1957
     74  OH       -20.5450  -45.8540  -14.6210 O.3    74  TYR74      -0.2866
     75  N        -15.1640  -43.3730  -14.9160 N.am   75  ALA75      -0.1963
     76  CA       -15.3730  -42.8040  -16.2440 C.3    75  ALA75       0.1728
     77  C        -16.8280  -43.0430  -16.6290 C.2    75  ALA75       0.2616
     78  O        -17.1830  -44.1160  -17.1230 O.2    75  ALA75      -0.2715
     79  CB       -14.4140  -43.4200  -17.2570 C.3    75  ALA75       0.0334
     80  N        -17.6700  -42.0330  -16.4040 N.am   76  GLU76      -0.1963
     81  CA       -19.0980  -42.1790  -16.6610 C.3    76  GLU76       0.1733
     82  C        -19.4000  -42.4780  -18.1240 C.2    76  GLU76       0.2617
     83  O        -20.4630  -43.0320  -18.4250 O.2    76  GLU76      -0.2715
     84  CB       -19.8450  -40.9110  -16.2280 C.3    76  GLU76       0.0429
     85  CG       -19.4530  -39.6380  -16.9830 C.3    76  GLU76       0.1163
     86  CD       -18.3250  -38.8700  -16.3140 C.2    76  GLU76       0.3649
     87  OE1      -17.6090  -39.4600  -15.4760 O.co2  76  GLU76      -0.2457
     88  OE2      -18.1570  -37.6710  -16.6270 O.co2  76  GLU76      -0.2457
     89  N        -18.4880  -42.1370  -19.0390 N.am   77  GLY77      -0.1940
     90  CA       -18.7780  -42.2470  -20.4590 C.3    77  GLY77       0.2014
     91  C        -18.5560  -43.6210  -21.0500 C.2    77  GLY77       0.2639
     92  O        -19.0390  -43.8890  -22.1550 O.2    77  GLY77      -0.2714
     93  N        -17.8430  -44.4940  -20.3510 N.am   78  GLY78      -0.1939
     94  CA       -17.5640  -45.8170  -20.8690 C.3    78  GLY78       0.2014
     95  C        -16.3360  -45.8430  -21.7550 C.2    78  GLY78       0.2639
     96  O        -15.5790  -44.8740  -21.8730 O.2    78  GLY78      -0.2714
     97  N        -16.1390  -46.9930  -22.3940 N.am   79  SER79      -0.1949
     98  CA       -14.9900  -47.1800  -23.2650 C.3    79  SER79       0.1924
     99  C        -15.2540  -46.5710  -24.6360 C.2    79  SER79       0.2314
    100  O        -16.3980  -46.4780  -25.0900 O.2    79  SER79      -0.2863
    101  CB       -14.6620  -48.6650  -23.4230 C.3    79  SER79       0.2116
    102  OG       -15.4360  -49.2480  -24.4570 O.3    79  SER79      -0.2180
    103  N        -14.4160  -48.0270  -27.3310 N.3    81  TYR81      -0.1227
    104  CA       -14.9110  -49.1430  -28.1310 C.3    81  TYR81       0.1736
    105  C        -16.4330  -49.1830  -28.1250 C.2    81  TYR81       0.2595
    106  O        -17.0670  -49.3310  -29.1750 O.2    81  TYR81      -0.2718
    107  CB       -14.3440  -50.4640  -27.6070 C.3    81  TYR81       0.0548
    108  CG       -15.0010  -51.6850  -28.2160 C.ar   81  TYR81      -0.0200
    109  CD1      -16.1390  -52.2420  -27.6460 C.ar   81  TYR81      -0.0009
    110  CD2      -14.4860  -52.2790  -29.3620 C.ar   81  TYR81      -0.0009
    111  CE1      -16.7480  -53.3530  -28.1990 C.ar   81  TYR81       0.0417
    112  CE2      -15.0880  -53.3930  -29.9230 C.ar   81  TYR81       0.0417
    113  CZ       -16.2200  -53.9250  -29.3360 C.ar   81  TYR81       0.1957
    114  OH       -16.8270  -55.0320  -29.8840 O.3    81  TYR81      -0.2866
    115  N        -17.0370  -49.0620  -26.9410 N.am   82  ASN82      -0.1974
    116  CA       -18.4930  -49.0930  -26.8460 C.3    82  ASN82       0.1688
    117  C        -19.1270  -47.9180  -27.5790 C.2    82  ASN82       0.2292
    118  O        -20.2600  -48.0240  -28.0590 O.2    82  ASN82      -0.2864
    119  CB       -18.9140  -49.1020  -25.3760 C.3    82  ASN82       0.1181
    120  CG       -20.4030  -48.9050  -25.1950 C.2    82  ASN82       0.2629
    121  OD1      -21.1820  -49.8540  -25.2840 O.2    82  ASN82      -0.2716
    122  ND2      -20.8070  -47.6690  -24.9280 N.am   82  ASN82      -0.0877
    123  N        -23.3190  -51.0030  -28.0740 N.3    87  ALA87      -0.1245
    124  CA       -24.7160  -51.3730  -28.2280 C.3    87  ALA87       0.1562
    125  C        -25.5320  -50.2200  -28.7950 C.2    87  ALA87       0.2260
    126  O        -25.2400  -49.0440  -28.5580 O.2    87  ALA87      -0.2867
    127  CB       -25.3040  -51.8040  -26.8840 C.3    87  ALA87       0.0290
    128  N        -10.8640  -50.3320  -26.3260 N.3   128  PRO128     -0.2102
    129  CA       -11.3840  -50.8860  -25.0630 C.3   128  PRO128      0.1504
    130  C        -10.6510  -50.3970  -23.8230 C.2   128  PRO128      0.2575
    131  O        -11.2190  -50.4660  -22.7250 O.2   128  PRO128     -0.2718
    132  CB       -11.2180  -52.3990  -25.2530 C.3   128  PRO128      0.0282
    133  CG       -11.2890  -52.5920  -26.7150 C.3   128  PRO128      0.0208
    134  CD       -10.6030  -51.4020  -27.3080 C.3   128  PRO128      0.0893
    135  N         -9.4180  -49.9110  -23.9550 N.am  129  ASN129     -0.1975
    136  CA        -8.6580  -49.3790  -22.8300 C.3   129  ASN129      0.1688
    137  C         -8.6600  -47.8560  -22.7910 C.2   129  ASN129      0.2292
    138  O         -7.9050  -47.2650  -22.0110 O.2   129  ASN129     -0.2864
    139  CB        -7.2160  -49.8840  -22.8760 C.3   129  ASN129      0.1181
    140  CG        -7.1170  -51.3840  -22.7040 C.2   129  ASN129      0.2629
    141  OD1       -7.9620  -52.0050  -22.0610 O.2   129  ASN129     -0.2716
    142  ND2       -6.0750  -51.9740  -23.2770 N.am  129  ASN129     -0.0877
    143  N        -11.0280  -44.6840  -22.0120 N.3   131  LEU131     -0.1245
    144  CA       -12.2810  -44.2970  -21.3850 C.3   131  LEU131      0.1561
    145  C        -12.6060  -42.8410  -21.6990 C.2   131  LEU131      0.2260
    146  O        -11.7320  -42.0430  -22.0410 O.2   131  LEU131     -0.2867
    147  CB       -12.2080  -44.5100  -19.8720 C.3   131  LEU131      0.0270
    148  CG       -11.7230  -45.8940  -19.4370 C.3   131  LEU131      0.0019
    149  CD1      -11.8080  -46.0280  -17.9280 C.3   131  LEU131      0.0001
    150  CD2      -12.5170  -47.0030  -20.1190 C.3   131  LEU131      0.0001
    151  N         -6.3680  -46.0280  -19.3330 N.3   142  CYS142     -0.1235
    152  CA        -6.2280  -46.8560  -18.1380 C.3   142  CYS142      0.1677
    153  C         -5.2710  -47.9990  -18.4510 C.2   142  CYS142      0.2270
    154  O         -5.6320  -48.9390  -19.1650 O.2   142  CYS142     -0.2867
    155  CB        -7.5840  -47.3820  -17.6630 C.3   142  CYS142      0.0956
    156  SG        -8.5440  -48.2740  -18.9090 S.3   142  CYS142     -0.0801
    157  N         -4.3080  -50.3680  -16.6020 N.3   144  PHE144     -0.1241
    158  CA        -4.7920  -51.6160  -16.0190 C.3   144  PHE144      0.1605
    159  C         -5.2680  -52.6120  -17.0730 C.2   144  PHE144      0.2264
    160  O         -4.5410  -53.5350  -17.4400 O.2   144  PHE144     -0.2867
    161  CB        -5.9280  -51.3260  -15.0330 C.3   144  PHE144      0.0534
    162  CG        -7.2860  -51.6820  -15.5540 C.ar  144  PHE144     -0.0203
    163  CD1       -7.8400  -52.9170  -15.2760 C.ar  144  PHE144     -0.0042
    164  CD2       -8.0090  -50.7870  -16.3220 C.ar  144  PHE144     -0.0042
    165  CE1       -9.0880  -53.2570  -15.7520 C.ar  144  PHE144     -0.0003
    166  CE2       -9.2590  -51.1190  -16.8010 C.ar  144  PHE144     -0.0003
    167  CZ        -9.8010  -52.3580  -16.5150 C.ar  144  PHE144     -0.0000
@<TRIPOS>BOND
     1   112   110   ar
     2   112   113   ar
     3   114   113    1
     4   110   108   ar
     5   113   111   ar
     6   106   105    2
     7   125   126    2
     8   125   124    1
     9   124   123    1
    10   124   127    1
    11   108   109   ar
    12   108   107    1
    13   111   109   ar
    14   104   105    1
    15   104   107    1
    16   104   103    1
    17   105   115   am
    18   118   117    2
    19   117   116    1
    20   134   133    1
    21   134   128    1
    22   115   116    1
    23   116   119    1
    24   133   132    1
    25   128   129    1
    26   119   120    1
    27   121   120    2
    28   132   129    1
    29   120   122   am
    30   100    99    2
    31   129   130    1
    32    99    98    1
    33   102   101    1
    34   135   130   am
    35   135   136    1
    36   130   131    2
    37   101    98    1
    38   142   140   am
    39    98    97    1
    40   139   136    1
    41   139   140    1
    42   136   137    1
    43   137   138    2
    44   140   141    2
    45    97    95   am
    46    92    91    2
    47   146   145    2
    48   143   144    1
    49    96    95    2
    50    95    94    1
    51   145   144    1
    52   144   147    1
    53    91    90    1
    54    91    93   am
    55    94    93    1
    56    90    89    1
    57   150   148    1
    58   147   148    1
    59   148   149    1
    60   151   152    1
    61    15    14    2
    62   154   153    2
    63    89    82   am
    64   156   155    1
    65    25    24    1
    66    25    26    2
    67   153   152    1
    68    24    23    1
    69    83    82    2
    70   152   155    1
    71    82    81    1
    72    14    23   am
    73    14    13    1
    74   160   159    2
    75    12    13    1
    76    12    10   am
    77    79    76    1
    78    16    13    1
    79    16    17    1
    80    78    77    2
    81     4     3    2
    82   159   158    1
    83    85    86    1
    84    85    84    1
    85     9    10    1
    86     9     8    1
    87   166   167   ar
    88   166   164   ar
    89    81    80    1
    90    81    84    1
    91    77    80   am
    92    77    76    1
    93    88    86   ar
    94   157   158    1
    95   167   165   ar
    96    10    11    2
    97     6     5    1
    98    39    40    1
    99   164   162   ar
   100    86    87   ar
   101    76    75    1
   102    18    17    1
   103    18    19    1
   104     3     8   am
   105     3     2    1
   106    21    20    1
   107   158   161    1
   108   165   163   ar
   109   162   163   ar
   110   162   161    1
   111    43    40    1
   112    43    44    1
   113    43    45    1
   114    40    41    1
   115     2     5    1
   116     2     1    1
   117    19    20    2
   118     5     7    1
   119    20    22    1
   120    75    65   am
   121    74    73    1
   122    62    60   ar
   123    41    42    2
   124    73    71   ar
   125    73    72   ar
   126    33    31    1
   127    65    66    2
   128    65    64    1
   129    61    60   ar
   130    71    69   ar
   131    60    59    1
   132    72    70   ar
   133    31    32    1
   134    31    28    1
   135    69    68   ar
   136    70    68   ar
   137    57    56    2
   138    59    58    1
   139    27    28    1
   140    64    63    1
   141    64    67    1
   142    68    67    1
   143    30    29    2
   144    28    29    1
   145    52    53    1
   146    52    51    1
   147    56    63   am
   148    56    55    1
   149    58    55    1
   150    38    35    1
   151    55    54    1
   152    50    51    1
   153    50    47    1
   154    54    48   am
   155    35    34    1
   156    35    36    1
   157    48    49    2
   158    48    47    1
   159    47    46    1
   160    36    37    2
