@<TRIPOS>MOLECULE
tmp/5j9mA00.pdb
 105 97 0 0 0
SMALL
GASTEIGER

@<TRIPOS>ATOM
      1  N          9.5810   11.8950   22.2080 N.3    93  ASP93      -0.1239
      2  CA        10.4030   12.9320   22.8020 C.3    93  ASP93       0.1674
      3  C          9.6300   13.6120   23.9340 C.2    93  ASP93       0.2266
      4  O          8.4230   13.4150   24.1050 O.2    93  ASP93      -0.2867
      5  CB        10.9170   13.9050   21.7410 C.3    93  ASP93       0.1410
      6  CG         9.8040   14.5850   20.9720 C.2    93  ASP93       0.3668
      7  OD1        8.7050   14.7750   21.5250 O.co2  93  ASP93      -0.2456
      8  OD2       10.0390   14.9680   19.8080 O.co2  93  ASP93      -0.2456
      9  N         12.8320   20.1080   23.6100 N.3    97  TYR97      -0.1241
     10  CA        13.5030   20.6970   22.4550 C.3    97  TYR97       0.1605
     11  C         12.5240   21.4950   21.6010 C.2    97  TYR97       0.2264
     12  O         12.7980   22.6430   21.2310 O.2    97  TYR97      -0.2867
     13  CB        14.1800   19.5950   21.6330 C.3    97  TYR97       0.0534
     14  CG        14.8480   20.0720   20.3570 C.ar   97  TYR97      -0.0201
     15  CD1       16.1440   20.5740   20.3720 C.ar   97  TYR97      -0.0009
     16  CD2       14.1890   20.0030   19.1360 C.ar   97  TYR97      -0.0009
     17  CE1       16.7600   21.0080   19.2120 C.ar   97  TYR97       0.0417
     18  CE2       14.7970   20.4350   17.9680 C.ar   97  TYR97       0.0417
     19  CZ        16.0830   20.9370   18.0140 C.ar   97  TYR97       0.1957
     20  OH        16.6960   21.3700   16.8580 O.3    97  TYR97      -0.2866
     21  N         14.0410   17.6440   29.5450 N.3   142  ASP142     -0.1239
     22  CA        15.3170   18.3220   29.7230 C.3   142  ASP142      0.1674
     23  C         15.2950   19.7150   29.1210 C.2   142  ASP142      0.2266
     24  O         14.2440   20.2140   28.7020 O.2   142  ASP142     -0.2867
     25  CB        16.4400   17.5140   29.0600 C.3   142  ASP142      0.1410
     26  CG        16.3160   17.4710   27.5450 C.2   142  ASP142      0.3668
     27  OD1       15.1900   17.6370   27.0390 O.co2 142  ASP142     -0.2456
     28  OD2       17.3370   17.2520   26.8620 O.co2 142  ASP142     -0.2456
     29  N         17.5600   21.6270   26.1490 N.3   144  CYS144     -0.1235
     30  CA        18.5920   21.5040   25.1170 C.3   144  CYS144      0.1677
     31  C         19.3360   22.8270   24.9940 C.2   144  CYS144      0.2270
     32  O         18.8110   23.7950   24.4360 O.2   144  CYS144     -0.2867
     33  CB        18.0040   21.0850   23.7690 C.3   144  CYS144      0.0956
     34  SG        19.2410   20.9690   22.4080 S.3   144  CYS144     -0.0801
     35  N         18.7920   11.9640   29.3600 N.3   187  ILE187     -0.1245
     36  CA        19.4590   12.7370   28.3110 C.3   187  ILE187      0.1561
     37  C         20.6890   13.4360   28.8790 C.2   187  ILE187      0.2260
     38  O         20.5740   14.2840   29.7770 O.2   187  ILE187     -0.2867
     39  CB        18.5230   13.7540   27.6450 C.3   187  ILE187      0.0252
     40  CG1       17.2620   13.0590   27.1330 C.3   187  ILE187      0.0019
     41  CG2       19.2600   14.4520   26.5060 C.3   187  ILE187      0.0019
     42  CD1       16.1990   14.0180   26.6280 C.3   187  ILE187      0.0001
     43  N         23.5270   16.1570   28.8540 N.3   189  GLN189     -0.1245
     44  CA        23.7520   17.5010   28.3320 C.3   189  GLN189      0.1566
     45  C         25.1860   17.9350   28.6240 C.2   189  GLN189      0.2260
     46  O         26.0360   17.0910   28.9320 O.2   189  GLN189     -0.2867
     47  CB        22.7110   18.4740   28.8930 C.3   189  GLN189      0.0367
     48  CG        21.2790   18.1760   28.4160 C.3   189  GLN189      0.0905
     49  CD        21.0520   18.4610   26.9280 C.2   189  GLN189      0.2608
     50  OE1       21.8550   19.1250   26.2680 O.2   189  GLN189     -0.2717
     51  NE2       19.9450   17.9500   26.3970 N.am  189  GLN189     -0.0878
     52  N         22.1600   14.3180   24.2370 N.3   215  GLY215     -0.1210
     53  CA        21.4340   15.4950   23.8240 C.3   215  GLY215      0.1956
     54  C         22.3590   16.6420   23.4860 C.2   215  GLY215      0.2612
     55  O         23.5730   16.5760   23.6870 O.2   215  GLY215     -0.2717
     56  N         21.7620   17.7010   22.9560 N.am  216  GLY216     -0.1942
     57  CA        22.4870   18.9390   22.7570 C.3   216  GLY216      0.2014
     58  C         23.4050   18.9860   21.5580 C.2   216  GLY216      0.2639
     59  O         24.1920   19.9310   21.4380 O.2   216  GLY216     -0.2714
     60  N         23.3500   18.0000   20.6770 N.am  217  LEU217     -0.1963
     61  CA        24.1570   18.0040   19.4700 C.3   217  LEU217      0.1728
     62  C         23.2390   18.1830   18.2650 C.2   217  LEU217      0.2616
     63  O         22.0100   18.2330   18.3890 O.2   217  LEU217     -0.2715
     64  CB        25.0240   16.7440   19.3840 C.3   217  LEU217      0.0311
     65  CG        26.0580   16.6370   20.5170 C.3   217  LEU217      0.0022
     66  CD1       26.8480   15.3460   20.3850 C.3   217  LEU217      0.0001
     67  CD2       27.0080   17.8390   20.5420 C.3   217  LEU217      0.0001
     68  N         23.8410   18.2890   17.0860 N.am  218  ALA218     -0.1963
     69  CA        23.0860   18.6490   15.8860 C.3   218  ALA218      0.1728
     70  C         22.2720   19.9260   16.1130 C.2   218  ALA218      0.2616
     71  O         21.0870   20.0220   15.7760 O.2   218  ALA218     -0.2715
     72  CB        22.2080   17.4880   15.4140 C.3   218  ALA218      0.0334
     73  N         22.9250   20.9150   16.7110 N.am  219  VAL219     -0.1977
     74  CA        22.3200   22.2120   16.9770 C.3   219  VAL219      0.1596
     75  C         23.0960   23.3450   16.3090 C.2   219  VAL219      0.2287
     76  O         23.0040   24.4970   16.7270 O.2   219  VAL219     -0.2864
     77  CB        22.1140   22.4480   18.4840 C.3   219  VAL219      0.0276
     78  CG1       20.9660   21.5860   18.9970 C.3   219  VAL219      0.0022
     79  CG2       23.3880   22.1240   19.2370 C.3   219  VAL219      0.0022
     80  N         20.0890   12.0690   19.5140 N.3   246  MET246     -0.1230
     81  CA        18.8200   12.6920   19.1560 C.3   246  MET246      0.1702
     82  C         18.9880   13.6350   17.9710 C.2   246  MET246      0.2592
     83  O         19.8860   14.4810   17.9620 O.2   246  MET246     -0.2718
     84  CB        18.2760   13.4660   20.3580 C.3   246  MET246      0.0401
     85  CG        18.0640   12.5720   21.5830 C.3   246  MET246      0.0596
     86  SD        17.4490   13.4360   23.0390 S.3   246  MET246     -0.1393
     87  CE        15.7590   13.6690   22.5040 C.3   246  MET246      0.0692
     88  N         18.1060   13.4980   16.9820 N.am  247  GLY247     -0.1957
     89  CA        18.0500   14.4270   15.8680 C.3   247  GLY247      0.1869
     90  C         19.1090   14.2540   14.8000 C.2   247  GLY247      0.2309
     91  O         19.2870   15.1580   13.9810 O.2   247  GLY247     -0.2863
     92  N         17.1770    9.3130   15.1880 N.3   266  ASP266     -0.1225
     93  CA        15.9580    9.7970   14.5530 C.3   266  ASP266      0.1805
     94  C         16.3080   11.0780   13.8240 C.2   266  ASP266      0.2598
     95  O         17.2100   11.8070   14.2370 O.2   266  ASP266     -0.2718
     96  CB        14.8640   10.1450   15.5680 C.3   266  ASP266      0.1424
     97  CG        15.1430   11.4580   16.2960 C.2   266  ASP266      0.3668
     98  OD1       15.8830   11.4470   17.3040 O.co2 266  ASP266     -0.2456
     99  OD2       14.6420   12.5130   15.8500 O.co2 266  ASP266     -0.2456
    100  N         15.5710   11.3540   12.7480 N.am  267  CYS267     -0.1970
    101  CA        15.7780   12.5840   11.9980 C.3   267  CYS267      0.1712
    102  C         14.6150   12.7810   11.0360 C.2   267  CYS267      0.2296
    103  O         14.0950   11.8090   10.4760 O.2   267  CYS267     -0.2864
    104  CB        17.0840   12.4960   11.2050 C.3   267  CYS267      0.0983
    105  SG        17.7140   14.0790   10.6910 S.3   267  CYS267     -0.0798
@<TRIPOS>BOND
     1   103   102    2
     2   105   104    1
     3   102   101    1
     4   104   101    1
     5   101   100    1
     6   100    94   am
     7    94    95    2
     8    94    93    1
     9    91    90    2
    10    93    92    1
    11    93    96    1
    12    90    89    1
    13    72    69    1
    14    96    97    1
    15    71    70    2
    16    99    97   ar
    17    89    88    1
    18    69    70    1
    19    69    68    1
    20    70    73   am
    21    97    98   ar
    22    75    76    2
    23    75    74    1
    24    73    74    1
    25    20    19    1
    26    74    77    1
    27    88    82   am
    28    68    62   am
    29    83    82    2
    30    18    19   ar
    31    18    16   ar
    32    82    81    1
    33    19    17   ar
    34    62    63    2
    35    62    61    1
    36    77    78    1
    37    77    79    1
    38    16    14   ar
    39    81    80    1
    40    81    84    1
    41    17    15   ar
    42    64    61    1
    43    64    65    1
    44    61    60    1
    45     8     6   ar
    46    14    15   ar
    47    14    13    1
    48    84    85    1
    49    66    65    1
    50    65    67    1
    51    60    58   am
    52     6     7   ar
    53     6     5    1
    54    12    11    2
    55    59    58    2
    56    58    57    1
    57    85    86    1
    58    11    10    1
    59    13    10    1
    60     5     2    1
    61     1     2    1
    62    34    33    1
    63    10     9    1
    64    87    86    1
    65    57    56    1
    66     2     3    1
    67    56    54   am
    68    54    55    2
    69    54    53    1
    70    33    30    1
    71    53    52    1
    72     3     4    2
    73    32    31    2
    74    31    30    1
    75    30    29    1
    76    50    49    2
    77    51    49   am
    78    41    39    1
    79    42    40    1
    80    28    26   ar
    81    49    48    1
    82    27    26   ar
    83    40    39    1
    84    26    25    1
    85    39    36    1
    86    36    37    1
    87    36    35    1
    88    44    45    1
    89    44    43    1
    90    44    47    1
    91    48    47    1
    92    45    46    2
    93    24    23    2
    94    37    38    2
    95    25    22    1
    96    23    22    1
    97    21    22    1
