@<TRIPOS>MOLECULE
tmp/5j9yA00.pdb
 169 158 0 0 0
SMALL
GASTEIGER

@<TRIPOS>ATOM
      1  N          4.2500   45.4510  -18.2020 N.3    22  LEU22      -0.1231
      2  CA         3.0730   46.1230  -17.6540 C.3    22  LEU22       0.1693
      3  C          1.8140   45.3440  -17.9310 C.2    22  LEU22       0.2592
      4  O          0.9090   45.3310  -17.1340 O.2    22  LEU22      -0.2718
      5  CB         2.9140   47.5030  -18.2480 C.3    22  LEU22       0.0284
      6  CG         4.1260   48.3930  -18.1350 C.3    22  LEU22       0.0019
      7  CD1        3.9290   49.6850  -18.9050 C.3    22  LEU22       0.0001
      8  CD2        4.3920   48.6620  -16.6820 C.3    22  LEU22       0.0001
      9  N          1.7130   44.7080  -19.0720 N.am   23  GLY23      -0.1957
     10  CA         0.5100   43.9320  -19.2990 C.3    23  GLY23       0.1869
     11  C          0.6390   43.1000  -20.5280 C.2    23  GLY23       0.2309
     12  O          1.5020   43.3630  -21.3610 O.2    23  GLY23      -0.2863
     13  N         -4.1810   42.5970  -27.3480 N.3    27  PHE27      -0.1241
     14  CA        -3.1700   43.5120  -27.9660 C.3    27  PHE27       0.1605
     15  C         -1.7800   42.9010  -28.2790 C.2    27  PHE27       0.2264
     16  O         -1.1790   43.2010  -29.3200 O.2    27  PHE27      -0.2867
     17  CB        -3.0020   44.8210  -27.1330 C.3    27  PHE27       0.0534
     18  CG        -2.8450   44.6160  -25.6300 C.ar   27  PHE27      -0.0203
     19  CD1       -1.5880   44.3690  -25.0620 C.ar   27  PHE27      -0.0042
     20  CD2       -3.9470   44.7050  -24.7750 C.ar   27  PHE27      -0.0042
     21  CE1       -1.4360   44.1920  -23.6830 C.ar   27  PHE27      -0.0003
     22  CE2       -3.8040   44.5190  -23.4000 C.ar   27  PHE27      -0.0003
     23  CZ        -2.5450   44.2640  -22.8510 C.ar   27  PHE27      -0.0000
     24  N          2.9150   44.5680  -23.3490 N.3    30  VAL30      -0.1245
     25  CA         3.4350   45.9160  -23.1000 C.3    30  VAL30       0.1561
     26  C          4.4980   45.9010  -22.0210 C.2    30  VAL30       0.2260
     27  O          4.2710   45.3350  -20.9440 O.2    30  VAL30      -0.2867
     28  CB         2.3220   46.9390  -22.7230 C.3    30  VAL30       0.0252
     29  CG1        2.9330   48.3120  -22.4160 C.3    30  VAL30       0.0019
     30  CG2        1.3110   47.1000  -23.8580 C.3    30  VAL30       0.0019
     31  N          7.2580   53.0150  -22.9190 N.3    47  ALA47      -0.1231
     32  CA         6.5000   51.7920  -22.9610 C.3    47  ALA47       0.1694
     33  C          6.6790   51.2410  -24.3730 C.2    47  ALA47       0.2592
     34  O          6.7550   51.9940  -25.3440 O.2    47  ALA47      -0.2718
     35  CB         5.0190   52.0220  -22.6460 C.3    47  ALA47       0.0304
     36  N          6.7560   49.9130  -24.4530 N.am   48  ILE48      -0.1966
     37  CA         7.0110   49.1930  -25.6860 C.3    48  ILE48       0.1727
     38  C          5.9460   48.1410  -25.8690 C.2    48  ILE48       0.2616
     39  O          5.7010   47.3390  -24.9640 O.2    48  ILE48      -0.2715
     40  CB         8.3620   48.4960  -25.6780 C.3    48  ILE48       0.0290
     41  CG1        9.4750   49.5160  -25.4710 C.3    48  ILE48       0.0022
     42  CG2        8.5840   47.7880  -27.0190 C.3    48  ILE48       0.0023
     43  CD1       10.4880   49.1020  -24.4340 C.3    48  ILE48       0.0001
     44  N          5.3370   48.1590  -27.0490 N.am   49  LYS49      -0.1977
     45  CA         4.3450   47.1840  -27.4190 C.3    49  LYS49       0.1596
     46  C          4.9040   46.2480  -28.4810 C.2    49  LYS49       0.2287
     47  O          5.3020   46.6860  -29.5650 O.2    49  LYS49      -0.2864
     48  CB         3.0950   47.8650  -27.9420 C.3    49  LYS49       0.0298
     49  CG         1.8980   46.9270  -28.0210 C.3    49  LYS49       0.0038
     50  CD         0.5820   47.6530  -27.7470 C.3    49  LYS49       0.0206
     51  CE        -0.2180   47.9180  -29.0140 C.3    49  LYS49       0.1093
     52  NZ        -1.6590   48.0600  -28.6640 N.3    49  LYS49      -0.1314
     53  N         -1.7240   51.4430  -36.5710 N.3    66  GLU66      -0.1245
     54  CA        -1.6830   52.1620  -35.2860 C.3    66  GLU66       0.1567
     55  C         -0.5020   53.1560  -35.2530 C.2    66  GLU66       0.2260
     56  O         -0.6490   54.3260  -34.8680 O.2    66  GLU66      -0.2867
     57  CB        -1.5840   51.1430  -34.1500 C.3    66  GLU66       0.0388
     58  CG        -1.7540   51.6910  -32.7370 C.3    66  GLU66       0.1160
     59  CD        -1.6630   50.6100  -31.6490 C.2    66  GLU66       0.3649
     60  OE1       -1.8780   49.4080  -31.9250 O.co2  66  GLU66      -0.2457
     61  OE2       -1.3770   50.9710  -30.4890 O.co2  66  GLU66      -0.2457
     62  N         -0.6720   57.2990  -34.7160 N.3    70  MET70      -0.1245
     63  CA         0.0690   57.8270  -33.5840 C.3    70  MET70       0.1570
     64  C          1.1780   58.7520  -34.0060 C.2    70  MET70       0.2261
     65  O          1.4850   59.7110  -33.3090 O.2    70  MET70      -0.2867
     66  CB         0.6680   56.6900  -32.7550 C.3    70  MET70       0.0387
     67  CG        -0.3470   55.9360  -31.9350 C.3    70  MET70       0.0595
     68  SD         0.3260   54.5810  -30.9620 S.3    70  MET70      -0.1393
     69  CE         1.1690   55.4850  -29.6590 C.3    70  MET70       0.0692
     70  N          6.2610   48.8840  -31.2680 N.3    92  LEU92      -0.1245
     71  CA         5.8930   50.3120  -31.1170 C.3    92  LEU92       0.1561
     72  C          6.4780   50.8690  -29.8360 C.2    92  LEU92       0.2260
     73  O          6.3040   50.2740  -28.7880 O.2    92  LEU92      -0.2867
     74  CB         4.3810   50.4750  -31.0430 C.3    92  LEU92       0.0270
     75  CG         3.5890   50.0570  -32.2690 C.3    92  LEU92       0.0019
     76  CD1        2.1010   50.2580  -32.0560 C.3    92  LEU92       0.0001
     77  CD2        4.0030   50.8770  -33.4560 C.3    92  LEU92       0.0001
     78  N          6.3970   54.1590  -27.2950 N.3    94  MET94      -0.1230
     79  CA         5.8240   55.4550  -26.9710 C.3    94  MET94       0.1702
     80  C          6.2330   55.9120  -25.6080 C.2    94  MET94       0.2592
     81  O          6.9380   55.2220  -24.9080 O.2    94  MET94      -0.2718
     82  CB         4.3100   55.4240  -27.1140 C.3    94  MET94       0.0401
     83  CG         3.5400   54.7780  -25.9860 C.3    94  MET94       0.0596
     84  SD         1.7880   55.1730  -26.1970 S.3    94  MET94      -0.1393
     85  CE         1.9050   56.8010  -25.4550 C.3    94  MET94       0.0692
     86  N          5.8030   57.1030  -25.2550 N.am   95  GLN95      -0.1966
     87  CA         5.9700   57.6280  -23.9050 C.3    95  GLN95       0.1733
     88  C          5.3660   56.7050  -22.8400 C.2    95  GLN95       0.2616
     89  O          4.2420   56.1940  -22.9800 O.2    95  GLN95      -0.2715
     90  CB         5.2720   58.9820  -23.8280 C.3    95  GLN95       0.0408
     91  CG         5.1580   59.6400  -22.4610 C.3    95  GLN95       0.0908
     92  CD         4.5440   61.0410  -22.5500 C.2    95  GLN95       0.2608
     93  OE1        3.6400   61.2950  -23.3610 O.2    95  GLN95      -0.2717
     94  NE2        5.0350   61.9520  -21.7220 N.am   95  GLN95      -0.0878
     95  N          6.1070   56.5310  -21.7540 N.am   96  LEU96      -0.1963
     96  CA         5.6030   55.8420  -20.5730 C.3    96  LEU96       0.1728
     97  C          4.5920   56.6680  -19.7780 C.2    96  LEU96       0.2616
     98  O          4.9230   57.7570  -19.2910 O.2    96  LEU96      -0.2715
     99  CB         6.7340   55.4700  -19.6360 C.3    96  LEU96       0.0311
    100  CG         6.2600   54.6290  -18.4330 C.3    96  LEU96       0.0022
    101  CD1        5.7410   53.2520  -18.8060 C.3    96  LEU96       0.0001
    102  CD2        7.4140   54.4960  -17.4670 C.3    96  LEU96       0.0001
    103  N          3.3950   56.1040  -19.6150 N.am   97  MET97      -0.1964
    104  CA         2.3230   56.7400  -18.8890 C.3    97  MET97       0.1722
    105  C          2.2360   56.0150  -17.5730 C.2    97  MET97       0.2458
    106  O          1.4610   55.0870  -17.4510 O.2    97  MET97      -0.2730
    107  CB         1.0070   56.6190  -19.6770 C.3    97  MET97       0.0427
    108  CG         1.0240   57.2830  -21.0450 C.3    97  MET97       0.0599
    109  SD         1.4380   59.0320  -20.9430 S.3    97  MET97      -0.1393
    110  CE        -0.2270   59.6630  -20.7250 C.3    97  MET97       0.0692
    111  N          3.0260   56.4300  -16.5780 N.am   98  PRO98      -0.2727
    112  CA         3.2970   55.5420  -15.4480 C.3    98  PRO98       0.1402
    113  C          2.0880   55.0390  -14.6960 C.2    98  PRO98       0.2269
    114  O          2.1040   53.9060  -14.2720 O.2    98  PRO98      -0.2865
    115  CB         4.1490   56.4010  -14.5150 C.3    98  PRO98       0.0296
    116  CG         4.6800   57.4950  -15.3570 C.3    98  PRO98       0.0237
    117  CD         3.5770   57.7690  -16.3320 C.3    98  PRO98       0.0939
    118  N         -0.8820   54.2070  -15.6620 N.3   100  GLY100     -0.1210
    119  CA        -1.7290   53.2800  -16.4020 C.3   100  GLY100      0.1956
    120  C         -2.9190   53.9830  -16.9800 C.2   100  GLY100      0.2612
    121  O         -2.8700   55.1900  -17.1660 O.2   100  GLY100     -0.2717
    122  N         -3.9840   53.2350  -17.2760 N.am  101  CYS101     -0.1970
    123  CA        -5.1680   53.8470  -17.8080 C.3   101  CYS101      0.1712
    124  C         -6.0410   54.3140  -16.6880 C.2   101  CYS101      0.2296
    125  O         -5.9250   53.8390  -15.5630 O.2   101  CYS101     -0.2864
    126  CB        -5.9500   52.9320  -18.7090 C.3   101  CYS101      0.0983
    127  SG        -6.6480   51.5280  -17.8630 S.3   101  CYS101     -0.0798
    128  N         -8.6040   51.9790  -14.5810 N.3   104  ASP104     -0.1239
    129  CA        -7.9530   51.3230  -13.4840 C.3   104  ASP104      0.1674
    130  C         -7.5810   52.2990  -12.3770 C.2   104  ASP104      0.2266
    131  O         -7.5620   51.9140  -11.2310 O.2   104  ASP104     -0.2867
    132  CB        -6.7020   50.6000  -13.9730 C.3   104  ASP104      0.1410
    133  CG        -7.0130   49.4120  -14.9000 C.2   104  ASP104      0.3668
    134  OD1       -8.1530   49.2660  -15.4200 O.co2 104  ASP104     -0.2456
    135  OD2       -6.0770   48.6080  -15.1050 O.co2 104  ASP104     -0.2456
    136  N        -10.8420   53.1480  -20.4560 N.3   145  ARG145     -0.1245
    137  CA        -9.6450   52.2520  -20.5800 C.3   145  ARG145      0.1563
    138  C         -8.6250   52.7300  -21.6210 C.2   145  ARG145      0.2260
    139  O         -7.4750   52.2990  -21.6090 O.2   145  ARG145     -0.2867
    140  CB       -10.0470   50.8190  -20.9550 C.3   145  ARG145      0.0307
    141  CG       -10.5690   50.7050  -22.3730 C.3   145  ARG145      0.0489
    142  CD       -11.0210   49.3300  -22.8060 C.3   145  ARG145      0.2205
    143  NE       -11.9370   49.5590  -23.9360 N.pl3 145  ARG145     -0.0865
    144  CZ       -13.2570   49.7250  -23.8310 C.cat 145  ARG145      0.5346
    145  NH1      -13.8610   49.6350  -22.6450 N.pl3 145  ARG145      0.1354
    146  NH2      -13.9990   49.9630  -24.9130 N.pl3 145  ARG145      0.1354
    147  N         -4.8950   57.3360  -20.9860 N.3   148  LEU148     -0.1245
    148  CA        -3.7790   57.0190  -20.1050 C.3   148  LEU148      0.1561
    149  C         -3.4290   58.1850  -19.2430 C.2   148  LEU148      0.2260
    150  O         -3.7320   59.3010  -19.5760 O.2   148  LEU148     -0.2867
    151  CB        -2.5430   56.5970  -20.9080 C.3   148  LEU148      0.0270
    152  CG        -2.7430   55.3330  -21.7480 C.3   148  LEU148      0.0019
    153  CD1       -1.6570   55.2690  -22.8130 C.3   148  LEU148      0.0001
    154  CD2       -2.7650   54.0800  -20.8840 C.3   148  LEU148      0.0001
    155  N         -5.5720   57.7510  -26.0800 N.3   158  THR158     -0.1203
    156  CA        -4.7750   56.7350  -26.7560 C.3   158  THR158      0.1994
    157  C         -5.6550   55.6840  -27.4310 C.2   158  THR158      0.2617
    158  O         -6.8260   55.9180  -27.6660 O.2   158  THR158     -0.2717
    159  CB        -3.7750   56.0850  -25.7700 C.3   158  THR158      0.1784
    160  OG1       -2.8150   55.3060  -26.4850 O.3   158  THR158     -0.2211
    161  CG2       -4.4760   55.1950  -24.7590 C.3   158  THR158      0.0376
    162  N         -5.0490   54.5330  -27.7180 N.am  159  ASP159     -0.1973
    163  CA        -5.6640   53.4170  -28.4820 C.3   159  ASP159      0.1709
    164  C         -6.3050   53.8770  -29.7960 C.2   159  ASP159      0.2293
    165  O         -7.5150   54.1150  -29.8910 O.2   159  ASP159     -0.2864
    166  CB        -6.6470   52.5920  -27.6380 C.3   159  ASP159      0.1436
    167  CG        -7.1050   51.2920  -28.3430 C.2   159  ASP159      0.3671
    168  OD1       -6.7100   51.0370  -29.5000 O.co2 159  ASP159     -0.2456
    169  OD2       -7.8730   50.5170  -27.7380 O.co2 159  ASP159     -0.2456
@<TRIPOS>BOND
     1    53    54    1
     2    54    55    1
     3    54    57    1
     4    55    56    2
     5    62    63    1
     6    57    58    1
     7    64    63    1
     8    64    65    2
     9    63    66    1
    10    77    75    1
    11    66    67    1
    12    58    59    1
    13    75    76    1
    14    75    74    1
    15    67    68    1
    16    60    59   ar
    17    59    61   ar
    18    70    71    1
    19    71    74    1
    20    71    72    1
    21    68    69    1
    22   165   164    2
    23    72    73    2
    24   164   163    1
    25    47    46    2
    26   168   167   ar
    27    16    15    2
    28    51    52    1
    29    51    50    1
    30   163   162    1
    31   163   166    1
    32    46    45    1
    33   167   169   ar
    34   167   166    1
    35    15    14    1
    36    49    48    1
    37    49    50    1
    38    14    13    1
    39    14    17    1
    40    48    45    1
    41   162   157   am
    42   158   157    2
    43   157   156    1
    44    45    44    1
    45    78    79    1
    46    17    18    1
    47    82    79    1
    48    82    83    1
    49    44    38   am
    50    42    40    1
    51    79    80    1
    52   156   155    1
    53   156   159    1
    54   160   159    1
    55    84    83    1
    56    84    85    1
    57    38    37    1
    58    38    39    2
    59   159   161    1
    60    37    40    1
    61    37    36    1
    62    40    41    1
    63    18    19   ar
    64    18    20   ar
    65    80    86   am
    66    80    81    2
    67    41    43    1
    68    34    33    2
    69    86    87    1
    70    19    21   ar
    71   146   144    1
    72    20    22   ar
    73    36    33   am
    74    33    32    1
    75   143   144    2
    76   143   142    1
    77    87    90    1
    78    87    88    1
    79    30    28    1
    80   144   145    1
    81    90    91    1
    82    21    23   ar
    83    22    23   ar
    84    93    92    2
    85    24    25    1
    86    25    28    1
    87    25    26    1
    88    89    88    2
    89    32    31    1
    90    32    35    1
    91    88    95   am
    92   153   152    1
    93   142   141    1
    94    28    29    1
    95    92    91    1
    96    92    94   am
    97   141   140    1
    98    26    27    2
    99    95    96    1
   100   152   151    1
   101   152   154    1
   102   138   139    2
   103   138   137    1
   104    12    11    2
   105   108   109    1
   106   108   107    1
   107   147   148    1
   108   140   137    1
   109   109   110    1
   110   151   148    1
   111   137   136    1
   112    96    97    1
   113    96    99    1
   114    11    10    1
   115   148   149    1
   116    97   103   am
   117    97    98    2
   118   107   104    1
   119    99   100    1
   120   103   104    1
   121   150   149    2
   122    10     9    1
   123     9     3   am
   124     7     6    1
   125   104   105    1
   126   101   100    1
   127   126   127    1
   128   126   123    1
   129   100   102    1
   130     5     6    1
   131     5     2    1
   132     1     2    1
   133     6     8    1
   134     3     2    1
   135     3     4    2
   136   123   122    1
   137   123   124    1
   138   105   106    2
   139   105   111   am
   140   122   120   am
   141   121   120    2
   142   120   119    1
   143   124   125    2
   144   111   117    1
   145   111   112    1
   146   119   118    1
   147   117   116    1
   148   112   113    1
   149   112   115    1
   150   134   133   ar
   151   116   115    1
   152   135   133   ar
   153   133   132    1
   154   113   114    2
   155   128   129    1
   156   132   129    1
   157   129   130    1
   158   130   131    2
