@<TRIPOS>MOLECULE
tmp/5j9zA00.pdb
 170 158 0 0 0
SMALL
GASTEIGER

@<TRIPOS>ATOM
      1  N          4.1240   46.3920  -18.9140 N.3    23  LEU23      -0.1231
      2  CA         3.0280   47.1140  -18.3240 C.3    23  LEU23       0.1693
      3  C          1.7470   46.3660  -18.5610 C.2    23  LEU23       0.2592
      4  O          0.8150   46.4650  -17.7840 O.2    23  LEU23      -0.2718
      5  CB         2.9410   48.5080  -18.9300 C.3    23  LEU23       0.0284
      6  CG         4.1480   49.4200  -18.7430 C.3    23  LEU23       0.0019
      7  CD1        4.0350   50.6810  -19.5730 C.3    23  LEU23       0.0001
      8  CD2        4.3250   49.7900  -17.2930 C.3    23  LEU23       0.0001
      9  N          1.6390   45.6430  -19.6530 N.am   24  GLY24      -0.1957
     10  CA         0.3870   44.9450  -19.8860 C.3    24  GLY24       0.1869
     11  C          0.4840   44.1120  -21.1230 C.2    24  GLY24       0.2309
     12  O          1.2900   44.4230  -22.0090 O.2    24  GLY24      -0.2863
     13  N         -4.5590   43.5430  -27.6330 N.3    28  PHE28      -0.1241
     14  CA        -3.6860   44.5790  -28.2540 C.3    28  PHE28       0.1605
     15  C         -2.2530   44.1410  -28.5560 C.2    28  PHE28       0.2264
     16  O         -1.6820   44.5470  -29.5730 O.2    28  PHE28      -0.2867
     17  CB        -3.6420   45.8840  -27.4230 C.3    28  PHE28       0.0534
     18  CG        -3.2640   45.6960  -25.9660 C.ar   28  PHE28      -0.0203
     19  CD1       -1.9210   45.6080  -25.5670 C.ar   28  PHE28      -0.0042
     20  CD2       -4.2570   45.6510  -24.9740 C.ar   28  PHE28      -0.0042
     21  CE1       -1.5810   45.4430  -24.2210 C.ar   28  PHE28      -0.0003
     22  CE2       -3.9210   45.4880  -23.6280 C.ar   28  PHE28      -0.0003
     23  CZ        -2.5820   45.3820  -23.2520 C.ar   28  PHE28      -0.0000
     24  N          2.8910   45.6390  -24.0810 N.3    31  VAL31      -0.1245
     25  CA         3.3910   46.9780  -23.8760 C.3    31  VAL31       0.1561
     26  C          4.3980   46.9910  -22.7490 C.2    31  VAL31       0.2260
     27  O          4.1250   46.5550  -21.6370 O.2    31  VAL31      -0.2867
     28  CB         2.2550   47.9800  -23.5630 C.3    31  VAL31       0.0252
     29  CG1        2.8250   49.3860  -23.4050 C.3    31  VAL31       0.0019
     30  CG2        1.2060   47.9750  -24.6770 C.3    31  VAL31       0.0019
     31  N          7.1280   53.9750  -23.9430 N.3    48  ALA48      -0.1245
     32  CA         6.3930   52.7530  -23.8880 C.3    48  ALA48       0.1562
     33  C          6.5660   52.1400  -25.2480 C.2    48  ALA48       0.2260
     34  O          6.6940   52.8620  -26.2450 O.2    48  ALA48      -0.2867
     35  CB         4.9430   53.0170  -23.6430 C.3    48  ALA48       0.0290
     36  N          5.2560   49.0140  -27.8820 N.3    50  LYS50      -0.1245
     37  CA         4.2010   48.0480  -28.1330 C.3    50  LYS50       0.1561
     38  C          4.6110   46.9640  -29.1860 C.2    50  LYS50       0.2260
     39  O          5.0610   47.2940  -30.2780 O.2    50  LYS50      -0.2867
     40  CB         2.9720   48.8040  -28.5350 C.3    50  LYS50       0.0271
     41  CG         1.7280   47.9690  -28.8030 C.3    50  LYS50       0.0035
     42  CD         0.6030   48.9640  -29.0490 C.3    50  LYS50       0.0206
     43  CE        -0.5110   48.4150  -29.8780 C.3    50  LYS50       0.1093
     44  NZ        -1.6170   49.4040  -29.8020 N.3    50  LYS50      -0.1314
     45  N         -1.7330   52.1130  -37.5960 N.3    67  GLU67      -0.1245
     46  CA        -1.7360   52.8210  -36.3640 C.3    67  GLU67       0.1567
     47  C         -0.5990   53.8170  -36.3060 C.2    67  GLU67       0.2260
     48  O         -0.7720   54.9350  -35.8580 O.2    67  GLU67      -0.2867
     49  CB        -1.6450   51.8410  -35.1880 C.3    67  GLU67       0.0388
     50  CG        -1.5660   52.5150  -33.8340 C.3    67  GLU67       0.1160
     51  CD        -1.9290   51.6210  -32.6490 C.2    67  GLU67       0.3649
     52  OE1       -2.6360   52.1390  -31.7630 O.co2  67  GLU67      -0.2457
     53  OE2       -1.4970   50.4470  -32.5630 O.co2  67  GLU67      -0.2457
     54  N         -0.7580   57.9170  -35.7640 N.3    71  MET71      -0.1245
     55  CA        -0.0460   58.5000  -34.6380 C.3    71  MET71       0.1570
     56  C          1.0740   59.4210  -35.0670 C.2    71  MET71       0.2261
     57  O          1.3880   60.3400  -34.3470 O.2    71  MET71      -0.2867
     58  CB         0.4930   57.4330  -33.7090 C.3    71  MET71       0.0387
     59  CG        -0.5810   56.6610  -32.9810 C.3    71  MET71       0.0595
     60  SD         0.0490   55.3460  -31.8760 S.3    71  MET71      -0.1393
     61  CE         0.8780   56.3690  -30.6790 C.3    71  MET71       0.0692
     62  N          6.0210   49.6540  -32.0090 N.3    93  LEU93      -0.1231
     63  CA         5.6880   51.0890  -31.9440 C.3    93  LEU93       0.1693
     64  C          6.2420   51.6600  -30.7030 C.2    93  LEU93       0.2592
     65  O          6.0990   51.0170  -29.6660 O.2    93  LEU93      -0.2718
     66  CB         4.2020   51.3030  -31.9490 C.3    93  LEU93       0.0284
     67  CG         3.5040   50.8060  -33.1880 C.3    93  LEU93       0.0019
     68  CD1        2.0360   51.1810  -33.1550 C.3    93  LEU93       0.0001
     69  CD2        4.1550   51.4090  -34.4120 C.3    93  LEU93       0.0001
     70  N          6.8830   52.8350  -30.8010 N.am   94  ILE94      -0.1966
     71  CA         7.4170   53.5170  -29.6320 C.3    94  ILE94       0.1727
     72  C          6.7310   54.8710  -29.4900 C.2    94  ILE94       0.2616
     73  O          6.6840   55.6740  -30.4370 O.2    94  ILE94      -0.2715
     74  CB         8.9440   53.7120  -29.7080 C.3    94  ILE94       0.0290
     75  CG1        9.6220   52.3510  -29.8230 C.3    94  ILE94       0.0022
     76  CG2        9.5090   54.4890  -28.5060 C.3    94  ILE94       0.0023
     77  CD1        9.7190   51.8250  -31.2560 C.3    94  ILE94       0.0001
     78  N          6.2690   55.1310  -28.2740 N.am   95  MET95      -0.1963
     79  CA         5.6280   56.3750  -27.9390 C.3    95  MET95       0.1736
     80  C          6.0480   56.8000  -26.5720 C.2    95  MET95       0.2616
     81  O          6.7910   56.1240  -25.8780 O.2    95  MET95      -0.2715
     82  CB         4.1150   56.2160  -28.0350 C.3    95  MET95       0.0427
     83  CG         3.4150   55.6470  -26.8440 C.3    95  MET95       0.0599
     84  SD         1.6620   56.0970  -26.8360 S.3    95  MET95      -0.1393
     85  CE         1.8740   57.8070  -26.3580 C.3    95  MET95       0.0692
     86  N          5.5620   57.9480  -26.1850 N.am   96  GLN96      -0.1963
     87  CA         5.8690   58.4950  -24.8740 C.3    96  GLN96       0.1733
     88  C          5.2740   57.6270  -23.7630 C.2    96  GLN96       0.2616
     89  O          4.1740   57.0570  -23.8920 O.2    96  GLN96      -0.2715
     90  CB         5.3720   59.9200  -24.8330 C.3    96  GLN96       0.0408
     91  CG         4.9350   60.4810  -23.5320 C.3    96  GLN96       0.0908
     92  CD         4.3270   61.8670  -23.7190 C.2    96  GLN96       0.2608
     93  OE1        3.3730   62.0280  -24.4810 O.2    96  GLN96      -0.2717
     94  NE2        4.8820   62.8750  -23.0300 N.am   96  GLN96      -0.0878
     95  N          6.0300   57.4780  -22.6800 N.am   97  LEU97      -0.1963
     96  CA         5.5240   56.7590  -21.5410 C.3    97  LEU97       0.1728
     97  C          4.5250   57.6470  -20.8210 C.2    97  LEU97       0.2616
     98  O          4.8640   58.7490  -20.4710 O.2    97  LEU97      -0.2715
     99  CB         6.6510   56.4370  -20.5660 C.3    97  LEU97       0.0311
    100  CG         6.2280   55.7160  -19.2650 C.3    97  LEU97       0.0022
    101  CD1        5.7340   54.3100  -19.5230 C.3    97  LEU97       0.0001
    102  CD2        7.3540   55.6350  -18.2630 C.3    97  LEU97       0.0001
    103  N          3.3490   57.1010  -20.5740 N.am   98  MET98      -0.1977
    104  CA         2.3040   57.7210  -19.8020 C.3    98  MET98       0.1605
    105  C          2.2130   56.9780  -18.4620 C.2    98  MET98       0.2287
    106  O          1.5210   55.9760  -18.3100 O.2    98  MET98      -0.2864
    107  CB         1.0100   57.6410  -20.6040 C.3    98  MET98       0.0413
    108  CG         1.1180   58.3040  -21.9860 C.3    98  MET98       0.0598
    109  SD         1.3830   60.1100  -21.9170 S.3    98  MET98      -0.1393
    110  CE        -0.3300   60.6400  -21.9470 C.3    98  MET98       0.0692
    111  N         -0.9320   55.2720  -16.5500 N.3   101  GLY101     -0.1210
    112  CA        -1.7810   54.3530  -17.2560 C.3   101  GLY101      0.1956
    113  C         -2.9900   55.0390  -17.8380 C.2   101  GLY101      0.2612
    114  O         -2.9350   56.2360  -18.1270 O.2   101  GLY101     -0.2717
    115  N         -4.0450   54.2530  -18.0870 N.am  102  CYS102     -0.1970
    116  CA        -5.2780   54.8090  -18.5850 C.3   102  CYS102      0.1712
    117  C         -6.1370   55.4320  -17.4820 C.2   102  CYS102      0.2296
    118  O         -6.0500   55.1120  -16.2830 O.2   102  CYS102     -0.2864
    119  CB        -6.0970   53.8050  -19.3320 C.3   102  CYS102      0.0983
    120  SG        -6.5800   52.3510  -18.4060 S.3   102  CYS102     -0.0798
    121  N         -9.2550   55.2610  -17.1310 N.3   104  LEU104     -0.1231
    122  CA       -10.2480   54.3620  -16.5190 C.3   104  LEU104      0.1693
    123  C         -9.7050   53.6980  -15.2420 C.2   104  LEU104      0.2592
    124  O        -10.3320   53.7270  -14.1850 O.2   104  LEU104     -0.2718
    125  CB       -10.7210   53.3040  -17.5020 C.3   104  LEU104      0.0284
    126  CG       -11.8200   52.3550  -16.9380 C.3   104  LEU104      0.0019
    127  CD1      -13.1070   53.0890  -16.5760 C.3   104  LEU104      0.0001
    128  CD2      -12.1930   51.2490  -17.9220 C.3   104  LEU104      0.0001
    129  N         -8.5220   53.1260  -15.3260 N.am  105  ASP105     -0.1974
    130  CA        -7.9700   52.4650  -14.1550 C.3   105  ASP105      0.1709
    131  C         -7.6300   53.4540  -13.1210 C.2   105  ASP105      0.2293
    132  O         -7.6300   53.1210  -11.9730 O.2   105  ASP105     -0.2864
    133  CB        -6.7090   51.6550  -14.4650 C.3   105  ASP105      0.1436
    134  CG        -6.9750   50.5110  -15.4080 C.2   105  ASP105      0.3671
    135  OD1       -8.1390   50.1520  -15.6720 O.co2 105  ASP105     -0.2456
    136  OD2       -5.9820   49.9880  -15.9240 O.co2 105  ASP105     -0.2456
    137  N        -10.8760   54.1820  -21.2100 N.3   146  ARG146     -0.1245
    138  CA        -9.7590   53.2420  -21.3590 C.3   146  ARG146      0.1563
    139  C         -8.7580   53.6990  -22.3910 C.2   146  ARG146      0.2260
    140  O         -7.6150   53.2670  -22.3290 O.2   146  ARG146     -0.2867
    141  CB       -10.2340   51.7880  -21.6750 C.3   146  ARG146      0.0307
    142  CG       -10.6710   51.5780  -23.0940 C.3   146  ARG146      0.0489
    143  CD       -11.3480   50.2440  -23.3700 C.3   146  ARG146      0.2205
    144  NE       -12.1470   50.4350  -24.5980 N.pl3 146  ARG146     -0.0865
    145  CZ       -13.4610   50.7030  -24.6520 C.cat 146  ARG146      0.5346
    146  NH1      -14.2150   50.7350  -23.5520 N.pl3 146  ARG146      0.1354
    147  NH2      -14.0580   50.9330  -25.8280 N.pl3 146  ARG146      0.1354
    148  N         -4.9270   58.3890  -21.8500 N.3   149  LEU149     -0.1245
    149  CA        -3.7550   58.0540  -21.0360 C.3   149  LEU149      0.1561
    150  C         -3.3980   59.1920  -20.1460 C.2   149  LEU149      0.2260
    151  O         -3.7390   60.3410  -20.4250 O.2   149  LEU149     -0.2867
    152  CB        -2.5430   57.6690  -21.9140 C.3   149  LEU149      0.0270
    153  CG        -2.7580   56.3680  -22.7170 C.3   149  LEU149      0.0019
    154  CD1       -1.4740   55.9980  -23.4050 C.3   149  LEU149      0.0001
    155  CD2       -3.1810   55.1770  -21.8890 C.3   149  LEU149      0.0001
    156  N         -5.7500   58.5600  -26.8870 N.3   159  THR159     -0.1203
    157  CA        -5.0540   57.6270  -27.7390 C.3   159  THR159      0.1994
    158  C         -5.9720   56.6340  -28.4090 C.2   159  THR159      0.2617
    159  O         -7.1810   56.8320  -28.4460 O.2   159  THR159     -0.2717
    160  CB        -3.9620   56.9250  -26.9370 C.3   159  THR159      0.1784
    161  OG1       -3.0610   56.3070  -27.8620 O.3   159  THR159     -0.2211
    162  CG2       -4.5610   55.9000  -25.9430 C.3   159  THR159      0.0376
    163  N         -5.3710   55.5680  -28.9400 N.am  160  ASP160     -0.1973
    164  CA        -6.0410   54.4530  -29.6600 C.3   160  ASP160      0.1709
    165  C         -6.8240   54.9170  -30.8470 C.2   160  ASP160      0.2293
    166  O         -8.0470   54.8610  -30.9340 O.2   160  ASP160     -0.2864
    167  CB        -6.8080   53.4800  -28.7620 C.3   160  ASP160      0.1436
    168  CG        -5.8690   52.5050  -28.0200 C.2   160  ASP160      0.3671
    169  OD1       -4.6900   52.3990  -28.3860 O.co2 160  ASP160     -0.2456
    170  OD2       -6.2690   51.8530  -27.0400 O.co2 160  ASP160     -0.2456
@<TRIPOS>BOND
     1    45    46    1
     2    46    47    1
     3    46    49    1
     4    47    48    2
     5    54    55    1
     6    49    50    1
     7    56    55    1
     8    56    57    2
     9    55    58    1
    10    69    67    1
    11    50    51    1
    12    58    59    1
    13    67    68    1
    14    67    66    1
    15    59    60    1
    16    51    53   ar
    17    51    52   ar
    18    62    63    1
    19    66    63    1
    20    63    64    1
    21    60    61    1
    22    77    75    1
    23   166   165    2
    24   165   164    1
    25    70    64   am
    26    70    71    1
    27    64    65    2
    28    73    72    2
    29    39    38    2
    30    43    44    1
    31    43    42    1
    32    75    74    1
    33    74    71    1
    34    74    76    1
    35   164   163    1
    36   164   167    1
    37    71    72    1
    38    16    15    2
    39    72    78   am
    40    38    37    1
    41    42    41    1
    42   163   158   am
    43    41    40    1
    44   167   168    1
    45    15    14    1
    46    40    37    1
    47   159   158    2
    48   158   157    1
    49   169   168   ar
    50    78    79    1
    51    14    13    1
    52    14    17    1
    53    37    36    1
    54    82    79    1
    55    82    83    1
    56   168   170   ar
    57    79    80    1
    58   161   160    1
    59   157   160    1
    60   157   156    1
    61    17    18    1
    62   160   162    1
    63    83    84    1
    64    84    85    1
    65    80    86   am
    66    80    81    2
    67    34    33    2
    68    86    87    1
    69    18    19   ar
    70    18    20   ar
    71   147   145    1
    72    19    21   ar
    73    33    32    1
    74    20    22   ar
    75    87    90    1
    76    87    88    1
    77    90    91    1
    78    30    28    1
    79   145   144    2
    80   145   146    1
    81   144   143    1
    82    93    92    2
    83    21    23   ar
    84    24    25    1
    85    31    32    1
    86    89    88    2
    87    32    35    1
    88    25    28    1
    89    25    26    1
    90    88    95   am
    91    92    91    1
    92    92    94   am
    93    22    23   ar
    94    28    29    1
    95   154   153    1
    96   143   142    1
    97   142   141    1
    98    26    27    2
    99   153   152    1
   100   153   155    1
   101    95    96    1
   102   139   140    2
   103   139   138    1
   104    12    11    2
   105   108   109    1
   106   108   107    1
   107   110   109    1
   108   152   149    1
   109   148   149    1
   110   141   138    1
   111    96    97    1
   112    96    99    1
   113   138   137    1
   114    11    10    1
   115   149   150    1
   116    97   103   am
   117    97    98    2
   118   107   104    1
   119   103   104    1
   120    99   100    1
   121   151   150    2
   122    10     9    1
   123   104   105    1
   124     9     3   am
   125     7     6    1
   126   101   100    1
   127   119   116    1
   128   119   120    1
   129   100   102    1
   130     5     6    1
   131     5     2    1
   132     1     2    1
   133     6     8    1
   134   116   115    1
   135   116   117    1
   136     3     2    1
   137     3     4    2
   138   105   106    2
   139   114   113    2
   140   115   113   am
   141   128   126    1
   142   113   112    1
   143   125   126    1
   144   125   122    1
   145   117   118    2
   146   112   111    1
   147   121   122    1
   148   126   127    1
   149   122   123    1
   150   136   134   ar
   151   135   134   ar
   152   134   133    1
   153   129   123   am
   154   129   130    1
   155   123   124    2
   156   133   130    1
   157   130   131    1
   158   131   132    2
