@<TRIPOS>MOLECULE
tmp/5ja0A00.pdb
 182 173 0 0 0
SMALL
GASTEIGER

@<TRIPOS>ATOM
      1  N         -6.5460   72.2320   22.9860 N.3     1  TYR1       -0.1241
      2  CA        -6.0630   73.1450   21.8900 C.3     1  TYR1        0.1605
      3  C         -5.2470   72.4380   20.7430 C.2     1  TYR1        0.2264
      4  O         -4.4670   73.1130   20.0690 O.2     1  TYR1       -0.2867
      5  CB        -5.2310   74.3650   22.4630 C.3     1  TYR1        0.0534
      6  CG        -5.9430   75.1260   23.5560 C.ar    1  TYR1       -0.0201
      7  CD1       -6.9420   76.1260   23.2500 C.ar    1  TYR1       -0.0009
      8  CD2       -5.6570   74.8490   24.9240 C.ar    1  TYR1       -0.0009
      9  CE1       -7.6320   76.7850   24.3090 C.ar    1  TYR1        0.0417
     10  CE2       -6.3490   75.4830   25.9610 C.ar    1  TYR1        0.0417
     11  CZ        -7.3240   76.4500   25.6630 C.ar    1  TYR1        0.1957
     12  OH        -8.0130   77.0450   26.7400 O.3     1  TYR1       -0.2866
     13  N          6.3230   73.0260   20.6620 N.3    43  LYS43      -0.1231
     14  CA         4.9280   72.7400   21.0780 C.3    43  LYS43       0.1693
     15  C          4.1360   74.0220   20.9340 C.2    43  LYS43       0.2592
     16  O          2.9550   74.0020   20.9750 O.2    43  LYS43      -0.2718
     17  CB         4.9510   72.2000   22.4970 C.3    43  LYS43       0.0285
     18  CG         5.8500   70.9680   22.6300 C.3    43  LYS43       0.0035
     19  CD         5.8870   70.3630   24.0010 C.3    43  LYS43       0.0206
     20  CE         6.7570   70.9820   25.1480 C.3    43  LYS43       0.1093
     21  NZ         7.8690   71.9380   24.9220 N.3    43  LYS43      -0.1314
     22  N          4.7880   75.1770   20.7060 N.am   44  TYR44      -0.1962
     23  CA         4.1070   76.4510   20.3070 C.3    44  TYR44       0.1771
     24  C          3.2150   77.0310   21.3950 C.2    44  TYR44       0.2620
     25  O          2.3350   77.8810   21.1440 O.2    44  TYR44      -0.2715
     26  CB         3.3230   76.3620   18.9910 C.3    44  TYR44       0.0574
     27  CG         4.0120   75.6530   17.8610 C.ar   44  TYR44      -0.0198
     28  CD1        3.6770   74.3350   17.5280 C.ar   44  TYR44      -0.0009
     29  CD2        5.0670   76.2640   17.1810 C.ar   44  TYR44      -0.0009
     30  CE1        4.3730   73.6480   16.5120 C.ar   44  TYR44       0.0417
     31  CE2        5.7220   75.6110   16.1550 C.ar   44  TYR44       0.0417
     32  CZ         5.3580   74.3250   15.8190 C.ar   44  TYR44       0.1957
     33  OH         6.0790   73.7480   14.8470 O.3    44  TYR44      -0.2866
     34  N          3.5010   76.6460   22.6390 N.am   45  ASN45      -0.1958
     35  CA         2.6360   77.0910   23.7390 C.3    45  ASN45       0.1819
     36  C          2.6820   78.5900   24.0500 C.2    45  ASN45       0.2621
     37  O          1.6440   79.1540   24.2780 O.2    45  ASN45      -0.2715
     38  CB         2.8620   76.2670   24.9510 C.3    45  ASN45       0.1195
     39  CG         2.3090   74.8430   24.7850 C.2    45  ASN45       0.2630
     40  OD1        1.1600   74.6940   24.2920 O.2    45  ASN45      -0.2716
     41  ND2        3.1130   73.7970   25.2180 N.am   45  ASN45      -0.0877
     42  N          3.8020   79.2170   23.9250 N.am   46  ARG46      -0.1977
     43  CA         3.9680   80.6300   24.1740 C.3    46  ARG46       0.1597
     44  C          3.2200   81.4660   23.1370 C.2    46  ARG46       0.2287
     45  O          2.4710   82.4200   23.4750 O.2    46  ARG46      -0.2864
     46  CB         5.4410   81.0800   24.3230 C.3    46  ARG46       0.0334
     47  CG         6.1310   80.3470   25.5020 C.3    46  ARG46       0.0492
     48  CD         7.6840   80.5170   25.4260 C.3    46  ARG46       0.2205
     49  NE         8.3180   79.9550   26.6130 N.pl3  46  ARG46      -0.0865
     50  CZ         8.4870   78.6440   26.7330 C.cat  46  ARG46       0.5346
     51  NH1        8.0600   77.8340   25.7570 N.pl3  46  ARG46       0.1354
     52  NH2        8.9940   78.1350   27.8150 N.pl3  46  ARG46       0.1354
     53  N          0.8050   80.3500   21.1100 N.3    48  LEU48      -0.1231
     54  CA        -0.6370   80.1020   21.1860 C.3    48  LEU48       0.1693
     55  C         -1.3030   80.8790   22.3390 C.2    48  LEU48       0.2592
     56  O         -2.4850   81.2820   22.2410 O.2    48  LEU48      -0.2718
     57  CB        -0.8730   78.5930   21.3100 C.3    48  LEU48       0.0284
     58  CG        -2.2050   78.0650   21.4980 C.3    48  LEU48       0.0019
     59  CD1       -2.9610   78.3310   20.1860 C.3    48  LEU48       0.0001
     60  CD2       -2.2100   76.5590   21.9240 C.3    48  LEU48       0.0001
     61  N         -0.5790   81.1020   23.4140 N.am   49  THR49      -0.1953
     62  CA        -1.0360   81.8760   24.5290 C.3    49  THR49       0.1897
     63  C         -1.4830   83.2600   24.1210 C.2    49  THR49       0.2313
     64  O         -2.5220   83.7950   24.5990 O.2    49  THR49      -0.2863
     65  CB         0.0090   81.9020   25.6550 C.3    49  THR49       0.1794
     66  OG1        0.2170   80.5550   26.2200 O.3    49  THR49      -0.2208
     67  CG2       -0.4280   82.7840   26.7800 C.3    49  THR49       0.0378
     68  N         -4.9610   82.7480   22.2150 N.3    52  VAL52      -0.1231
     69  CA        -6.0480   82.3500   23.0940 C.3    52  VAL52       0.1692
     70  C         -6.4220   83.5020   23.9950 C.2    52  VAL52       0.2591
     71  O         -7.6190   83.8050   24.2040 O.2    52  VAL52      -0.2718
     72  CB        -5.7390   81.0670   23.9240 C.3    52  VAL52       0.0266
     73  CG1       -6.9290   80.7080   24.8510 C.3    52  VAL52       0.0020
     74  CG2       -5.5560   79.9080   22.9680 C.3    52  VAL52       0.0020
     75  N         -5.4460   84.0980   24.6010 N.am   53  ALA53      -0.1980
     76  CA        -5.6830   85.1980   25.5180 C.3    53  ALA53       0.1597
     77  C         -6.2980   86.3480   24.7800 C.2    53  ALA53       0.2287
     78  O         -7.2700   86.9960   25.2580 O.2    53  ALA53      -0.2864
     79  CB        -4.3530   85.6150   26.1870 C.3    53  ALA53       0.0319
     80  N         -9.8970   85.7480   24.3600 N.3    56  GLU56      -0.1245
     81  CA       -10.6920   85.7990   25.6320 C.3    56  GLU56       0.1567
     82  C        -10.7670   87.2240   26.1210 C.2    56  GLU56       0.2260
     83  O        -11.6320   87.5760   26.8230 O.2    56  GLU56      -0.2867
     84  CB       -10.0770   84.9090   26.6610 C.3    56  GLU56       0.0388
     85  CG       -10.0680   83.3900   26.2880 C.3    56  GLU56       0.1160
     86  CD        -9.7920   82.4450   27.5050 C.2    56  GLU56       0.3649
     87  OE1       -9.4760   82.9070   28.6510 O.co2  56  GLU56      -0.2457
     88  OE2       -9.8270   81.2220   27.3390 O.co2  56  GLU56      -0.2457
     89  N         11.5700   83.1540   21.2760 N.3    82  GLN82      -0.1245
     90  CA        11.9950   81.8340   21.7370 C.3    82  GLN82       0.1566
     91  C         13.0840   81.2020   20.8900 C.2    82  GLN82       0.2260
     92  O         14.0680   80.6550   21.4260 O.2    82  GLN82      -0.2867
     93  CB        10.7880   80.9610   21.9000 C.3    82  GLN82       0.0367
     94  CG        10.9270   79.4370   22.1080 C.3    82  GLN82       0.0905
     95  CD        11.0160   79.1340   23.5300 C.2    82  GLN82       0.2608
     96  OE1       11.6090   79.9080   24.2500 O.2    82  GLN82      -0.2717
     97  NE2       10.7400   77.9810   23.8930 N.am   82  GLN82      -0.0878
     98  N          8.0940   83.6800   29.1230 N.3   191  SER191     -0.1202
     99  CA         7.2660   82.5530   28.8750 C.3   191  SER191      0.2020
    100  C          5.8400   82.8260   29.2360 C.2   191  SER191      0.2618
    101  O          4.9970   82.2310   28.6500 O.2   191  SER191     -0.2717
    102  CB         7.7920   81.2970   29.6370 C.3   191  SER191      0.2103
    103  OG         9.1420   80.9040   29.1780 O.3   191  SER191     -0.2182
    104  N          5.6400   83.5270   30.3480 N.am  192  PHE192     -0.1975
    105  CA         4.3680   83.7700   30.9490 C.3   192  PHE192      0.1639
    106  C          3.9150   85.1920   30.9540 C.2   192  PHE192      0.2290
    107  O          2.7570   85.4320   30.6000 O.2   192  PHE192     -0.2864
    108  CB         4.2710   83.1860   32.3700 C.3   192  PHE192      0.0560
    109  CG         4.4320   81.6860   32.3540 C.ar  192  PHE192     -0.0200
    110  CD1        5.6680   81.1020   32.4880 C.ar  192  PHE192     -0.0042
    111  CD2        3.3770   80.8950   32.0250 C.ar  192  PHE192     -0.0042
    112  CE1        5.8180   79.7380   32.4120 C.ar  192  PHE192     -0.0003
    113  CE2        3.5200   79.5040   31.9290 C.ar  192  PHE192     -0.0003
    114  CZ         4.7490   78.9510   32.0490 C.ar  192  PHE192     -0.0000
    115  N          0.7470   87.0550   27.5070 N.3   196  ILE196     -0.1301
    116  CA        -0.5060   87.5900   28.0290 C.3   196  ILE196      0.1246
    117  C         -0.3730   89.1220   27.9550 C.3   196  ILE196      0.2009
    118  O         -1.3420   89.6940   27.5470 O.3   196  ILE196     -0.2188
    119  CB        -0.6850   87.2160   29.5230 C.3   196  ILE196      0.0202
    120  CG1       -0.7790   85.6960   29.7270 C.3   196  ILE196      0.0015
    121  CG2       -1.8870   87.9150   30.2170 C.3   196  ILE196      0.0016
    122  CD1       -1.9530   85.0720   29.1270 C.3   196  ILE196      0.0000
    123  N          6.2860   76.5300   37.1280 N.3   225  PHE225     -0.1241
    124  CA         6.5410   75.7670   35.8470 C.3   225  PHE225      0.1605
    125  C          8.0350   75.2480   35.8330 C.2   225  PHE225      0.2264
    126  O          8.3240   74.1140   35.4010 O.2   225  PHE225     -0.2867
    127  CB         6.3680   76.7590   34.6720 C.3   225  PHE225      0.0534
    128  CG         6.9050   76.2950   33.3870 C.ar  225  PHE225     -0.0203
    129  CD1        6.2270   75.3590   32.6650 C.ar  225  PHE225     -0.0042
    130  CD2        8.1760   76.7170   32.9720 C.ar  225  PHE225     -0.0042
    131  CE1        6.7550   74.8690   31.4610 C.ar  225  PHE225     -0.0003
    132  CE2        8.6980   76.2490   31.7780 C.ar  225  PHE225     -0.0003
    133  CZ         7.9560   75.3620   31.0290 C.ar  225  PHE225     -0.0000
    134  N          9.5050   71.5640   36.0670 N.3   229  ASP229     -0.1239
    135  CA        10.4080   71.1590   35.0210 C.3   229  ASP229      0.1674
    136  C         11.7010   70.5100   35.6080 C.2   229  ASP229      0.2266
    137  O         12.1680   69.4600   35.1320 O.2   229  ASP229     -0.2867
    138  CB        10.6650   72.3820   34.1220 C.3   229  ASP229      0.1410
    139  CG        11.5090   72.0280   32.9060 C.2   229  ASP229      0.3668
    140  OD1       11.0830   71.2190   32.0830 O.co2 229  ASP229     -0.2456
    141  OD2       12.6520   72.5150   32.7940 O.co2 229  ASP229     -0.2456
    142  N        -10.5940   83.2200   33.5790 N.3   320  ALA320     -0.1231
    143  CA       -10.3830   82.1240   32.7190 C.3   320  ALA320      0.1694
    144  C         -9.0080   82.2330   31.9680 C.2   320  ALA320      0.2591
    145  O         -8.4940   81.2280   31.5350 O.2   320  ALA320     -0.2718
    146  CB       -11.4570   81.9560   31.6800 C.3   320  ALA320      0.0304
    147  N         -8.5150   83.4180   31.7560 N.am  321  VAL321     -0.1980
    148  CA        -7.2240   83.6210   31.0800 C.3   321  VAL321      0.1595
    149  C         -6.1060   82.9140   31.8710 C.2   321  VAL321      0.2287
    150  O         -5.3260   82.1550   31.3120 O.2   321  VAL321     -0.2864
    151  CB        -6.9010   85.0770   30.9420 C.3   321  VAL321      0.0276
    152  CG1       -5.4430   85.2400   30.4680 C.3   321  VAL321      0.0022
    153  CG2       -7.7260   85.6730   29.8370 C.3   321  VAL321      0.0022
    154  N         -6.7030   78.9700   32.4950 N.3   324  GLY324     -0.1210
    155  CA        -6.3560   78.1040   31.3960 C.3   324  GLY324      0.1956
    156  C         -4.8840   77.7850   31.5020 C.2   324  GLY324      0.2611
    157  O         -4.4510   76.6740   31.2080 O.2   324  GLY324     -0.2717
    158  N         -4.0910   78.7920   31.9020 N.am  325  LEU325     -0.1979
    159  CA        -2.6190   78.5500   32.0100 C.3   325  LEU325      0.1596
    160  C         -2.3350   77.5920   33.1440 C.2   325  LEU325      0.2287
    161  O         -1.5400   76.6810   33.0010 O.2   325  LEU325     -0.2864
    162  CB        -1.9290   79.8610   32.2850 C.3   325  LEU325      0.0297
    163  CG        -1.9490   80.8310   31.0840 C.3   325  LEU325      0.0022
    164  CD1       -1.4330   82.1470   31.6440 C.3   325  LEU325      0.0001
    165  CD2       -1.0280   80.4500   30.0040 C.3   325  LEU325      0.0001
    166  N         -2.9830   74.1140   32.1780 N.3   328  LYS328     -0.1231
    167  CA        -1.9320   73.5080   31.3210 C.3   328  LYS328      0.1693
    168  C         -0.6580   73.1930   32.1940 C.2   328  LYS328      0.2591
    169  O         -0.0960   72.1420   32.1490 O.2   328  LYS328     -0.2718
    170  CB        -1.5810   74.4910   30.2680 C.3   328  LYS328      0.0285
    171  CG        -0.4470   74.0100   29.3550 C.3   328  LYS328      0.0035
    172  CD        -1.0040   73.1480   28.2950 C.3   328  LYS328      0.0206
    173  CE        -0.1330   72.9620   27.1270 C.3   328  LYS328      0.1093
    174  NZ         0.5990   71.7620   27.2380 N.3   328  LYS328     -0.1314
    175  N         -0.2500   74.0930   33.0710 N.am  329  ILE329     -0.1980
    176  CA         1.0620   73.8790   33.7350 C.3   329  ILE329      0.1595
    177  C          0.9720   72.8510   34.8920 C.2   329  ILE329      0.2287
    178  O          1.9160   72.1630   35.1560 O.2   329  ILE329     -0.2864
    179  CB         1.7760   75.1710   34.1340 C.3   329  ILE329      0.0276
    180  CG1        1.2400   75.8390   35.2720 C.3   329  ILE329      0.0022
    181  CG2        1.8780   76.2510   33.0110 C.3   329  ILE329      0.0022
    182  CD1        1.8290   77.2360   35.4250 C.3   329  ILE329      0.0001
@<TRIPOS>BOND
     1    33    32    1
     2    32    31   ar
     3    32    30   ar
     4    31    29   ar
     5    30    28   ar
     6    29    27   ar
     7    28    27   ar
     8    27    26    1
     9    26    23    1
    10     4     3    2
    11    59    58    1
    12    23    22    1
    13    23    24    1
    14    13    14    1
    15    22    15   am
    16     3     2    1
    17    91    92    2
    18    91    90    1
    19    15    16    2
    20    15    14    1
    21    14    17    1
    22    53    54    1
    23    25    24    2
    24    54    57    1
    25    54    55    1
    26    89    90    1
    27    57    58    1
    28    24    34   am
    29    58    60    1
    30    90    93    1
    31     2     5    1
    32     2     1    1
    33    93    94    1
    34    94    95    1
    35    68    69    1
    36    56    55    2
    37    55    61   am
    38     5     6    1
    39    17    18    1
    40    18    19    1
    41    34    35    1
    42    74    72    1
    43    69    72    1
    44    69    70    1
    45    44    45    2
    46    44    43    1
    47     7     6   ar
    48     7     9   ar
    49    61    62    1
    50    95    97   am
    51    95    96    2
    52     6     8   ar
    53    35    36    1
    54    35    38    1
    55    72    73    1
    56    42    36   am
    57    42    43    1
    58    70    71    2
    59    70    75   am
    60    19    20    1
    61    36    37    2
    62    63    62    1
    63    63    64    2
    64    43    46    1
    65    40    39    2
    66     9    11   ar
    67    46    47    1
    68    80    81    1
    69    62    65    1
    70    75    76    1
    71    77    78    2
    72    77    76    1
    73    39    38    1
    74    39    41   am
    75    21    20    1
    76     8    10   ar
    77    48    47    1
    78    48    49    1
    79    76    79    1
    80    81    82    1
    81    81    84    1
    82    65    66    1
    83    65    67    1
    84    11    10   ar
    85    11    12    1
    86    51    50    1
    87    82    83    2
    88    85    84    1
    89    85    86    1
    90    49    50    2
    91    50    52    1
    92   173   174    1
    93   173   172    1
    94    88    86   ar
    95    86    87   ar
    96   115   116    1
    97   118   117    1
    98   117   116    1
    99   116   119    1
   100   172   171    1
   101   101   100    2
   102    99    98    1
   103    99   100    1
   104    99   102    1
   105   122   120    1
   106   103   102    1
   107   100   104   am
   108   171   170    1
   109   119   120    1
   110   119   121    1
   111   153   151    1
   112   165   163    1
   113   170   167    1
   114   104   105    1
   115   152   151    1
   116   107   106    2
   117   151   148    1
   118   105   106    1
   119   105   108    1
   120   133   131   ar
   121   133   132   ar
   122   148   147    1
   123   148   149    1
   124   163   164    1
   125   163   162    1
   126   157   156    2
   127   150   149    2
   128   167   166    1
   129   167   168    1
   130   155   156    1
   131   155   154    1
   132   131   129   ar
   133   156   158   am
   134   145   144    2
   135   146   143    1
   136   147   144   am
   137   132   130   ar
   138   158   159    1
   139   113   111   ar
   140   113   114   ar
   141   144   143    1
   142   159   162    1
   143   159   160    1
   144   111   109   ar
   145   114   112   ar
   146   140   139   ar
   147   169   168    2
   148   168   175   am
   149   109   108    1
   150   109   110   ar
   151   112   110   ar
   152   129   128   ar
   153   143   142    1
   154   141   139   ar
   155   139   138    1
   156   130   128   ar
   157   161   160    2
   158   181   179    1
   159   175   176    1
   160   128   127    1
   161   176   179    1
   162   176   177    1
   163   138   135    1
   164   179   180    1
   165   127   124    1
   166   177   178    2
   167   135   136    1
   168   135   134    1
   169   137   136    2
   170   180   182    1
   171   126   125    2
   172   125   124    1
   173   124   123    1
