@<TRIPOS>MOLECULE
tmp/5ja3B01.pdb
 207 200 0 0 0
SMALL
GASTEIGER

@<TRIPOS>ATOM
      1  N         11.4440   26.9860   13.2760 N.3     5  ILE5       -0.1231
      2  CA        11.2070   28.4230   13.3530 C.3     5  ILE5        0.1692
      3  C         12.2360   29.1190   12.4730 C.2     5  ILE5        0.2592
      4  O         13.4290   28.8340   12.5470 O.2     5  ILE5       -0.2718
      5  CB        11.2610   28.9440   14.8240 C.3     5  ILE5        0.0266
      6  CG1       11.0800   30.4670   14.8650 C.3     5  ILE5        0.0019
      7  CG2       12.5300   28.5130   15.5310 C.3     5  ILE5        0.0020
      8  CD1       10.6230   30.9820   16.2350 C.3     5  ILE5        0.0001
      9  N         11.7710   29.9920   11.5890 N.am    6  TRP6       -0.1962
     10  CA        12.6880   30.7340   10.7340 C.3     6  TRP6        0.1771
     11  C         12.0850   32.0690   10.3400 C.2     6  TRP6        0.2619
     12  O         10.8820   32.2720   10.4640 O.2     6  TRP6       -0.2715
     13  CB        13.0580   29.9380    9.4740 C.3     6  TRP6        0.0590
     14  CG        11.9940   29.8360    8.3980 C.ar    6  TRP6        0.0006
     15  CD1       11.6930   30.7690    7.4370 C.ar    6  TRP6        0.0946
     16  CD2       11.1380   28.7200    8.1500 C.ar    6  TRP6        0.0152
     17  NE1       10.6950   30.2930    6.6060 N.ar    6  TRP6       -0.2442
     18  CE2       10.3340   29.0410    7.0300 C.ar    6  TRP6        0.0810
     19  CE3       10.9710   27.4760    8.7650 C.ar    6  TRP6        0.0012
     20  CZ2        9.3760   28.1710    6.5290 C.ar    6  TRP6        0.0191
     21  CZ3       10.0160   26.6070    8.2580 C.ar    6  TRP6        0.0001
     22  CH2        9.2330   26.9570    7.1490 C.ar    6  TRP6        0.0015
     23  N         12.9540   32.9590    9.8700 N.am    7  ALA7       -0.1977
     24  CA        12.5560   34.2290    9.2660 C.3     7  ALA7        0.1597
     25  C         13.0950   34.2630    7.8350 C.2     7  ALA7        0.2287
     26  O         14.2710   33.9800    7.6130 O.2     7  ALA7       -0.2864
     27  CB        13.0860   35.3970   10.0720 C.3     7  ALA7        0.0319
     28  N         26.9150   33.6150    5.4010 N.3    18  GLY18      -0.1210
     29  CA        26.9740   33.2750    6.8090 C.3    18  GLY18       0.1956
     30  C         26.1820   34.1760    7.7470 C.2    18  GLY18       0.2612
     31  O         26.3140   34.0650    8.9670 O.2    18  GLY18      -0.2717
     32  N         25.3630   35.0730    7.2060 N.am   19  ASP19      -0.1959
     33  CA        24.5900   35.9690    8.0780 C.3    19  ASP19       0.1840
     34  C         23.1520   36.1500    7.5860 C.2    19  ASP19       0.2621
     35  O         22.8360   35.8680    6.4300 O.2    19  ASP19      -0.2715
     36  CB        25.2900   37.3310    8.2000 C.3    19  ASP19       0.1450
     37  CG        24.7140   38.1920    9.3220 C.2    19  ASP19       0.3671
     38  OD1       24.2050   37.6130   10.3060 O.co2  19  ASP19      -0.2456
     39  OD2       24.7720   39.4410    9.2280 O.co2  19  ASP19      -0.2456
     40  N         22.2810   36.5930    8.4860 N.am   20  ILE20      -0.1977
     41  CA        20.9150   36.9620    8.1340 C.3    20  ILE20       0.1596
     42  C         20.9440   38.3590    7.5240 C.2    20  ILE20       0.2287
     43  O         21.3860   39.3020    8.1690 O.2    20  ILE20      -0.2864
     44  CB        19.9850   36.9100    9.3650 C.3    20  ILE20       0.0276
     45  CG1       20.0090   35.5010    9.9650 C.3    20  ILE20       0.0022
     46  CG2       18.5610   37.3050    8.9920 C.3    20  ILE20       0.0022
     47  CD1       19.0310   35.2700   11.1010 C.3    20  ILE20       0.0001
     48  N         18.0960   43.3250    9.5980 N.3    23  ARG23      -0.1231
     49  CA        18.0330   43.4920   11.0480 C.3    23  ARG23       0.1694
     50  C         16.5970   43.6890   11.5040 C.2    23  ARG23       0.2591
     51  O         15.9110   44.5880   11.0320 O.2    23  ARG23      -0.2718
     52  CB        18.9000   44.6690   11.5030 C.3    23  ARG23       0.0321
     53  CG        20.3780   44.3540   11.5070 C.3    23  ARG23       0.0489
     54  CD        20.6850   43.2800   12.5370 C.3    23  ARG23       0.2205
     55  NE        21.6960   42.3400   12.0620 N.pl3  23  ARG23      -0.0865
     56  CZ        21.4390   41.0890   11.6850 C.cat  23  ARG23       0.5346
     57  NH1       20.1980   40.6170   11.7340 N.pl3  23  ARG23       0.1354
     58  NH2       22.4230   40.3080   11.2620 N.pl3  23  ARG23       0.1354
     59  N         16.1440   42.8380   12.4160 N.am   24  LEU24      -0.1980
     60  CA        14.7580   42.8730   12.8500 C.3    24  LEU24       0.1596
     61  C         14.6340   42.4150   14.3060 C.2    24  LEU24       0.2287
     62  O         14.4160   41.2270   14.5890 O.2    24  LEU24      -0.2864
     63  CB        13.9030   42.0130   11.9190 C.3    24  LEU24       0.0297
     64  CG        12.3910   42.1440   12.0640 C.3    24  LEU24       0.0022
     65  CD1       12.0150   43.6000   11.8980 C.3    24  LEU24       0.0001
     66  CD2       11.6780   41.2840   11.0370 C.3    24  LEU24       0.0001
     67  N         11.6880   40.3800   15.4760 N.3    27  ASP27      -0.1225
     68  CA        11.7720   38.9540   15.1710 C.3    27  ASP27       0.1805
     69  C         12.6010   38.2220   16.2130 C.2    27  ASP27       0.2597
     70  O         12.2760   37.1060   16.6140 O.2    27  ASP27      -0.2718
     71  CB        12.3690   38.7360   13.7880 C.3    27  ASP27       0.1424
     72  CG        12.6540   37.2770   13.5110 C.2    27  ASP27       0.3668
     73  OD1       11.6880   36.4940   13.4310 O.co2  27  ASP27      -0.2456
     74  OD2       13.8380   36.9260   13.3680 O.co2  27  ASP27      -0.2456
     75  N         13.6770   38.8600   16.6490 N.am   28  GLN28      -0.1979
     76  CA        14.5270   38.2950   17.6750 C.3    28  GLN28       0.1601
     77  C         13.7450   38.0820   18.9720 C.2    28  GLN28       0.2287
     78  O         13.9100   37.0650   19.6470 O.2    28  GLN28      -0.2864
     79  CB        15.7330   39.2040   17.8960 C.3    28  GLN28       0.0394
     80  CG        16.6240   38.7880   19.0140 C.3    28  GLN28       0.0908
     81  CD        17.9010   39.5850   19.0170 C.2    28  GLN28       0.2608
     82  OE1       18.5340   39.7610   17.9760 O.2    28  GLN28      -0.2717
     83  NE2       18.2780   40.0930   20.1790 N.am   28  GLN28      -0.0878
     84  N         10.4230   37.6530   19.1540 N.3    30  HIS30      -0.1226
     85  CA         9.5040   36.5680   18.8100 C.3    30  HIS30       0.1752
     86  C         10.2140   35.2290   18.9160 C.2    30  HIS30       0.2596
     87  O          9.6950   34.2920   19.5150 O.2    30  HIS30      -0.2718
     88  CB         8.9540   36.7800   17.3980 C.3    30  HIS30       0.0759
     89  CG         8.0370   35.6950   16.9100 C.ar   30  HIS30       0.0818
     90  ND1        6.8170   35.4280   17.4960 N.ar   30  HIS30      -0.2268
     91  CD2        8.1320   34.8610   15.8450 C.ar   30  HIS30       0.1154
     92  CE1        6.2150   34.4570   16.8310 C.ar   30  HIS30       0.1986
     93  NE2        6.9850   34.1000   15.8210 N.ar   30  HIS30      -0.2212
     94  N         11.4150   35.1530   18.3420 N.am   31  PHE31      -0.1962
     95  CA        12.2410   33.9470   18.4170 C.3    31  PHE31       0.1771
     96  C         12.5310   33.5390   19.8660 C.2    31  PHE31       0.2619
     97  O         12.3380   32.3820   20.2430 O.2    31  PHE31      -0.2715
     98  CB        13.5400   34.1790   17.6300 C.3    31  PHE31       0.0574
     99  CG        14.5530   33.0730   17.7550 C.ar   31  PHE31      -0.0200
    100  CD1       14.4680   31.9320   16.9620 C.ar   31  PHE31      -0.0042
    101  CD2       15.6120   33.1920   18.6380 C.ar   31  PHE31      -0.0042
    102  CE1       15.4120   30.9250   17.0830 C.ar   31  PHE31      -0.0003
    103  CE2       16.5430   32.1920   18.7630 C.ar   31  PHE31      -0.0003
    104  CZ        16.4500   31.0560   17.9720 C.ar   31  PHE31      -0.0000
    105  N         12.9670   34.4800   20.7030 N.am   32  ARG32      -0.1977
    106  CA        13.2460   34.1170   22.1030 C.3    32  ARG32       0.1597
    107  C         12.0030   33.6920   22.8580 C.2    32  ARG32       0.2287
    108  O         12.0540   32.7640   23.6540 O.2    32  ARG32      -0.2864
    109  CB        13.9360   35.2580   22.8410 C.3    32  ARG32       0.0334
    110  CG        15.4220   35.0550   22.7880 C.3    32  ARG32       0.0492
    111  CD        16.2220   36.0660   23.5440 C.3    32  ARG32       0.2205
    112  NE        17.6100   35.9120   23.1350 N.pl3  32  ARG32      -0.0865
    113  CZ        18.2790   36.8080   22.4250 C.cat  32  ARG32       0.5346
    114  NH1       17.6900   37.9390   22.0510 N.pl3  32  ARG32       0.1354
    115  NH2       19.5390   36.5730   22.0940 N.pl3  32  ARG32       0.1354
    116  N         25.0310   27.3460   11.4290 N.3    46  THR46      -0.1218
    117  CA        24.2010   28.2790   12.1900 C.3    46  THR46       0.1862
    118  C         24.8700   28.5740   13.5430 C.2    46  THR46       0.2287
    119  O         24.9310   29.7300   13.9640 O.2    46  THR46      -0.2866
    120  CB        22.7700   27.7410   12.3750 C.3    46  THR46       0.1770
    121  OG1       22.1510   27.6080   11.0820 O.3    46  THR46      -0.2211
    122  CG2       21.9230   28.7090   13.2220 C.3    46  THR46       0.0375
    123  N         27.4490   31.0330   13.0510 N.3    49  SER49      -0.1202
    124  CA        26.9180   32.3520   12.7190 C.3    49  SER49       0.2020
    125  C         26.3370   33.0800   13.9320 C.2    49  SER49       0.2619
    126  O         26.0260   34.2680   13.8510 O.2    49  SER49      -0.2717
    127  CB        25.8440   32.2400   11.6350 C.3    49  SER49       0.2103
    128  OG        24.6250   31.7910   12.1970 O.3    49  SER49      -0.2182
    129  N         26.1670   32.3780   15.0470 N.am   50  LEU50      -0.1966
    130  CA        25.6810   33.0400   16.2590 C.3    50  LEU50       0.1713
    131  C         26.7160   34.0590   16.7190 C.2    50  LEU50       0.2458
    132  O         27.9060   33.7540   16.7580 O.2    50  LEU50      -0.2730
    133  CB        25.4090   32.0340   17.3870 C.3    50  LEU50       0.0310
    134  CG        24.2590   31.0370   17.2520 C.3    50  LEU50       0.0022
    135  CD1       24.3120   30.0220   18.4000 C.3    50  LEU50       0.0001
    136  CD2       22.9150   31.7470   17.2230 C.3    50  LEU50       0.0001
    137  N         26.2710   35.2760   17.0520 N.am   51  PRO51      -0.2727
    138  CA        27.2130   36.2060   17.6810 C.3    51  PRO51       0.1402
    139  C         27.7680   35.6110   18.9630 C.2    51  PRO51       0.2269
    140  O         27.0020   35.0550   19.7520 O.2    51  PRO51      -0.2865
    141  CB        26.3520   37.4400   17.9690 C.3    51  PRO51       0.0296
    142  CG        25.2350   37.3570   16.9860 C.3    51  PRO51       0.0237
    143  CD        24.9500   35.8860   16.8380 C.3    51  PRO51       0.0939
    144  N         28.4280   36.7150   21.7030 N.3    53  LYS53      -0.1231
    145  CA        27.7060   37.1580   22.8950 C.3    53  LYS53       0.1693
    146  C         26.5940   36.1860   23.3120 C.2    53  LYS53       0.2591
    147  O         26.3020   36.0340   24.4980 O.2    53  LYS53      -0.2718
    148  CB        27.1150   38.5560   22.6600 C.3    53  LYS53       0.0285
    149  CG        26.1530   39.0200   23.7390 C.3    53  LYS53       0.0035
    150  CD        26.8340   39.1030   25.0970 C.3    53  LYS53       0.0206
    151  CE        25.8990   39.7150   26.1290 C.3    53  LYS53       0.1093
    152  NZ        26.5500   39.8260   27.4510 N.3    53  LYS53      -0.1314
    153  N         25.9780   35.5280   22.3350 N.am   54  VAL54      -0.1980
    154  CA        24.8990   34.5910   22.6260 C.3    54  VAL54       0.1595
    155  C         25.1620   33.2090   22.0290 C.2    54  VAL54       0.2287
    156  O         24.2690   32.5730   21.4550 O.2    54  VAL54      -0.2864
    157  CB        23.5450   35.1260   22.1120 C.3    54  VAL54       0.0276
    158  CG1       23.0260   36.2290   23.0420 C.3    54  VAL54       0.0022
    159  CG2       23.6740   35.6140   20.6850 C.3    54  VAL54       0.0022
    160  N         23.0360   30.0610   22.9460 N.3    57  LEU57      -0.1245
    161  CA        21.8890   30.8980   23.3030 C.3    57  LEU57       0.1561
    162  C         21.4160   30.6090   24.7380 C.2    57  LEU57       0.2260
    163  O         21.0880   29.4670   25.0960 O.2    57  LEU57      -0.2867
    164  CB        20.7470   30.7010   22.3070 C.3    57  LEU57       0.0270
    165  CG        20.9890   31.2810   20.9100 C.3    57  LEU57       0.0019
    166  CD1       20.0110   30.6860   19.9160 C.3    57  LEU57       0.0001
    167  CD2       20.8650   32.8040   20.9190 C.3    57  LEU57       0.0001
    168  N         16.1650   25.5180   14.7650 N.3    94  ILE94      -0.1231
    169  CA        16.3420   26.9320   14.5410 C.3    94  ILE94       0.1692
    170  C         17.1680   26.9500   13.3000 C.2    94  ILE94       0.2592
    171  O         17.2200   25.9640   12.5850 O.2    94  ILE94      -0.2718
    172  CB        16.9880   27.6750   15.7480 C.3    94  ILE94       0.0266
    173  CG1       18.4550   27.2720   15.9410 C.3    94  ILE94       0.0019
    174  CG2       16.1670   27.4360   17.0170 C.3    94  ILE94       0.0020
    175  CD1       19.2580   28.2270   16.8310 C.3    94  ILE94       0.0001
    176  N         17.8240   28.0300   12.9790 N.am   95  GLY95      -0.1957
    177  CA        18.4310   27.9530   11.6610 C.3    95  GLY95       0.1869
    178  C         19.1420   26.8250   10.9240 C.2    95  GLY95       0.2309
    179  O         19.4510   25.7140   11.4110 O.2    95  GLY95      -0.2863
    180  N         16.9700   22.6010    8.2490 N.3   100  TYR100     -0.1241
    181  CA        15.5190   22.7660    8.0290 C.3   100  TYR100      0.1605
    182  C         14.9890   21.6940    7.0920 C.2   100  TYR100      0.2264
    183  O         13.9700   21.0380    7.3530 O.2   100  TYR100     -0.2867
    184  CB        15.1880   24.1280    7.4200 C.3   100  TYR100      0.0534
    185  CG        15.2330   25.3140    8.3750 C.ar  100  TYR100     -0.0201
    186  CD1       14.8690   25.1930    9.7120 C.ar  100  TYR100     -0.0009
    187  CD2       15.6420   26.5600    7.9220 C.ar  100  TYR100     -0.0009
    188  CE1       14.9200   26.3000   10.5720 C.ar  100  TYR100      0.0417
    189  CE2       15.7090   27.6470    8.7620 C.ar  100  TYR100      0.0417
    190  CZ        15.3380   27.5250   10.0830 C.ar  100  TYR100      0.1957
    191  OH        15.4170   28.6550   10.9030 O.3   100  TYR100     -0.2866
    192  N          6.8560   27.9870   12.7760 N.3   111  GLU111     -0.1245
    193  CA         6.6010   29.3850   13.1180 C.3   111  GLU111      0.1567
    194  C          7.4780   30.2380   12.2270 C.2   111  GLU111      0.2260
    195  O          8.7070   30.2070   12.3380 O.2   111  GLU111     -0.2867
    196  CB         6.8850   29.6640   14.6000 C.3   111  GLU111      0.0388
    197  CG         5.9340   29.0060   15.5530 C.3   111  GLU111      0.1160
    198  CD         4.4980   29.4620   15.4130 C.2   111  GLU111      0.3649
    199  OE1        4.2470   30.6210   15.0460 O.co2 111  GLU111     -0.2457
    200  OE2        3.6000   28.6470   15.6930 O.co2 111  GLU111     -0.2457
    201  N          8.4750   33.9110   10.1600 N.3   113  THR113     -0.1218
    202  CA         8.4130   35.3620   10.0050 C.3   113  THR113      0.1862
    203  C          8.7080   35.6570    8.5520 C.2   113  THR113      0.2287
    204  O          9.7110   35.1740    8.0250 O.2   113  THR113     -0.2866
    205  CB         9.4260   36.0910   10.9110 C.3   113  THR113      0.1770
    206  OG1        9.2150   35.7170   12.2850 O.3   113  THR113     -0.2211
    207  CG2        9.3160   37.6260   10.7420 C.3   113  THR113      0.0375
@<TRIPOS>BOND
     1    28    29    1
     2    35    34    2
     3    20    18   ar
     4    20    22   ar
     5    17    18   ar
     6    17    15   ar
     7    29    30    1
     8    18    16   ar
     9   182   183    2
    10   182   181    1
    11    22    21   ar
    12    32    30   am
    13    32    33    1
    14   184   181    1
    15   184   185    1
    16    15    14   ar
    17    42    41    1
    18    42    43    2
    19    34    33    1
    20    34    40   am
    21    26    25    2
    22    30    31    2
    23    25    24    1
    24   187   185   ar
    25   187   189   ar
    26   204   203    2
    27   181   180    1
    28    33    36    1
    29    41    40    1
    30    41    44    1
    31    16    14   ar
    32    16    19   ar
    33    36    37    1
    34    21    19   ar
    35   185   186   ar
    36    14    13    1
    37   203   202    1
    38   189   190   ar
    39    46    44    1
    40    39    37   ar
    41    24    23    1
    42    24    27    1
    43    37    38   ar
    44    44    45    1
    45    13    10    1
    46    48    49    1
    47   186   188   ar
    48    23    11   am
    49    45    47    1
    50   202   201    1
    51   202   205    1
    52   190   188   ar
    53   190   191    1
    54    11    12    2
    55    11    10    1
    56    10     9    1
    57   207   205    1
    58   205   206    1
    59   178   179    2
    60   178   177    1
    61    51    50    2
    62    66    64    1
    63    49    52    1
    64    49    50    1
    65   121   120    1
    66    58    56    1
    67   116   117    1
    68    52    53    1
    69    50    59   am
    70    53    54    1
    71     9     3   am
    72   127   128    1
    73   127   124    1
    74   177   176    1
    75    56    57    1
    76    56    55    2
    77    65    64    1
    78    63    64    1
    79    63    60    1
    80    55    54    1
    81   117   120    1
    82   117   118    1
    83   194   195    2
    84   194   193    1
    85   120   122    1
    86    59    60    1
    87     3     4    2
    88     3     2    1
    89   171   170    2
    90   124   123    1
    91   124   125    1
    92   192   193    1
    93    60    61    1
    94   176   170   am
    95   193   196    1
    96     1     2    1
    97   170   169    1
    98     2     5    1
    99    74    72   ar
   100    73    72   ar
   101    72    71    1
   102   118   119    2
   103    71    68    1
   104   126   125    2
   105   125   129   am
   106    61    62    2
   107   169   168    1
   108   169   172    1
   109   196   197    1
   110     5     6    1
   111     5     7    1
   112     6     8    1
   113   199   198   ar
   114   129   130    1
   115    68    67    1
   116    68    69    1
   117   198   197    1
   118   198   200   ar
   119   172   173    1
   120   172   174    1
   121    93    91   ar
   122    93    92   ar
   123    91    89   ar
   124   173   175    1
   125    69    70    2
   126    69    75   am
   127   130   131    1
   128   130   133    1
   129    75    76    1
   130   131   132    2
   131   131   137   am
   132    92    90   ar
   133   143   142    1
   134   143   137    1
   135    89    88    1
   136    89    90   ar
   137   100   102   ar
   138   100    99   ar
   139   142   141    1
   140   137   138    1
   141   102   104   ar
   142   136   134    1
   143   134   133    1
   144   134   135    1
   145    88    85    1
   146    98    99    1
   147    98    95    1
   148    76    79    1
   149    76    77    1
   150   138   141    1
   151   138   139    1
   152    99   101   ar
   153    79    80    1
   154   104   103   ar
   155    82    81    2
   156    94    95    1
   157    94    86   am
   158    95    96    1
   159   101   103   ar
   160    85    86    1
   161    85    84    1
   162    86    87    2
   163   139   140    2
   164    77    78    2
   165    80    81    1
   166    81    83   am
   167    96    97    2
   168    96   105   am
   169   166   165    1
   170   159   157    1
   171   105   106    1
   172   165   167    1
   173   165   164    1
   174   156   155    2
   175   144   145    1
   176   155   154    1
   177   114   113    1
   178   115   113    1
   179   106   109    1
   180   106   107    1
   181   157   154    1
   182   157   158    1
   183   164   161    1
   184   153   154    1
   185   153   146   am
   186   113   112    2
   187   148   145    1
   188   148   149    1
   189   110   109    1
   190   110   111    1
   191   107   108    2
   192   145   146    1
   193   160   161    1
   194   112   111    1
   195   161   162    1
   196   146   147    2
   197   149   150    1
   198   162   163    2
   199   150   151    1
   200   151   152    1
