@<TRIPOS>MOLECULE
tmp/5jabA00.pdb
 137 130 0 0 0
SMALL
GASTEIGER

@<TRIPOS>ATOM
      1  N         21.2120  199.4180    7.5930 N.3    23  LEU23      -0.1245
      2  CA        22.5240  200.0500    7.6300 C.3    23  LEU23       0.1561
      3  C         23.1210  199.9160    9.0250 C.2    23  LEU23       0.2260
      4  O         22.4220  199.5080    9.9440 O.2    23  LEU23      -0.2867
      5  CB        22.4860  201.4870    7.1620 C.3    23  LEU23       0.0270
      6  CG        22.1490  201.6310    5.6380 C.3    23  LEU23       0.0019
      7  CD1       21.9870  203.1480    5.3200 C.3    23  LEU23       0.0001
      8  CD2       23.2400  200.9770    4.8340 C.3    23  LEU23       0.0001
      9  N         41.5860  204.2150   15.8990 N.3    30  ARG30      -0.1231
     10  CA        42.6960  204.9920   15.2960 C.3    30  ARG30       0.1694
     11  C         44.0100  204.6900   15.9850 C.2    30  ARG30       0.2591
     12  O         44.0520  203.9950   16.9890 O.2    30  ARG30      -0.2718
     13  CB        42.4530  206.4770   15.4220 C.3    30  ARG30       0.0321
     14  CG        41.2860  207.0370   14.6830 C.3    30  ARG30       0.0489
     15  CD        41.2840  208.5500   14.8260 C.3    30  ARG30       0.2205
     16  NE        40.1600  209.1440   14.1430 N.pl3  30  ARG30      -0.0865
     17  CZ        39.0330  209.5220   14.7170 C.cat  30  ARG30       0.5346
     18  NH1       38.8920  209.4060   16.0480 N.pl3  30  ARG30       0.1354
     19  NH2       38.1030  210.1100   13.9810 N.pl3  30  ARG30       0.1354
     20  N         45.0930  205.2390   15.4430 N.am   31  ALA31      -0.1980
     21  CA        46.4140  204.9840   15.9870 C.3    31  ALA31       0.1597
     22  C         46.5570  205.4860   17.4510 C.2    31  ALA31       0.2287
     23  O         47.2710  204.8890   18.2210 O.2    31  ALA31      -0.2864
     24  CB        47.4720  205.6450   15.1150 C.3    31  ALA31       0.0319
     25  N         36.9310  205.2720   15.8520 N.3    36  HIS36      -0.1241
     26  CA        36.5200  205.7950   14.5840 C.3    36  HIS36       0.1621
     27  C         35.2140  205.0960   14.1880 C.2    36  HIS36       0.2264
     28  O         35.2080  203.8810   14.0790 O.2    36  HIS36      -0.2867
     29  CB        37.5990  205.4000   13.5710 C.3    36  HIS36       0.0745
     30  CG        37.3560  205.9080   12.2070 C.ar   36  HIS36       0.0817
     31  ND1       36.9640  205.1050   11.1590 N.ar   36  HIS36      -0.2268
     32  CD2       37.5290  207.1300   11.6730 C.ar   36  HIS36       0.1154
     33  CE1       36.8470  205.8170   10.0660 C.ar   36  HIS36       0.1986
     34  NE2       37.1660  207.0590   10.3630 N.ar   36  HIS36      -0.2212
     35  N         31.8680  204.9990   11.5430 N.3    38  VAL38      -0.1231
     36  CA        31.4000  205.4330   10.2300 C.3    38  VAL38       0.1692
     37  C         30.2870  204.5350    9.7200 C.2    38  VAL38       0.2592
     38  O         30.2150  203.3230   10.0550 O.2    38  VAL38      -0.2718
     39  CB        32.5070  205.4700    9.1520 C.3    38  VAL38       0.0266
     40  CG1       33.6440  206.3550    9.6320 C.3    38  VAL38       0.0020
     41  CG2       33.0210  204.0830    8.8690 C.3    38  VAL38       0.0020
     42  N         29.3820  205.1150    8.9650 N.am   39  ALA39      -0.1966
     43  CA        28.2240  204.3800    8.4380 C.3    39  ALA39       0.1728
     44  C         28.6540  203.4400    7.3210 C.2    39  ALA39       0.2616
     45  O         29.3880  203.8520    6.4380 O.2    39  ALA39      -0.2715
     46  CB        27.1370  205.2870    7.9370 C.3    39  ALA39       0.0334
     47  N         28.1800  202.2170    7.3730 N.am   40  VAL40      -0.1963
     48  CA        28.4880  201.2050    6.3240 C.3    40  VAL40       0.1727
     49  C         27.3080  200.2880    6.1380 C.2    40  VAL40       0.2616
     50  O         26.4170  200.1890    6.9850 O.2    40  VAL40      -0.2715
     51  CB        29.7330  200.3620    6.6590 C.3    40  VAL40       0.0290
     52  CG1       30.9860  201.1900    6.8310 C.3    40  VAL40       0.0023
     53  CG2       29.4840  199.4880    7.8830 C.3    40  VAL40       0.0023
     54  N         27.2890  199.5650    5.0190 N.am   41  GLY41      -0.1955
     55  CA        26.5740  198.3310    4.9510 C.3    41  GLY41       0.1869
     56  C         27.4840  197.2000    5.3900 C.2    41  GLY41       0.2309
     57  O         28.7260  197.3000    5.4020 O.2    41  GLY41      -0.2863
     58  N         32.5570  196.2120    2.4450 N.3    54  ILE54      -0.1231
     59  CA        33.3090  196.6140    1.2530 C.3    54  ILE54       0.1692
     60  C         33.6130  198.0790    1.3880 C.2    54  ILE54       0.2593
     61  O         32.7500  198.8810    1.8570 O.2    54  ILE54      -0.2718
     62  CB        32.5760  196.2360   -0.0450 C.3    54  ILE54       0.0266
     63  CG1       31.1710  196.8480   -0.1350 C.3    54  ILE54       0.0019
     64  CG2       32.5760  194.7410   -0.2550 C.3    54  ILE54       0.0020
     65  CD1       30.5090  196.7210   -1.4720 C.3    54  ILE54       0.0001
     66  N         34.8260  198.4870    1.0160 N.am   55  THR55      -0.1939
     67  CA        35.2210  199.8570    1.1780 C.3    55  THR55       0.2028
     68  C         36.4160  200.1760    0.2500 C.2    55  THR55       0.2642
     69  O         36.9160  199.2600   -0.4400 O.2    55  THR55      -0.2714
     70  CB        35.6040  200.1830    2.6500 C.3    55  THR55       0.1808
     71  OG1       35.7280  201.6090    2.7700 O.3    55  THR55      -0.2208
     72  CG2       36.8650  199.5280    3.0910 C.3    55  THR55       0.0379
     73  N         36.8470  201.4110    0.2760 N.am   56  THR56      -0.1950
     74  CA        38.0470  201.8290   -0.5530 C.3    56  THR56       0.1897
     75  C         39.3100  201.4870    0.1350 C.2    56  THR56       0.2313
     76  O         39.5140  201.8160    1.3220 O.2    56  THR56      -0.2863
     77  CB        37.8830  203.3200   -0.9420 C.3    56  THR56       0.1794
     78  OG1       36.6980  203.4900   -1.6990 O.3    56  THR56      -0.2208
     79  CG2       39.0610  203.8060   -1.7850 C.3    56  THR56       0.0378
     80  N         42.9450  201.8570    1.5560 N.3    58  GLY58      -0.1210
     81  CA        43.6420  203.0280    2.0440 C.3    58  GLY58       0.1956
     82  C         42.7120  204.0700    2.7220 C.2    58  GLY58       0.2613
     83  O         43.2040  205.0880    3.1850 O.2    58  GLY58      -0.2717
     84  N         41.3850  203.8140    2.7550 N.am   59  SER59      -0.1938
     85  CA        40.4530  204.6780    3.5260 C.3    59  SER59       0.2055
     86  C         40.7500  204.5390    4.9910 C.2    59  SER59       0.2643
     87  O         41.3160  203.5660    5.4380 O.2    59  SER59      -0.2714
     88  CB        38.9790  204.3510    3.2000 C.3    59  SER59       0.2130
     89  OG        38.6340  203.0920    3.7050 O.3    59  SER59      -0.2179
     90  N         40.3930  205.5710    5.7680 N.am   60  GLN60      -0.1963
     91  CA        40.6440  205.5710    7.1510 C.3    60  GLN60       0.1733
     92  C         40.1230  204.3390    7.8320 C.2    60  GLN60       0.2616
     93  O         40.8080  203.7390    8.6430 O.2    60  GLN60      -0.2715
     94  CB        40.0620  206.8560    7.8410 C.3    60  GLN60       0.0408
     95  CG        40.4740  206.9440    9.3220 C.3    60  GLN60       0.0908
     96  CD        41.9320  207.2450    9.4210 C.2    60  GLN60       0.2608
     97  OE1       42.3410  208.2860    8.9170 O.2    60  GLN60      -0.2717
     98  NE2       42.7000  206.3670    9.9950 N.am   60  GLN60      -0.0878
     99  N         38.8980  203.9190    7.5160 N.am   61  LYS61      -0.1977
    100  CA        38.3770  202.7310    8.2190 C.3    61  LYS61       0.1596
    101  C         39.1640  201.4420    7.9150 C.2    61  LYS61       0.2287
    102  O         39.3990  200.6050    8.7730 O.2    61  LYS61      -0.2864
    103  CB        36.8590  202.5610    7.9050 C.3    61  LYS61       0.0298
    104  CG        36.5860  201.9170    6.5550 C.3    61  LYS61       0.0038
    105  CD        35.1340  201.9130    6.1550 C.3    61  LYS61       0.0206
    106  CE        34.5940  203.1850    5.5670 C.3    61  LYS61       0.1093
    107  NZ        35.4390  203.8620    4.5330 N.3    61  LYS61      -0.1314
    108  N         42.5070  201.4090    6.9740 N.3    63  VAL63      -0.1245
    109  CA        43.7620  201.5880    7.6800 C.3    63  VAL63       0.1561
    110  C         43.6500  201.1420    9.1300 C.2    63  VAL63       0.2260
    111  O         44.4880  200.3900    9.6390 O.2    63  VAL63      -0.2867
    112  CB        44.2480  203.0410    7.5740 C.3    63  VAL63       0.0252
    113  CG1       45.4590  203.2670    8.4300 C.3    63  VAL63       0.0019
    114  CG2       44.5410  203.4240    6.1280 C.3    63  VAL63       0.0019
    115  N         45.5100  198.0180   10.9520 N.3    67  ARG67      -0.1245
    116  CA        46.5000  198.3930   11.9920 C.3    67  ARG67       0.1563
    117  C         46.1590  197.8840   13.3760 C.2    67  ARG67       0.2260
    118  O         47.0030  197.3030   14.0430 O.2    67  ARG67      -0.2867
    119  CB        46.6700  199.9110   11.9900 C.3    67  ARG67       0.0307
    120  CG        47.6700  200.3980   13.0180 C.3    67  ARG67       0.0489
    121  CD        47.9760  201.8930   12.8680 C.3    67  ARG67       0.2205
    122  NE        46.7540  202.6650   12.7280 N.pl3  67  ARG67      -0.0865
    123  CZ        46.6050  203.7580   11.9940 C.cat  67  ARG67       0.5346
    124  NH1       47.6390  204.3110   11.3490 N.pl3  67  ARG67       0.1354
    125  NH2       45.4300  204.3390   11.9240 N.pl3  67  ARG67       0.1354
    126  N         26.9650  191.6070   -0.6480 N.3   104  TYR104     -0.1241
    127  CA        26.4150  192.9340   -0.3960 C.3   104  TYR104      0.1605
    128  C         25.1500  193.1460   -1.2260 C.2   104  TYR104      0.2264
    129  O         24.1860  193.7140   -0.7450 O.2   104  TYR104     -0.2867
    130  CB        27.4710  194.0110   -0.7290 C.3   104  TYR104      0.0534
    131  CG        27.0410  195.4300   -0.5930 C.ar  104  TYR104     -0.0201
    132  CD1       26.2850  196.0370   -1.5930 C.ar  104  TYR104     -0.0009
    133  CD2       27.3850  196.1800    0.5380 C.ar  104  TYR104     -0.0009
    134  CE1       25.9460  197.3440   -1.5050 C.ar  104  TYR104      0.0417
    135  CE2       27.0410  197.5110    0.6450 C.ar  104  TYR104      0.0417
    136  CZ        26.3070  198.0890   -0.4070 C.ar  104  TYR104      0.1957
    137  OH        25.9320  199.4120   -0.3690 O.3   104  TYR104     -0.2866
@<TRIPOS>BOND
     1    79    77    1
     2    78    77    1
     3   132   134   ar
     4   132   131   ar
     5   134   136   ar
     6    65    63    1
     7   128   129    2
     8   128   127    1
     9    77    74    1
    10   130   131    1
    11   130   127    1
    12   126   127    1
    13   131   133   ar
    14    74    75    1
    15    74    73    1
    16    69    68    2
    17   136   137    1
    18   136   135   ar
    19    64    62    1
    20    63    62    1
    21    62    59    1
    22    75    76    2
    23    68    73   am
    24    68    67    1
    25   133   135   ar
    26    66    67    1
    27    66    60   am
    28    67    70    1
    29    59    60    1
    30    59    58    1
    31    60    61    2
    32    80    81    1
    33    81    82    1
    34    70    71    1
    35    70    72    1
    36    82    84   am
    37    82    83    2
    38    84    85    1
    39    88    85    1
    40    88    89    1
    41    85    86    1
    42   107   106    1
    43     8     6    1
    44    55    54    1
    45    55    56    1
    46    86    87    2
    47    86    90   am
    48    54    49   am
    49     7     6    1
    50    56    57    2
    51   106   105    1
    52     6     5    1
    53    90    91    1
    54   114   112    1
    55    49    48    1
    56    49    50    2
    57   105   104    1
    58    48    51    1
    59    48    47    1
    60    45    44    2
    61   104   103    1
    62    51    52    1
    63    51    53    1
    64   108   109    1
    65    91    92    1
    66    91    94    1
    67     5     2    1
    68    44    47   am
    69    44    43    1
    70    99    92   am
    71    99   100    1
    72   112   109    1
    73   112   113    1
    74     1     2    1
    75     2     3    1
    76   109   110    1
    77    92    93    2
    78    94    95    1
    79   103   100    1
    80   101   100    1
    81   101   102    2
    82    46    43    1
    83    43    42    1
    84    41    39    1
    85    97    96    2
    86    42    37   am
    87     3     4    2
    88   110   111    2
    89    39    40    1
    90    39    36    1
    91    95    96    1
    92    96    98   am
    93    37    38    2
    94    37    36    1
    95    33    34   ar
    96    33    31   ar
    97    36    35    1
    98    34    32   ar
    99   115   116    1
   100    31    30   ar
   101   124   123    1
   102    32    30   ar
   103   125   123    1
   104   119   116    1
   105   119   120    1
   106   116   117    1
   107   123   122    2
   108    30    29    1
   109   122   121    1
   110   121   120    1
   111   117   118    2
   112    29    26    1
   113    19    17    1
   114    28    27    2
   115    16    17    2
   116    16    15    1
   117    27    26    1
   118    26    25    1
   119    14    15    1
   120    14    13    1
   121    17    18    1
   122    24    21    1
   123    10    13    1
   124    10     9    1
   125    10    11    1
   126    20    11   am
   127    20    21    1
   128    11    12    2
   129    21    22    1
   130    22    23    2
