@<TRIPOS>MOLECULE
tmp/5jabA01.pdb
 75 70 0 0 0
SMALL
GASTEIGER

@<TRIPOS>ATOM
      1  N         23.8090  189.0970   25.9900 N.3     1  MET1       -0.1245
      2  CA        25.1590  188.9360   25.3650 C.3     1  MET1        0.1570
      3  C         25.2480  187.5230   24.8340 C.2     1  MET1        0.2261
      4  O         24.5500  186.6220   25.3210 O.2     1  MET1       -0.2867
      5  CB        26.2380  189.0650   26.4270 C.3     1  MET1        0.0387
      6  CG        27.3380  190.0210   26.0950 C.3     1  MET1        0.0595
      7  SD        28.7720  189.3310   25.3160 S.3     1  MET1       -0.1393
      8  CE        28.8190  187.6150   25.8880 C.3     1  MET1        0.0692
      9  N         20.6560  199.1830   14.4390 N.3    76  VAL76      -0.1245
     10  CA        19.4860  199.4530   15.2400 C.3    76  VAL76       0.1561
     11  C         18.2510  199.6740   14.3840 C.2    76  VAL76       0.2260
     12  O         18.3340  200.2590   13.2920 O.2    76  VAL76      -0.2867
     13  CB        19.7160  200.6580   16.2080 C.3    76  VAL76       0.0252
     14  CG1       20.0850  201.9370   15.4400 C.3    76  VAL76       0.0019
     15  CG2       18.5290  200.9040   17.0960 C.3    76  VAL76       0.0019
     16  N         14.6440  200.6400   15.9210 N.3    78  GLY78      -0.1210
     17  CA        13.8360  200.7550   17.1240 C.3    78  GLY78       0.1956
     18  C         14.3930  199.9680   18.2710 C.2    78  GLY78       0.2611
     19  O         15.5350  200.0920   18.6100 O.2    78  GLY78      -0.2717
     20  N         13.5360  199.1470   18.8730 N.am   79  ALA79      -0.1979
     21  CA        13.9030  198.3050   20.0210 C.3    79  ALA79       0.1597
     22  C         14.8780  197.2190   19.7530 C.2    79  ALA79       0.2287
     23  O         15.4710  196.6680   20.6800 O.2    79  ALA79      -0.2864
     24  CB        12.6610  197.7710   20.7090 C.3    79  ALA79       0.0319
     25  N         18.4160  195.8430   18.3560 N.3    81  TRP81      -0.1241
     26  CA        19.7530  196.2670   17.9940 C.3    81  TRP81       0.1605
     27  C         20.7290  195.1270   18.2500 C.2    81  TRP81       0.2264
     28  O         20.5160  194.2850   19.1370 O.2    81  TRP81      -0.2867
     29  CB        20.1650  197.5760   18.7480 C.3    81  TRP81       0.0550
     30  CG        20.4440  197.3880   20.2090 C.ar   81  TRP81       0.0003
     31  CD1       19.5340  197.4200   21.2290 C.ar   81  TRP81       0.0946
     32  CD2       21.7060  197.1510   20.8010 C.ar   81  TRP81       0.0152
     33  NE1       20.1590  197.1520   22.4330 N.ar   81  TRP81      -0.2442
     34  CE2       21.4990  197.0030   22.1940 C.ar   81  TRP81       0.0810
     35  CE3       22.9840  197.0110   20.2830 C.ar   81  TRP81       0.0012
     36  CZ2       22.5440  196.7420   23.0730 C.ar   81  TRP81       0.0191
     37  CZ3       24.0460  196.7580   21.1770 C.ar   81  TRP81       0.0001
     38  CH2       23.8180  196.6240   22.5260 C.ar   81  TRP81       0.0015
     39  N         31.9310  188.0390   19.6420 N.3   126  ARG126     -0.1245
     40  CA        31.0590  188.4460   20.7720 C.3   126  ARG126      0.1563
     41  C         29.9460  189.2920   20.1490 C.2   126  ARG126      0.2260
     42  O         30.1910  190.0540   19.2150 O.2   126  ARG126     -0.2867
     43  CB        31.8470  189.2560   21.8130 C.3   126  ARG126      0.0307
     44  CG        31.0350  189.7180   23.0230 C.3   126  ARG126      0.0489
     45  CD        31.9390  190.4460   24.0630 C.3   126  ARG126      0.2205
     46  NE        31.1660  190.7640   25.2720 N.pl3 126  ARG126     -0.0865
     47  CZ        31.6490  191.3560   26.3710 C.cat 126  ARG126      0.5346
     48  NH1       32.9300  191.7100   26.4420 N.pl3 126  ARG126      0.1354
     49  NH2       30.8250  191.6060   27.3930 N.pl3 126  ARG126      0.1354
     50  N         26.6480  191.9060   21.3860 N.3   128  LEU128     -0.1231
     51  CA        25.8120  192.6070   22.3120 C.3   128  LEU128      0.1693
     52  C         24.5050  192.9200   21.6170 C.2   128  LEU128      0.2593
     53  O         24.4390  192.9590   20.3660 O.2   128  LEU128     -0.2718
     54  CB        26.4480  193.8990   22.7310 C.3   128  LEU128      0.0284
     55  CG        27.8440  193.8980   23.3220 C.3   128  LEU128      0.0019
     56  CD1       28.3230  195.3200   23.5920 C.3   128  LEU128      0.0001
     57  CD2       27.8120  193.0600   24.5580 C.3   128  LEU128      0.0001
     58  N         23.4410  193.0810   22.3690 N.am  129  GLY129     -0.1942
     59  CA        22.2140  193.5460   21.7400 C.3   129  GLY129      0.2014
     60  C         20.9820  193.5240   22.6490 C.2   129  GLY129      0.2639
     61  O         21.0970  193.2920   23.8650 O.2   129  GLY129     -0.2714
     62  N         19.8290  193.7700   22.0720 N.am  130  SER130     -0.1949
     63  CA        18.6200  193.7880   22.8370 C.3   130  SER130      0.1924
     64  C         18.2790  192.3520   23.3750 C.2   130  SER130      0.2314
     65  O         18.5590  191.3170   22.7620 O.2   130  SER130     -0.2863
     66  CB        17.4790  194.3750   21.9890 C.3   130  SER130      0.2116
     67  OG        17.3870  193.7990   20.7360 O.3   130  SER130     -0.2180
     68  N         18.8670  188.0610   22.1270 N.3   134  LEU134     -0.1245
     69  CA        20.0240  187.3160   22.6420 C.3   134  LEU134      0.1561
     70  C         19.6200  186.1000   23.4650 C.2   134  LEU134      0.2260
     71  O         18.5780  186.0520   24.1330 O.2   134  LEU134     -0.2867
     72  CB        20.9980  188.2070   23.3500 C.3   134  LEU134      0.0270
     73  CG        21.6900  189.2020   22.3940 C.3   134  LEU134      0.0019
     74  CD1       22.9170  189.6630   23.0800 C.3   134  LEU134      0.0001
     75  CD2       22.0470  188.6810   21.0200 C.3   134  LEU134      0.0001
@<TRIPOS>BOND
     1    12    11    2
     2    11    10    1
     3     9    10    1
     4    10    13    1
     5    14    13    1
     6    16    17    1
     7    13    15    1
     8    17    18    1
     9    26    27    1
    10    26    25    1
    11    26    29    1
    12    27    28    2
    13    18    19    2
    14    18    20   am
    15    29    30    1
    16    20    21    1
    17    42    41    2
    18    39    40    1
    19    22    21    1
    20    22    23    2
    21    21    24    1
    22    41    40    1
    23    30    32   ar
    24    30    31   ar
    25    35    32   ar
    26    35    37   ar
    27    53    52    2
    28    67    66    1
    29    40    43    1
    30    32    34   ar
    31    75    73    1
    32    37    38   ar
    33    31    33   ar
    34    50    51    1
    35    52    51    1
    36    52    58   am
    37    59    58    1
    38    59    60    1
    39    43    44    1
    40    66    63    1
    41    62    60   am
    42    62    63    1
    43    68    69    1
    44    34    33   ar
    45    34    36   ar
    46    51    54    1
    47    73    74    1
    48    73    72    1
    49    38    36   ar
    50    69    72    1
    51    69    70    1
    52    60    61    2
    53    54    55    1
    54    65    64    2
    55    63    64    1
    56    44    45    1
    57    55    56    1
    58    55    57    1
    59    70    71    2
    60    45    46    1
    61     3     4    2
    62     3     2    1
    63    46    47    2
    64     7     8    1
    65     7     6    1
    66     2     1    1
    67     2     5    1
    68     6     5    1
    69    47    48    1
    70    47    49    1
