@<TRIPOS>MOLECULE
tmp/5jadA00.pdb
 111 108 0 0 0
SMALL
GASTEIGER

@<TRIPOS>ATOM
      1  N         21.4390    8.9150  -12.6810 N.3    53  LEU53      -0.1245
      2  CA        20.7750    8.2440  -11.5470 C.3    53  LEU53       0.1561
      3  C         19.9290    7.0480  -12.0350 C.2    53  LEU53       0.2260
      4  O         19.8680    6.0280  -11.3540 O.2    53  LEU53      -0.2867
      5  CB        19.9060    9.1890  -10.6820 C.3    53  LEU53       0.0270
      6  CG        20.6760   10.1140   -9.7600 C.3    53  LEU53       0.0019
      7  CD1       19.9740   11.4450   -9.5840 C.3    53  LEU53       0.0001
      8  CD2       20.9770    9.4810   -8.4610 C.3    53  LEU53       0.0001
      9  N         22.2020    4.2590  -12.8320 N.3    56  PHE56      -0.1241
     10  CA        22.7710    3.7710  -11.5780 C.3    56  PHE56       0.1605
     11  C         21.7530    2.7870  -11.0310 C.2    56  PHE56       0.2264
     12  O         22.1160    1.6540  -10.7020 O.2    56  PHE56      -0.2867
     13  CB        23.1150    4.9300  -10.6080 C.3    56  PHE56       0.0534
     14  CG        23.2760    4.5620   -9.1470 C.ar   56  PHE56      -0.0203
     15  CD1       24.3210    3.7450   -8.7270 C.ar   56  PHE56      -0.0042
     16  CD2       22.3890    5.0440   -8.1910 C.ar   56  PHE56      -0.0042
     17  CE1       24.4680    3.4150   -7.3750 C.ar   56  PHE56      -0.0003
     18  CE2       22.5390    4.7190   -6.8460 C.ar   56  PHE56      -0.0003
     19  CZ        23.5760    3.9100   -6.4400 C.ar   56  PHE56      -0.0000
     20  N         28.8030    9.3090   -2.1260 N.3    98  GLY98      -0.1210
     21  CA        28.7290    7.8580   -2.2740 C.3    98  GLY98       0.1956
     22  C         28.7390    7.3880   -3.7220 C.2    98  GLY98       0.2612
     23  O         28.7970    8.1960   -4.6660 O.2    98  GLY98      -0.2717
     24  N         28.6950    6.0610   -3.8990 N.am   99  LEU99      -0.1965
     25  CA        28.5980    5.4210   -5.2080 C.3    99  LEU99       0.1728
     26  C         27.2030    5.7060   -5.8510 C.2    99  LEU99       0.2617
     27  O         26.1600    5.5530   -5.1960 O.2    99  LEU99      -0.2715
     28  CB        28.9030    3.9020   -5.0980 C.3    99  LEU99       0.0311
     29  CG        28.7640    3.0720   -6.3860 C.3    99  LEU99       0.0022
     30  CD1       29.9200    3.3590   -7.3850 C.3    99  LEU99       0.0001
     31  CD2       28.6300    1.5920   -6.0780 C.3    99  LEU99       0.0001
     32  N         27.2190    6.1210   -7.1220 N.am  100  GLY100     -0.1940
     33  CA        26.0290    6.6280   -7.7830 C.3   100  GLY100      0.2014
     34  C         25.4760    7.9540   -7.2780 C.2   100  GLY100      0.2638
     35  O         24.3900    8.3700   -7.7260 O.2   100  GLY100     -0.2714
     36  N         26.1900    8.6430   -6.3420 N.am  101  ALA101     -0.1977
     37  CA        25.8050   10.0440   -5.9780 C.3   101  ALA101      0.1597
     38  C         26.5940   11.0490   -6.8420 C.2   101  ALA101      0.2287
     39  O         27.1190   10.6570   -7.8700 O.2   101  ALA101     -0.2864
     40  CB        25.9910   10.3010   -4.4860 C.3   101  ALA101      0.0319
     41  N         24.1970   16.0840   -3.5440 N.3   105  LEU105     -0.1231
     42  CA        23.1900   15.2550   -2.8630 C.3   105  LEU105      0.1693
     43  C         23.3330   15.1640   -1.3200 C.2   105  LEU105      0.2592
     44  O         22.7200   14.2970   -0.6660 O.2   105  LEU105     -0.2718
     45  CB        23.1100   13.8600   -3.4600 C.3   105  LEU105      0.0284
     46  CG        22.7270   13.7400   -4.9530 C.3   105  LEU105      0.0019
     47  CD1       22.6860   12.2760   -5.3510 C.3   105  LEU105      0.0001
     48  CD2       21.3890   14.4520   -5.2610 C.3   105  LEU105      0.0001
     49  N         24.1320   16.0550   -0.7660 N.am  106  TYR106     -0.1976
     50  CA        24.4300   16.0820    0.6590 C.3   106  TYR106      0.1639
     51  C         24.3960   17.5470    1.1430 C.2   106  TYR106      0.2290
     52  O         25.2200   17.9830    1.9780 O.2   106  TYR106     -0.2864
     53  CB        25.8130   15.4540    0.9110 C.3   106  TYR106      0.0560
     54  CG        25.9250   13.9990    0.5060 C.ar  106  TYR106     -0.0198
     55  CD1       25.6290   12.9810    1.4080 C.ar  106  TYR106     -0.0009
     56  CD2       26.3560   13.6410   -0.7760 C.ar  106  TYR106     -0.0009
     57  CE1       25.7390   11.6390    1.0450 C.ar  106  TYR106      0.0417
     58  CE2       26.4680   12.3010   -1.1510 C.ar  106  TYR106      0.0417
     59  CZ        26.1670   11.3050   -0.2340 C.ar  106  TYR106      0.1957
     60  OH        26.2920    9.9920   -0.5960 O.3   106  TYR106     -0.2866
     61  N         30.1670   10.0220    3.0300 N.3   218  HIS218     -0.1226
     62  CA        29.1860    8.9640    3.2410 C.3   218  HIS218      0.1752
     63  C         29.4500    7.8330    2.2990 C.2   218  HIS218      0.2596
     64  O         29.6280    8.0760    1.0880 O.2   218  HIS218     -0.2718
     65  CB        27.7690    9.5230    2.9760 C.3   218  HIS218      0.0759
     66  CG        26.6730    8.4850    2.9140 C.ar  218  HIS218      0.0818
     67  ND1       26.0050    8.1960    1.7190 N.ar  218  HIS218     -0.2268
     68  CD2       26.1500    7.7240    3.9010 C.ar  218  HIS218      0.1154
     69  CE1       25.1060    7.2740    2.0210 C.ar  218  HIS218      0.1986
     70  NE2       25.1480    6.9650    3.3300 N.ar  218  HIS218     -0.2212
     71  N         29.4700    6.5930    2.8310 N.am  219  SER219     -0.1952
     72  CA        29.4990    5.3350    2.0270 C.3   219  SER219      0.1924
     73  C         30.8950    5.1140    1.3630 C.2   219  SER219      0.2314
     74  O         31.8860    4.9680    2.0920 O.2   219  SER219     -0.2863
     75  CB        28.3420    5.3400    1.0170 C.3   219  SER219      0.2116
     76  OG        27.8590    4.0710    0.6110 O.3   219  SER219     -0.2180
     77  N         20.7940    3.4830    5.3150 N.3   297  HIS297     -0.1226
     78  CA        21.9240    4.0500    4.5550 C.3   297  HIS297      0.1752
     79  C         21.5890    5.4350    3.9710 C.2   297  HIS297      0.2595
     80  O         22.4060    6.3420    4.0240 O.2   297  HIS297     -0.2718
     81  CB        22.3090    3.1050    3.3910 C.3   297  HIS297      0.0759
     82  CG        23.7150    3.2330    2.9020 C.ar  297  HIS297      0.0818
     83  ND1       24.7910    3.3150    3.7840 N.ar  297  HIS297     -0.2268
     84  CD2       24.1840    3.2260    1.6320 C.ar  297  HIS297      0.1154
     85  CE1       25.8630    3.3740    3.0260 C.ar  297  HIS297      0.1986
     86  NE2       25.5400    3.3310    1.7240 N.ar  297  HIS297     -0.2212
     87  N         20.3860    5.5900    3.4180 N.am  298  GLN298     -0.1979
     88  CA        19.9300    6.8180    2.7730 C.3   298  GLN298      0.1601
     89  C         19.6580    7.9930    3.7230 C.2   298  GLN298      0.2287
     90  O         19.4950    9.1260    3.2540 O.2   298  GLN298     -0.2864
     91  CB        18.6900    6.4840    1.9110 C.3   298  GLN298      0.0394
     92  CG        19.0300    5.6340    0.6400 C.3   298  GLN298      0.0908
     93  CD        20.2420    6.1650   -0.0770 C.2   298  GLN298      0.2608
     94  OE1       20.3290    7.3410   -0.3660 O.2   298  GLN298     -0.2717
     95  NE2       21.2870    5.3740   -0.2070 N.am  298  GLN298     -0.0878
     96  N         21.8890   10.9990    3.0160 N.3   301  ALA301     -0.1245
     97  CA        21.8280   11.7810    1.7880 C.3   301  ALA301      0.1562
     98  C         20.4790   12.4410    1.6210 C.2   301  ALA301      0.2260
     99  O         19.5050   12.0440    2.2650 O.2   301  ALA301     -0.2867
    100  CB        22.1700   10.9210    0.5690 C.3   301  ALA301      0.0290
    101  N         18.0890   12.4460   -0.5760 N.3   303  PHE303     -0.1241
    102  CA        16.8360   11.8240   -1.0090 C.3   303  PHE303      0.1605
    103  C         15.9810   11.3320    0.1410 C.2   303  PHE303      0.2264
    104  O         14.7930   11.0840   -0.0640 O.2   303  PHE303     -0.2867
    105  CB        17.0670   10.7470   -2.0230 C.3   303  PHE303      0.0534
    106  CG        17.1180   11.1720   -3.4580 C.ar  303  PHE303     -0.0203
    107  CD1       15.9550   11.2410   -4.2210 C.ar  303  PHE303     -0.0042
    108  CD2       18.3320   11.4340   -4.0800 C.ar  303  PHE303     -0.0042
    109  CE1       16.0100   11.5980   -5.5760 C.ar  303  PHE303     -0.0003
    110  CE2       18.3800   11.7840   -5.4360 C.ar  303  PHE303     -0.0003
    111  CZ        17.2210   11.8690   -6.1690 C.ar  303  PHE303     -0.0000
@<TRIPOS>BOND
     1     9    10    1
     2     1     2    1
     3     3     2    1
     4     3     4    2
     5    10    11    1
     6    10    13    1
     7     2     5    1
     8    11    12    2
     9     5     6    1
    10    13    14    1
    11     6     7    1
    12     6     8    1
    13    14    15   ar
    14    14    16   ar
    15    15    17   ar
    16    16    18   ar
    17    39    38    2
    18    33    34    1
    19    33    32    1
    20    35    34    2
    21    30    29    1
    22    17    19   ar
    23    34    36   am
    24    32    26   am
    25    18    19   ar
    26    38    37    1
    27    29    31    1
    28    29    28    1
    29    36    37    1
    30   111   109   ar
    31   111   110   ar
    32    37    40    1
    33    26    25    1
    34    26    27    2
    35   109   107   ar
    36   110   108   ar
    37    47    46    1
    38    48    46    1
    39    25    28    1
    40    25    24    1
    41    46    45    1
    42    23    22    2
    43   107   106   ar
    44   108   106   ar
    45    24    22   am
    46    22    21    1
    47    41    42    1
    48    45    42    1
    49   106   105    1
    50    42    43    1
    51    21    20    1
    52   105   102    1
    53    43    49   am
    54    43    44    2
    55    58    56   ar
    56    58    59   ar
    57   102   101    1
    58   102   103    1
    59    56    54   ar
    60    49    50    1
    61    60    59    1
    62    94    93    2
    63    59    57   ar
    64    95    93   am
    65    93    92    1
    66   104   103    2
    67    54    53    1
    68    54    55   ar
    69   100    97    1
    70    76    75    1
    71    92    91    1
    72    50    53    1
    73    50    51    1
    74    75    72    1
    75    57    55   ar
    76    64    63    2
    77    51    52    2
    78    73    72    1
    79    73    74    2
    80    98    97    1
    81    98    99    2
    82    84    86   ar
    83    84    82   ar
    84    67    69   ar
    85    67    66   ar
    86    86    85   ar
    87    97    96    1
    88    91    88    1
    89    69    70   ar
    90    72    71    1
    91    63    71   am
    92    63    62    1
    93    88    87    1
    94    88    89    1
    95    82    81    1
    96    82    83   ar
    97    66    65    1
    98    66    68   ar
    99    65    62    1
   100    85    83   ar
   101    61    62    1
   102    90    89    2
   103    70    68   ar
   104    81    78    1
   105    87    79   am
   106    79    80    2
   107    79    78    1
   108    78    77    1
