@<TRIPOS>MOLECULE
tmp/5jaeA02.pdb
 114 111 0 0 0
SMALL
GASTEIGER

@<TRIPOS>ATOM
      1  N         45.4950   -7.9340    4.1480 N.3    85  ARG85      -0.1231
      2  CA        45.5020   -7.1200    5.3590 C.3    85  ARG85       0.1694
      3  C         44.9130   -5.7400    5.1060 C.2    85  ARG85       0.2592
      4  O         44.3140   -5.1430    6.0090 O.2    85  ARG85      -0.2718
      5  CB        46.9290   -6.9970    5.9000 C.3    85  ARG85       0.0321
      6  CG        47.8870   -6.2340    4.9810 C.3    85  ARG85       0.0489
      7  CD        49.2410   -6.0200    5.6380 C.3    85  ARG85       0.2205
      8  NE        49.9930   -7.2650    5.7560 N.pl3  85  ARG85      -0.0865
      9  CZ        51.0280   -7.4370    6.5700 C.cat  85  ARG85       0.5346
     10  NH1       51.4310   -6.4430    7.3520 N.pl3  85  ARG85       0.1354
     11  NH2       51.6550   -8.6050    6.6100 N.pl3  85  ARG85       0.1354
     12  N         45.0670   -5.2230    3.8850 N.am   86  PHE86      -0.1976
     13  CA        44.5470   -3.8990    3.5680 C.3    86  PHE86       0.1639
     14  C         43.0230   -3.8910    3.5170 C.2    86  PHE86       0.2290
     15  O         42.4070   -2.8490    3.7680 O.2    86  PHE86      -0.2864
     16  CB        45.1390   -3.4040    2.2470 C.3    86  PHE86       0.0560
     17  CG        45.0490   -1.9110    2.0640 C.ar   86  PHE86      -0.0200
     18  CD1       45.6220   -1.0530    2.9940 C.ar   86  PHE86      -0.0042
     19  CD2       44.4040   -1.3640    0.9590 C.ar   86  PHE86      -0.0042
     20  CE1       45.5380    0.3200    2.8370 C.ar   86  PHE86      -0.0003
     21  CE2       44.3250    0.0100    0.7920 C.ar   86  PHE86      -0.0003
     22  CZ        44.8920    0.8520    1.7330 C.ar   86  PHE86      -0.0000
     23  N         41.1370   -5.4540    5.6610 N.3    88  LYS88      -0.1231
     24  CA        40.6830   -5.2980    7.0380 C.3    88  LYS88       0.1693
     25  C         40.7720   -3.8470    7.4910 C.2    88  LYS88       0.2591
     26  O         39.8720   -3.3560    8.1810 O.2    88  LYS88      -0.2718
     27  CB        41.4840   -6.2040    7.9730 C.3    88  LYS88       0.0285
     28  CG        40.7050   -7.4250    8.4460 C.3    88  LYS88       0.0035
     29  CD        41.4750   -8.2380    9.4740 C.3    88  LYS88       0.0206
     30  CE        41.9330   -9.5660    8.8850 C.3    88  LYS88       0.1093
     31  NZ        42.6600  -10.4220    9.8660 N.3    88  LYS88      -0.1314
     32  N         41.8460   -3.1430    7.1220 N.am   89  ILE89      -0.1980
     33  CA        41.9330   -1.7390    7.5080 C.3    89  ILE89       0.1595
     34  C         40.9250   -0.9130    6.7130 C.2    89  ILE89       0.2287
     35  O         40.3480    0.0430    7.2420 O.2    89  ILE89      -0.2864
     36  CB        43.3840   -1.2170    7.3770 C.3    89  ILE89       0.0276
     37  CG1       43.5500    0.1070    8.1130 C.3    89  ILE89       0.0022
     38  CG2       43.7780   -0.9590    5.9400 C.3    89  ILE89       0.0022
     39  CD1       43.3510    0.0030    9.6010 C.3    89  ILE89       0.0001
     40  N         36.7270    1.5380    7.9920 N.3    93  PHE93      -0.1241
     41  CA        35.9330    2.6970    7.5850 C.3    93  PHE93       0.1605
     42  C         34.4440    2.4100    7.6890 C.2    93  PHE93       0.2264
     43  O         33.6690    3.2630    8.1440 O.2    93  PHE93      -0.2867
     44  CB        36.2930    3.1230    6.1610 C.3    93  PHE93       0.0534
     45  CG        37.4590    4.0660    6.0830 C.ar   93  PHE93      -0.0203
     46  CD1       37.2860    5.4190    6.3310 C.ar   93  PHE93      -0.0042
     47  CD2       38.7240    3.6070    5.7400 C.ar   93  PHE93      -0.0042
     48  CE1       38.3490    6.2920    6.2580 C.ar   93  PHE93      -0.0003
     49  CE2       39.7980    4.4780    5.6610 C.ar   93  PHE93      -0.0003
     50  CZ        39.6080    5.8240    5.9200 C.ar   93  PHE93      -0.0000
     51  N         39.0570    6.0030   14.7880 N.3   489  PHE489     -0.1227
     52  CA        39.5210    5.0370   13.7980 C.3   489  PHE489      0.1736
     53  C         40.6410    4.1710   14.3650 C.2   489  PHE489      0.2595
     54  O         40.6900    2.9600   14.1070 O.2   489  PHE489     -0.2718
     55  CB        39.9800    5.7750   12.5390 C.3   489  PHE489      0.0547
     56  CG        40.2650    4.8790   11.3660 C.ar  489  PHE489     -0.0202
     57  CD1       39.2630    4.5540   10.4630 C.ar  489  PHE489     -0.0042
     58  CD2       41.5410    4.3800   11.1520 C.ar  489  PHE489     -0.0042
     59  CE1       39.5260    3.7350    9.3750 C.ar  489  PHE489     -0.0003
     60  CE2       41.8130    3.5650   10.0670 C.ar  489  PHE489     -0.0003
     61  CZ        40.8030    3.2410    9.1780 C.ar  489  PHE489     -0.0000
     62  N         41.5500    4.7740   15.1480 N.am  490  LEU490     -0.1980
     63  CA        42.6190    4.0120   15.7930 C.3   490  LEU490      0.1596
     64  C         42.0550    3.0730   16.8480 C.2   490  LEU490      0.2287
     65  O         42.5750    1.9700   17.0500 O.2   490  LEU490     -0.2864
     66  CB        43.6490    4.9650   16.4140 C.3   490  LEU490      0.0297
     67  CG        44.8770    4.4090   17.1630 C.3   490  LEU490      0.0022
     68  CD1       46.0620    5.3360   16.9880 C.3   490  LEU490      0.0001
     69  CD2       44.6170    4.2000   18.6620 C.3   490  LEU490      0.0001
     70  N         40.5590    0.1380   14.9050 N.3   493  THR493     -0.1218
     71  CA        41.6250   -0.6920   14.3510 C.3   493  THR493      0.1862
     72  C         42.2540   -1.5690   15.4300 C.2   493  THR493      0.2287
     73  O         42.5540   -2.7470   15.1910 O.2   493  THR493     -0.2866
     74  CB        42.6740    0.1950   13.6780 C.3   493  THR493      0.1770
     75  OG1       42.0630    0.8660   12.5630 O.3   493  THR493     -0.2211
     76  CG2       43.8630   -0.6290   13.1900 C.3   493  THR493      0.0375
     77  N         39.8300   -4.4420   15.9990 N.3   496  VAL496     -0.1231
     78  CA        39.9700   -5.4510   14.9520 C.3   496  VAL496      0.1692
     79  C         41.2190   -6.2870   15.1990 C.2   496  VAL496      0.2592
     80  O         41.2210   -7.5070   14.9830 O.2   496  VAL496     -0.2718
     81  CB        39.9830   -4.7760   13.5660 C.3   496  VAL496      0.0266
     82  CG1       40.3390   -5.7760   12.4770 C.3   496  VAL496      0.0020
     83  CG2       38.6300   -4.1370   13.2850 C.3   496  VAL496      0.0020
     84  N         42.2930   -5.6470   15.6800 N.am  497  PHE497     -0.1976
     85  CA        43.4870   -6.3770   16.1040 C.3   497  PHE497      0.1639
     86  C         43.1460   -7.3860   17.1940 C.2   497  PHE497      0.2290
     87  O         43.4070   -8.5880   17.0460 O.2   497  PHE497     -0.2864
     88  CB        44.5580   -5.3850   16.5790 C.3   497  PHE497      0.0560
     89  CG        45.7600   -6.0240   17.2370 C.ar  497  PHE497     -0.0200
     90  CD1       46.8050   -6.5130   16.4760 C.ar  497  PHE497     -0.0042
     91  CD2       45.8560   -6.1010   18.6200 C.ar  497  PHE497     -0.0042
     92  CE1       47.9140   -7.0910   17.0730 C.ar  497  PHE497     -0.0003
     93  CE2       46.9590   -6.6730   19.2280 C.ar  497  PHE497     -0.0003
     94  CZ        47.9920   -7.1700   18.4530 C.ar  497  PHE497     -0.0000
     95  N         41.2460  -10.4400   15.9570 N.3   500  GLU500     -0.1231
     96  CA        42.0500  -11.4900   15.3340 C.3   500  GLU500      0.1699
     97  C         42.7910  -12.3150   16.3810 C.2   500  GLU500      0.2592
     98  O         42.9040  -13.5390   16.2510 O.2   500  GLU500     -0.2718
     99  CB        43.0510  -10.8890   14.3510 C.3   500  GLU500      0.0402
    100  CG        42.4960   -9.8210   13.4480 C.3   500  GLU500      0.1161
    101  CD        43.5860   -8.8940   12.9420 C.2   500  GLU500      0.3649
    102  OE1       43.5830   -8.5590   11.7380 O.co2 500  GLU500     -0.2457
    103  OE2       44.4600   -8.5100   13.7530 O.co2 500  GLU500     -0.2457
    104  N         43.3140  -11.6570   17.4180 N.am  501  ARG501     -0.1980
    105  CA        44.0630  -12.3680   18.4480 C.3   501  ARG501      0.1597
    106  C         43.1770  -13.3630   19.1880 C.2   501  ARG501      0.2287
    107  O         43.6150  -14.4730   19.5140 O.2   501  ARG501     -0.2864
    108  CB        44.6910  -11.3640   19.4180 C.3   501  ARG501      0.0334
    109  CG        46.2170  -11.4010   19.4740 C.3   501  ARG501      0.0492
    110  CD        46.8420  -11.5040   18.0880 C.3   501  ARG501      0.2205
    111  NE        46.3750  -10.4600   17.1800 N.pl3 501  ARG501     -0.0865
    112  CZ        46.7950  -10.3230   15.9270 C.cat 501  ARG501      0.5346
    113  NH1       47.6990  -11.1600   15.4370 N.pl3 501  ARG501      0.1354
    114  NH2       46.3170   -9.3480   15.1660 N.pl3 501  ARG501      0.1354
@<TRIPOS>BOND
     1    21    19   ar
     2    21    22   ar
     3    19    17   ar
     4    22    20   ar
     5    17    16    1
     6    17    18   ar
     7    16    13    1
     8    20    18   ar
     9    14    13    1
    10    14    15    2
    11    13    12    1
    12    12     3   am
    13     1     2    1
    14     6     7    1
    15     6     5    1
    16     3     2    1
    17     3     4    2
    18     2     5    1
    19     7     8    1
    20    23    24    1
    21    49    47   ar
    22    49    50   ar
    23    47    45   ar
    24     8     9    2
    25    50    48   ar
    26    38    36    1
    27    45    44    1
    28    45    46   ar
    29    44    41    1
    30    48    46   ar
    31     9    11    1
    32     9    10    1
    33    34    35    2
    34    34    33    1
    35    24    25    1
    36    24    27    1
    37    32    25   am
    38    32    33    1
    39    36    33    1
    40    36    37    1
    41    25    26    2
    42    41    42    1
    43    41    40    1
    44    42    43    2
    45    27    28    1
    46    37    39    1
    47    28    29    1
    48    30    29    1
    49    30    31    1
    50    61    59   ar
    51    61    60   ar
    52    59    57   ar
    53    60    58   ar
    54    57    56   ar
    55    58    56   ar
    56    56    55    1
    57   102   101   ar
    58    82    81    1
    59    55    52    1
    60    75    74    1
    61   101   100    1
    62   101   103   ar
    63    76    74    1
    64    83    81    1
    65   100    99    1
    66    81    78    1
    67    74    71    1
    68    52    53    1
    69    52    51    1
    70    54    53    2
    71    99    96    1
    72    71    70    1
    73    71    72    1
    74    53    62   am
    75    78    79    1
    76    78    77    1
    77    80    79    2
    78    62    63    1
    79   114   112    1
    80    73    72    2
    81    79    84   am
    82    96    95    1
    83    96    97    1
    84   113   112    1
    85    84    85    1
    86    63    66    1
    87    63    64    1
    88   112   111    2
    89    85    88    1
    90    85    86    1
    91    98    97    2
    92    97   104   am
    93    66    67    1
    94    90    92   ar
    95    90    89   ar
    96    88    89    1
    97    64    65    2
    98    68    67    1
    99    87    86    2
   100    92    94   ar
   101    67    69    1
   102   111   110    1
   103    89    91   ar
   104   104   105    1
   105   110   109    1
   106   105   106    1
   107   105   108    1
   108    94    93   ar
   109    91    93   ar
   110   106   107    2
   111   108   109    1
