@<TRIPOS>MOLECULE
tmp/5jagA04.pdb
 109 104 0 0 0
SMALL
GASTEIGER

@<TRIPOS>ATOM
      1  N         -2.1880  -11.3840   26.8540 N.3   113  LEU113     -0.1245
      2  CA        -3.4570  -10.9150   27.4000 C.3   113  LEU113      0.1561
      3  C         -4.4740  -12.0470   27.4710 C.2   113  LEU113      0.2260
      4  O         -5.1370  -12.2340   28.4980 O.2   113  LEU113     -0.2867
      5  CB        -4.0010   -9.7600   26.5600 C.3   113  LEU113      0.0270
      6  CG        -5.3790   -9.2350   26.9670 C.3   113  LEU113      0.0019
      7  CD1       -5.3570   -8.7100   28.3960 C.3   113  LEU113      0.0001
      8  CD2       -5.8540   -8.1590   26.0020 C.3   113  LEU113      0.0001
      9  N         -6.1670  -13.8500   30.8080 N.3   117  ILE117     -0.1245
     10  CA        -7.5990  -13.9900   31.0560 C.3   117  ILE117      0.1561
     11  C         -7.9450  -15.4400   31.3720 C.2   117  ILE117      0.2260
     12  O         -8.6770  -15.7270   32.3260 O.2   117  ILE117     -0.2867
     13  CB        -8.4080  -13.4730   29.8530 C.3   117  ILE117      0.0252
     14  CG1       -8.1170  -11.9920   29.6030 C.3   117  ILE117      0.0019
     15  CG2       -9.9000  -13.7020   30.0710 C.3   117  ILE117      0.0019
     16  CD1       -8.6750  -11.4800   28.2930 C.3   117  ILE117      0.0001
     17  N         -9.0600   -6.5160   20.9520 N.3   168  ILE168     -0.1245
     18  CA        -9.0150   -5.7730   22.2090 C.3   168  ILE168      0.1561
     19  C         -7.6240   -5.1940   22.4350 C.2   168  ILE168      0.2260
     20  O         -7.4760   -4.0480   22.8780 O.2   168  ILE168     -0.2867
     21  CB        -9.4490   -6.6780   23.3770 C.3   168  ILE168      0.0252
     22  CG1      -10.8640   -7.2110   23.1450 C.3   168  ILE168      0.0019
     23  CG2       -9.3780   -5.9270   24.6970 C.3   168  ILE168      0.0019
     24  CD1      -11.3190   -8.2000   24.1930 C.3   168  ILE168      0.0001
     25  N         -7.1130   -2.1820   20.4630 N.3   171  PHE171     -0.1227
     26  CA        -7.8810   -1.0860   21.0430 C.3   171  PHE171      0.1736
     27  C         -7.1280   -0.4330   22.1960 C.2   171  PHE171      0.2595
     28  O         -7.1520    0.7940   22.3480 O.2   171  PHE171     -0.2718
     29  CB        -9.2430   -1.6000   21.5070 C.3   171  PHE171      0.0547
     30  CG       -10.0900   -0.5600   22.1800 C.ar  171  PHE171     -0.0202
     31  CD1      -10.8450    0.3280   21.4310 C.ar  171  PHE171     -0.0042
     32  CD2      -10.1400   -0.4770   23.5620 C.ar  171  PHE171     -0.0042
     33  CE1      -11.6280    1.2840   22.0490 C.ar  171  PHE171     -0.0003
     34  CE2      -10.9200    0.4760   24.1840 C.ar  171  PHE171     -0.0003
     35  CZ       -11.6650    1.3570   23.4270 C.ar  171  PHE171     -0.0000
     36  N         -6.4510   -1.2380   23.0180 N.am  172  ILE172     -0.1980
     37  CA        -5.6840   -0.6900   24.1320 C.3   172  ILE172      0.1595
     38  C         -4.5100    0.1350   23.6180 C.2   172  ILE172      0.2287
     39  O         -4.2450    1.2360   24.1150 O.2   172  ILE172     -0.2864
     40  CB        -5.2210   -1.8230   25.0660 C.3   172  ILE172      0.0276
     41  CG1       -6.4150   -2.4130   25.8180 C.3   172  ILE172      0.0022
     42  CG2       -4.1660   -1.3230   26.0370 C.3   172  ILE172      0.0022
     43  CD1       -6.0880   -3.6830   26.5580 C.3   172  ILE172      0.0001
     44  N         -5.7820    3.4010   22.3680 N.3   175  SER175     -0.1202
     45  CA        -6.2130    4.2750   23.4560 C.3   175  SER175      0.2020
     46  C         -5.0400    5.0340   24.0630 C.2   175  SER175      0.2618
     47  O         -5.1780    6.2010   24.4490 O.2   175  SER175     -0.2717
     48  CB        -6.9300    3.4550   24.5280 C.3   175  SER175      0.2103
     49  OG        -8.0760    2.8150   23.9930 O.3   175  SER175     -0.2182
     50  N         -3.8770    4.3920   24.1550 N.am  176  ILE176     -0.1979
     51  CA        -2.6920    5.0690   24.6680 C.3   176  ILE176      0.1595
     52  C         -2.1080    6.0010   23.6150 C.2   176  ILE176      0.2287
     53  O         -1.7640    7.1520   23.9050 O.2   176  ILE176     -0.2864
     54  CB        -1.6530    4.0350   25.1410 C.3   176  ILE176      0.0276
     55  CG1       -2.2910    3.0450   26.1190 C.3   176  ILE176      0.0022
     56  CG2       -0.4570    4.7360   25.7680 C.3   176  ILE176      0.0022
     57  CD1       -1.4140    1.8460   26.4360 C.3   176  ILE176      0.0001
     58  N         -4.0390    9.3380   22.6740 N.3   179  ARG179     -0.1245
     59  CA        -3.9210   10.4340   23.6270 C.3   179  ARG179      0.1563
     60  C         -2.6470   11.2440   23.4320 C.2   179  ARG179      0.2260
     61  O         -2.6010   12.4080   23.8410 O.2   179  ARG179     -0.2867
     62  CB        -3.9660    9.9070   25.0620 C.3   179  ARG179      0.0307
     63  CG        -5.3130    9.3630   25.4930 C.3   179  ARG179      0.0489
     64  CD        -5.2070    8.7110   26.8580 C.3   179  ARG179      0.2205
     65  NE        -6.5020    8.2620   27.3540 N.pl3 179  ARG179     -0.0865
     66  CZ        -6.6730    7.5920   28.4890 C.cat 179  ARG179      0.5346
     67  NH1       -5.6260    7.2880   29.2450 N.pl3 179  ARG179      0.1354
     68  NH2       -7.8890    7.2230   28.8670 N.pl3 179  ARG179      0.1354
     69  N          1.1710    6.4860   30.6720 N.3   188  PHE188     -0.1241
     70  CA         1.1380    5.0360   30.8220 C.3   188  PHE188      0.1605
     71  C          2.4190    4.5160   31.4650 C.2   188  PHE188      0.2264
     72  O          2.3700    3.6400   32.3370 O.2   188  PHE188     -0.2867
     73  CB         0.9140    4.3790   29.4580 C.3   188  PHE188      0.0534
     74  CG         1.0170    2.8810   29.4800 C.ar  188  PHE188     -0.0203
     75  CD1       -0.0500    2.1070   29.9050 C.ar  188  PHE188     -0.0042
     76  CD2        2.1790    2.2470   29.0710 C.ar  188  PHE188     -0.0042
     77  CE1        0.0430    0.7280   29.9280 C.ar  188  PHE188     -0.0003
     78  CE2        2.2780    0.8690   29.0920 C.ar  188  PHE188     -0.0003
     79  CZ         1.2090    0.1090   29.5210 C.ar  188  PHE188     -0.0000
     80  N          2.2560   -8.9160   29.3170 N.3   343  PHE343     -0.1227
     81  CA         1.3600   -8.0600   28.5470 C.3   343  PHE343      0.1736
     82  C          1.6730   -6.5870   28.7810 C.2   343  PHE343      0.2595
     83  O          1.9210   -5.8340   27.8320 O.2   343  PHE343     -0.2718
     84  CB        -0.0960   -8.3650   28.9020 C.3   343  PHE343      0.0547
     85  CG        -1.0800   -7.4310   28.2590 C.ar  343  PHE343     -0.0202
     86  CD1       -1.3580   -7.5210   26.9040 C.ar  343  PHE343     -0.0042
     87  CD2       -1.7240   -6.4590   29.0070 C.ar  343  PHE343     -0.0042
     88  CE1       -2.2610   -6.6610   26.3080 C.ar  343  PHE343     -0.0003
     89  CE2       -2.6290   -5.5960   28.4170 C.ar  343  PHE343     -0.0003
     90  CZ        -2.8980   -5.6980   27.0660 C.ar  343  PHE343     -0.0000
     91  N          1.6690   -6.1590   30.0460 N.am  344  PHE344     -0.1976
     92  CA         1.9260   -4.7560   30.3530 C.3   344  PHE344      0.1639
     93  C          3.3480   -4.3460   29.9940 C.2   344  PHE344      0.2290
     94  O          3.5760   -3.1940   29.6100 O.2   344  PHE344     -0.2864
     95  CB         1.6490   -4.4820   31.8300 C.3   344  PHE344      0.0560
     96  CG         0.3410   -3.7920   32.0790 C.ar  344  PHE344     -0.0200
     97  CD1       -0.8570   -4.4650   31.9080 C.ar  344  PHE344     -0.0042
     98  CD2        0.3100   -2.4700   32.4890 C.ar  344  PHE344     -0.0042
     99  CE1       -2.0630   -3.8310   32.1360 C.ar  344  PHE344     -0.0003
    100  CE2       -0.8920   -1.8300   32.7210 C.ar  344  PHE344     -0.0003
    101  CZ        -2.0800   -2.5120   32.5440 C.ar  344  PHE344     -0.0000
    102  N          3.1790   -3.9340   26.3320 N.3   347  LEU347     -0.1245
    103  CA         2.3930   -2.7580   25.9800 C.3   347  LEU347      0.1561
    104  C          3.2770   -1.5270   25.8210 C.2   347  LEU347      0.2260
    105  O          2.9920   -0.6620   24.9850 O.2   347  LEU347     -0.2867
    106  CB         1.3180   -2.5240   27.0390 C.3   347  LEU347      0.0270
    107  CG         0.0280   -1.8230   26.6200 C.3   347  LEU347      0.0019
    108  CD1       -0.5140   -2.4150   25.3330 C.3   347  LEU347      0.0001
    109  CD2       -0.9970   -1.9510   27.7350 C.3   347  LEU347      0.0001
@<TRIPOS>BOND
     1    25    26    1
     2    17    18    1
     3    26    29    1
     4    26    27    1
     5    31    33   ar
     6    31    30   ar
     7    29    30    1
     8    33    35   ar
     9    30    32   ar
    10    27    28    2
    11    27    36   am
    12    18    19    1
    13    18    21    1
    14    44    45    1
    15    19    20    2
    16    58    59    1
    17    36    37    1
    18    22    21    1
    19    22    24    1
    20    21    23    1
    21    35    34   ar
    22    60    59    1
    23    60    61    2
    24    45    46    1
    25    45    48    1
    26    32    34   ar
    27    52    53    2
    28    52    51    1
    29    38    39    2
    30    38    37    1
    31    59    62    1
    32    49    48    1
    33    46    50   am
    34    46    47    2
    35    37    40    1
    36    50    51    1
    37    51    54    1
    38   105   104    2
    39    62    63    1
    40    40    41    1
    41    40    42    1
    42    54    56    1
    43    54    55    1
    44   108   107    1
    45    63    64    1
    46    41    43    1
    47   104   103    1
    48   103   102    1
    49   103   106    1
    50     8     6    1
    51    55    57    1
    52    88    86   ar
    53    88    90   ar
    54     5     6    1
    55     5     2    1
    56   107   106    1
    57   107   109    1
    58     1     2    1
    59    64    65    1
    60    86    85   ar
    61     6     7    1
    62    90    89   ar
    63    65    66    2
    64     2     3    1
    65     3     4    2
    66    83    82    2
    67    85    84    1
    68    85    87   ar
    69    16    14    1
    70    89    87   ar
    71    66    68    1
    72    66    67    1
    73    81    82    1
    74    81    84    1
    75    81    80    1
    76    82    91   am
    77    76    78   ar
    78    76    74   ar
    79    78    79   ar
    80    73    74    1
    81    73    70    1
    82    74    75   ar
    83    79    77   ar
    84    14    13    1
    85    94    93    2
    86    13    15    1
    87    13    10    1
    88    75    77   ar
    89    93    92    1
    90    91    92    1
    91    92    95    1
    92    69    70    1
    93     9    10    1
    94    70    71    1
    95    10    11    1
    96    11    12    2
    97    71    72    2
    98    95    96    1
    99    97    96   ar
   100    97    99   ar
   101    96    98   ar
   102    99   101   ar
   103    98   100   ar
   104   101   100   ar
