@<TRIPOS>MOLECULE
tmp/5jagA06.pdb
 111 102 0 0 0
SMALL
GASTEIGER

@<TRIPOS>ATOM
      1  N         11.4430   11.8830   34.3300 N.3     9  LEU9       -0.1245
      2  CA        11.1200   10.5290   34.7650 C.3     9  LEU9        0.1561
      3  C         10.2570    9.8140   33.7330 C.2     9  LEU9        0.2260
      4  O         10.5320    8.6660   33.3650 O.2     9  LEU9       -0.2867
      5  CB        10.4180   10.5710   36.1210 C.3     9  LEU9        0.0270
      6  CG        10.0380    9.2260   36.7360 C.3     9  LEU9        0.0019
      7  CD1       11.2830    8.4220   37.0770 C.3     9  LEU9        0.0001
      8  CD2        9.1780    9.4430   37.9680 C.3     9  LEU9        0.0001
      9  N         11.1520    6.4910   31.8480 N.3    13  LEU13      -0.1245
     10  CA        10.2970    5.3220   32.0210 C.3    13  LEU13       0.1561
     11  C          9.6850    4.8690   30.7010 C.2    13  LEU13       0.2260
     12  O          9.4720    3.6680   30.5010 O.2    13  LEU13      -0.2867
     13  CB         9.2030    5.6130   33.0480 C.3    13  LEU13       0.0270
     14  CG         9.6970    5.8050   34.4830 C.3    13  LEU13       0.0019
     15  CD1        8.5300    5.8160   35.4590 C.3    13  LEU13       0.0001
     16  CD2       10.7090    4.7300   34.8550 C.3    13  LEU13       0.0001
     17  N         11.6370   -3.4210   27.8060 N.3    20  VAL20      -0.1245
     18  CA        11.2060   -4.4640   28.7310 C.3    20  VAL20       0.1561
     19  C         10.1290   -5.3550   28.1270 C.2    20  VAL20       0.2260
     20  O          9.9080   -6.4690   28.6190 O.2    20  VAL20      -0.2867
     21  CB        10.7040   -3.8550   30.0520 C.3    20  VAL20       0.0252
     22  CG1       11.7530   -2.9250   30.6390 C.3    20  VAL20       0.0019
     23  CG2        9.3860   -3.1240   29.8430 C.3    20  VAL20       0.0019
     24  N         13.2110  -10.9530   30.0380 N.3    25  PHE25      -0.1241
     25  CA        13.1560  -11.8020   31.2250 C.3    25  PHE25       0.1605
     26  C         13.3800  -13.2650   30.8690 C.2    25  PHE25       0.2264
     27  O         13.8740  -14.0390   31.6970 O.2    25  PHE25      -0.2867
     28  CB        11.8160  -11.6340   31.9450 C.3    25  PHE25       0.0534
     29  CG        11.7500  -10.4260   32.8380 C.ar   25  PHE25      -0.0203
     30  CD1       12.6660   -9.3950   32.7130 C.ar   25  PHE25      -0.0042
     31  CD2       10.7750  -10.3330   33.8180 C.ar   25  PHE25      -0.0042
     32  CE1       12.6030   -8.2890   33.5380 C.ar   25  PHE25      -0.0003
     33  CE2       10.7080   -9.2310   34.6470 C.ar   25  PHE25      -0.0003
     34  CZ        11.6220   -8.2080   34.5060 C.ar   25  PHE25      -0.0000
     35  N          4.6970    6.1100   33.4320 N.3   190  LYS190     -0.1245
     36  CA         4.8680    6.5110   34.8240 C.3   190  LYS190      0.1561
     37  C          4.0320    5.6670   35.7770 C.2   190  LYS190      0.2260
     38  O          4.3590    5.5860   36.9660 O.2   190  LYS190     -0.2867
     39  CB         4.5200    7.9930   34.9880 C.3   190  LYS190      0.0271
     40  CG         5.4390    8.9290   34.2210 C.3   190  LYS190      0.0035
     41  CD         5.0180   10.3800   34.3820 C.3   190  LYS190      0.0206
     42  CE         5.0980   10.8210   35.8330 C.3   190  LYS190      0.1093
     43  NZ         4.6900   12.2430   36.0000 N.3   190  LYS190     -0.1314
     44  N          5.4040    1.1870   34.5600 N.3   193  MET193     -0.1231
     45  CA         6.7830    0.8190   34.8750 C.3   193  MET193      0.1687
     46  C          6.9810    0.5240   36.3580 C.2   193  MET193      0.2434
     47  O          7.5550   -0.5320   36.6790 O.2   193  MET193     -0.2733
     48  CB         7.7450    1.9040   34.3800 C.3   193  MET193      0.0400
     49  CG         7.8890    1.9540   32.8720 C.3   193  MET193      0.0596
     50  SD         8.6170    0.4440   32.2130 S.3   193  MET193     -0.1393
     51  CE        10.2940    0.5840   32.8280 C.3   193  MET193      0.0692
     52  N          6.5400    1.3690   37.3020 N.am  194  PRO194     -0.2729
     53  CA         6.6470    0.9630   38.7140 C.3   194  PRO194      0.1401
     54  C          5.8170   -0.2660   39.0370 C.2   194  PRO194      0.2269
     55  O          6.2420   -1.1020   39.8440 O.2   194  PRO194     -0.2865
     56  CB         6.1550    2.2010   39.4770 C.3   194  PRO194      0.0296
     57  CG         6.3060    3.3300   38.5230 C.3   194  PRO194      0.0237
     58  CD         6.0200    2.7430   37.1790 C.3   194  PRO194      0.0939
     59  N          5.1670   -2.7600   37.0030 N.3   196  LEU196     -0.1231
     60  CA         5.9320   -3.9050   36.5180 C.3   196  LEU196      0.1693
     61  C          7.0160   -4.3000   37.5110 C.2   196  LEU196      0.2592
     62  O          7.2560   -5.4920   37.7380 O.2   196  LEU196     -0.2718
     63  CB         6.5600   -3.5930   35.1590 C.3   196  LEU196      0.0284
     64  CG         5.6500   -3.4280   33.9440 C.3   196  LEU196      0.0019
     65  CD1        6.4950   -3.2070   32.7020 C.3   196  LEU196      0.0001
     66  CD2        4.7400   -4.6310   33.7770 C.3   196  LEU196      0.0001
     67  N          7.6810   -3.3120   38.1110 N.am  197  PHE197     -0.1976
     68  CA         8.7460   -3.6050   39.0640 C.3   197  PHE197      0.1639
     69  C          8.1990   -4.3060   40.3010 C.2   197  PHE197      0.2290
     70  O          8.7370   -5.3320   40.7310 O.2   197  PHE197     -0.2864
     71  CB         9.4760   -2.3180   39.4470 C.3   197  PHE197      0.0560
     72  CG        10.5000   -2.5020   40.5270 C.ar  197  PHE197     -0.0200
     73  CD1       11.6560   -3.2290   40.2890 C.ar  197  PHE197     -0.0042
     74  CD2       10.3110   -1.9440   41.7790 C.ar  197  PHE197     -0.0042
     75  CE1       12.6000   -3.4000   41.2840 C.ar  197  PHE197     -0.0003
     76  CE2       11.2510   -2.1110   42.7770 C.ar  197  PHE197     -0.0003
     77  CZ        12.3970   -2.8400   42.5290 C.ar  197  PHE197     -0.0000
     78  N          7.1960   -7.7490   39.3650 N.3   200  ALA200     -0.1245
     79  CA         8.3410   -8.6150   39.0960 C.3   200  ALA200      0.1562
     80  C          9.0160   -9.0580   40.3880 C.2   200  ALA200      0.2260
     81  O          9.4570  -10.2080   40.5000 O.2   200  ALA200     -0.2867
     82  CB         9.3380   -7.9010   38.1840 C.3   200  ALA200      0.0290
     83  N         18.6630    1.2580   33.4950 N.3   279  LEU279     -0.1245
     84  CA        17.4390    0.6450   33.9960 C.3   279  LEU279      0.1561
     85  C         17.1140   -0.6260   33.2230 C.2   279  LEU279      0.2260
     86  O         16.6790   -1.6240   33.8070 O.2   279  LEU279     -0.2867
     87  CB        16.2850    1.6440   33.9060 C.3   279  LEU279      0.0270
     88  CG        15.2730    1.7120   35.0500 C.3   279  LEU279      0.0019
     89  CD1       14.2080    2.7510   34.7370 C.3   279  LEU279      0.0001
     90  CD2       14.6410    0.3590   35.2990 C.3   279  LEU279      0.0001
     91  N         17.3300   -4.3960   35.0900 N.3   283  ALA283     -0.1245
     92  CA        16.0150   -5.0120   35.2360 C.3   283  ALA283      0.1562
     93  C         15.9580   -6.3910   34.5940 C.2   283  ALA283      0.2260
     94  O         15.2040   -7.2530   35.0560 O.2   283  ALA283     -0.2867
     95  CB        14.9360   -4.1090   34.6420 C.3   283  ALA283      0.0290
     96  N         15.9200   -9.0710   37.7700 N.3   287  LEU287     -0.1245
     97  CA        14.5570   -9.5950   37.7520 C.3   287  LEU287      0.1561
     98  C         14.4150  -10.7320   36.7470 C.2   287  LEU287      0.2260
     99  O         13.8140  -11.7700   37.0490 O.2   287  LEU287     -0.2867
    100  CB        13.5690   -8.4720   37.4340 C.3   287  LEU287      0.0270
    101  CG        13.5740   -7.2500   38.3520 C.3   287  LEU287      0.0019
    102  CD1       12.6540   -6.1760   37.7960 C.3   287  LEU287      0.0001
    103  CD2       13.1610   -7.6320   39.7650 C.3   287  LEU287      0.0001
    104  N          2.2970   -9.6180   33.5570 N.3   341  LEU341     -0.1245
    105  CA         3.5770   -8.9230   33.4690 C.3   341  LEU341      0.1561
    106  C          4.0310   -8.7960   32.0210 C.2   341  LEU341      0.2260
    107  O          4.4170   -7.7110   31.5730 O.2   341  LEU341     -0.2867
    108  CB         4.6300   -9.6570   34.2990 C.3   341  LEU341      0.0270
    109  CG         6.0810   -9.2120   34.1100 C.3   341  LEU341      0.0019
    110  CD1        6.2820   -7.7990   34.6250 C.3   341  LEU341      0.0001
    111  CD2        7.0270  -10.1770   34.8020 C.3   341  LEU341      0.0001
@<TRIPOS>BOND
     1    17    18    1
     2    19    20    2
     3    19    18    1
     4    18    21    1
     5    23    21    1
     6    24    25    1
     7    21    22    1
     8    12    11    2
     9    11    10    1
    10    26    25    1
    11    26    27    2
    12    25    28    1
    13   107   106    2
    14     9    10    1
    15    28    29    1
    16    10    13    1
    17   106   105    1
    18    50    51    1
    19    50    49    1
    20    65    64    1
    21    30    29   ar
    22    30    32   ar
    23    29    31   ar
    24    49    48    1
    25    13    14    1
    26    85    86    2
    27    85    84    1
    28     4     3    2
    29    35    36    1
    30   105   104    1
    31   105   108    1
    32    83    84    1
    33    32    34   ar
    34     3     2    1
    35    66    64    1
    36    31    33   ar
    37    87    84    1
    38    87    88    1
    39    64    63    1
    40   109   108    1
    41   109   110    1
    42   109   111    1
    43    40    41    1
    44    40    39    1
    45     1     2    1
    46    48    45    1
    47    41    42    1
    48    14    16    1
    49    14    15    1
    50    34    33   ar
    51    44    45    1
    52    93    94    2
    53    93    92    1
    54    95    92    1
    55    89    88    1
    56     2     5    1
    57    36    39    1
    58    36    37    1
    59    45    46    1
    60    88    90    1
    61    91    92    1
    62    63    60    1
    63    37    38    2
    64    42    43    1
    65     5     6    1
    66    46    47    2
    67    46    52   am
    68    60    59    1
    69    60    61    1
    70     6     7    1
    71     6     8    1
    72    98    99    2
    73    98    97    1
    74    58    52    1
    75    58    57    1
    76    52    53    1
    77   100    97    1
    78   100   101    1
    79    61    62    2
    80    61    67   am
    81    97    96    1
    82   102   101    1
    83    67    68    1
    84    82    79    1
    85   101   103    1
    86    57    56    1
    87    53    54    1
    88    53    56    1
    89    54    55    2
    90    68    71    1
    91    68    69    1
    92    79    78    1
    93    79    80    1
    94    71    72    1
    95    73    72   ar
    96    73    75   ar
    97    69    70    2
    98    80    81    2
    99    72    74   ar
   100    75    77   ar
   101    74    76   ar
   102    77    76   ar
