@<TRIPOS>MOLECULE
tmp/5jagA01.pdb
 141 136 0 0 0
SMALL
GASTEIGER

@<TRIPOS>ATOM
      1  N         10.3540   -6.6150   25.1240 N.3    22  LEU22      -0.1245
      2  CA        11.0080   -7.4740   24.1470 C.3    22  LEU22       0.1561
      3  C         11.2950   -8.8730   24.6830 C.2    22  LEU22       0.2260
      4  O         12.0060   -9.6400   24.0240 O.2    22  LEU22      -0.2867
      5  CB        12.3050   -6.8180   23.6600 C.3    22  LEU22       0.0270
      6  CG        12.2210   -5.9170   22.4200 C.3    22  LEU22       0.0019
      7  CD1       10.9520   -5.0780   22.4070 C.3    22  LEU22       0.0001
      8  CD2       13.4460   -5.0190   22.3280 C.3    22  LEU22       0.0001
      9  N         14.7330  -13.9180   27.4480 N.3    27  ARG27      -0.1245
     10  CA        15.7690  -13.9050   26.4210 C.3    27  ARG27       0.1563
     11  C         17.1640  -13.9050   27.0330 C.2    27  ARG27       0.2260
     12  O         18.0460  -14.6510   26.5910 O.2    27  ARG27      -0.2867
     13  CB        15.5750  -12.6880   25.5180 C.3    27  ARG27       0.0307
     14  CG        16.6720  -12.4750   24.5000 C.3    27  ARG27       0.0489
     15  CD        16.4980  -11.1350   23.8120 C.3    27  ARG27       0.2205
     16  NE        15.1540  -10.9870   23.2630 N.pl3  27  ARG27      -0.0865
     17  CZ        14.7880  -11.4260   22.0640 C.cat  27  ARG27       0.5346
     18  NH1       13.5430  -11.2520   21.6420 N.pl3  27  ARG27       0.1354
     19  NH2       15.6700  -12.0410   21.2880 N.pl3  27  ARG27       0.1354
     20  N          7.7250   -5.1690   12.5300 N.3   101  VAL101     -0.1245
     21  CA         7.7300   -5.7780   13.8580 C.3   101  VAL101      0.1561
     22  C          6.3460   -5.6870   14.4900 C.2   101  VAL101      0.2260
     23  O          5.8450   -6.6620   15.0630 O.2   101  VAL101     -0.2867
     24  CB         8.8090   -5.1260   14.7420 C.3   101  VAL101      0.0252
     25  CG1        8.6350   -5.5490   16.1910 C.3   101  VAL101      0.0019
     26  CG2       10.1950   -5.5090   14.2440 C.3   101  VAL101      0.0019
     27  N          3.5660   -8.3660   13.6100 N.3   104  TYR104     -0.1227
     28  CA         3.5090   -9.6360   14.3160 C.3   104  TYR104      0.1736
     29  C          3.6740   -9.5200   15.8240 C.2   104  TYR104      0.2595
     30  O          3.3150  -10.4630   16.5350 O.2   104  TYR104     -0.2718
     31  CB         4.5640  -10.6100   13.7670 C.3   104  TYR104      0.0548
     32  CG         6.0100  -10.2600   14.0560 C.ar  104  TYR104     -0.0200
     33  CD1        6.6320  -10.6910   15.2220 C.ar  104  TYR104     -0.0009
     34  CD2        6.7650   -9.5360   13.1420 C.ar  104  TYR104     -0.0009
     35  CE1        7.9560  -10.3880   15.4820 C.ar  104  TYR104      0.0417
     36  CE2        8.0910   -9.2310   13.3930 C.ar  104  TYR104      0.0417
     37  CZ         8.6800   -9.6580   14.5640 C.ar  104  TYR104      0.1957
     38  OH         9.9980   -9.3560   14.8190 O.3   104  TYR104     -0.2866
     39  N          4.1850   -8.3970   16.3350 N.am  105  TYR105     -0.1976
     40  CA         4.4280   -8.3020   17.7720 C.3   105  TYR105      0.1639
     41  C          3.1340   -8.0970   18.5510 C.2   105  TYR105      0.2290
     42  O          2.8920   -8.7800   19.5520 O.2   105  TYR105     -0.2864
     43  CB         5.4090   -7.1720   18.0810 C.3   105  TYR105      0.0560
     44  CG         5.7130   -7.0580   19.5540 C.ar  105  TYR105     -0.0198
     45  CD1        6.6540   -7.8850   20.1520 C.ar  105  TYR105     -0.0009
     46  CD2        5.0490   -6.1330   20.3520 C.ar  105  TYR105     -0.0009
     47  CE1        6.9310   -7.7900   21.4990 C.ar  105  TYR105      0.0417
     48  CE2        5.3200   -6.0320   21.7000 C.ar  105  TYR105      0.0417
     49  CZ         6.2620   -6.8620   22.2670 C.ar  105  TYR105      0.1957
     50  OH         6.5390   -6.7670   23.6070 O.3   105  TYR105     -0.2866
     51  N          1.4550  -11.2070   19.1110 N.3   108  ILE108     -0.1245
     52  CA         2.0900  -11.9810   20.1720 C.3   108  ILE108      0.1561
     53  C          1.7570  -11.3840   21.5310 C.2   108  ILE108      0.2260
     54  O          1.4760  -12.1080   22.4930 O.2   108  ILE108     -0.2867
     55  CB         3.6100  -12.0550   19.9420 C.3   108  ILE108      0.0252
     56  CG1        3.9150  -12.8260   18.6590 C.3   108  ILE108      0.0019
     57  CG2        4.3060  -12.7010   21.1320 C.3   108  ILE108      0.0019
     58  CD1        5.3850  -12.9400   18.3600 C.3   108  ILE108      0.0001
     59  N         -1.4330  -12.5570   22.7910 N.3   111  TRP111     -0.1241
     60  CA        -1.4200  -13.8850   23.3980 C.3   111  TRP111      0.1605
     61  C         -1.3020  -13.7880   24.9130 C.2   111  TRP111      0.2264
     62  O         -2.0220  -14.4750   25.6480 O.2   111  TRP111     -0.2867
     63  CB        -0.2710  -14.7220   22.8350 C.3   111  TRP111      0.0550
     64  CG        -0.3010  -14.9370   21.3530 C.ar  111  TRP111      0.0003
     65  CD1       -1.3320  -14.6710   20.4980 C.ar  111  TRP111      0.0946
     66  CD2        0.7610  -15.4630   20.5500 C.ar  111  TRP111      0.0152
     67  NE1       -0.9760  -14.9990   19.2120 N.ar  111  TRP111     -0.2442
     68  CE2        0.3050  -15.4890   19.2180 C.ar  111  TRP111      0.0810
     69  CE3        2.0540  -15.9170   20.8300 C.ar  111  TRP111      0.0012
     70  CZ2        1.0960  -15.9510   18.1670 C.ar  111  TRP111      0.0191
     71  CZ3        2.8380  -16.3720   19.7880 C.ar  111  TRP111      0.0001
     72  CH2        2.3570  -16.3850   18.4720 C.ar  111  TRP111      0.0015
     73  N         18.5350   -6.0210   22.0190 N.3   247  PHE247     -0.1241
     74  CA        17.2230   -6.2680   22.6020 C.3   247  PHE247      0.1605
     75  C         17.0600   -5.6880   24.0010 C.2   247  PHE247      0.2264
     76  O         15.9530   -5.2670   24.3550 O.2   247  PHE247     -0.2867
     77  CB        16.9330   -7.7710   22.6410 C.3   247  PHE247      0.0534
     78  CG        16.7500   -8.3900   21.2820 C.ar  247  PHE247     -0.0203
     79  CD1       15.5170   -8.3530   20.6490 C.ar  247  PHE247     -0.0042
     80  CD2       17.8080   -9.0100   20.6380 C.ar  247  PHE247     -0.0042
     81  CE1       15.3450   -8.9220   19.3990 C.ar  247  PHE247     -0.0003
     82  CE2       17.6420   -9.5820   19.3900 C.ar  247  PHE247     -0.0003
     83  CZ        16.4080   -9.5380   18.7700 C.ar  247  PHE247     -0.0000
     84  N         15.5060   -0.4530   16.2780 N.3   253  PHE253     -0.1241
     85  CA        14.0850   -0.6460   16.0190 C.3   253  PHE253      0.1605
     86  C         13.3770    0.6380   15.6090 C.2   253  PHE253      0.2264
     87  O         12.1660    0.6070   15.3640 O.2   253  PHE253     -0.2867
     88  CB        13.4000   -1.2400   17.2550 C.3   253  PHE253      0.0534
     89  CG        13.7320   -2.6870   17.4990 C.ar  253  PHE253     -0.0203
     90  CD1       14.9220   -3.0480   18.1120 C.ar  253  PHE253     -0.0042
     91  CD2       12.8500   -3.6870   17.1200 C.ar  253  PHE253     -0.0042
     92  CE1       15.2290   -4.3790   18.3370 C.ar  253  PHE253     -0.0003
     93  CE2       13.1510   -5.0200   17.3430 C.ar  253  PHE253     -0.0003
     94  CZ        14.3420   -5.3660   17.9510 C.ar  253  PHE253     -0.0000
     95  N         11.2750  -18.5450   24.2260 N.3   314  PHE314     -0.1227
     96  CA         9.8310  -18.4780   24.0220 C.3   314  PHE314      0.1736
     97  C          9.1270  -19.6880   24.6220 C.2   314  PHE314      0.2595
     98  O          8.0700  -19.5470   25.2500 O.2   314  PHE314     -0.2718
     99  CB         9.5080  -18.3620   22.5330 C.3   314  PHE314      0.0547
    100  CG         8.0360  -18.2770   22.2410 C.ar  314  PHE314     -0.0202
    101  CD1        7.3850  -17.0550   22.2530 C.ar  314  PHE314     -0.0042
    102  CD2        7.3010  -19.4190   21.9620 C.ar  314  PHE314     -0.0042
    103  CE1        6.0300  -16.9730   21.9880 C.ar  314  PHE314     -0.0003
    104  CE2        5.9480  -19.3430   21.6990 C.ar  314  PHE314     -0.0003
    105  CZ         5.3110  -18.1190   21.7120 C.ar  314  PHE314     -0.0000
    106  N          9.6850  -20.8850   24.4240 N.am  315  ASN315     -0.1974
    107  CA         9.1050  -22.0790   25.0310 C.3   315  ASN315      0.1688
    108  C          9.1030  -21.9840   26.5490 C.2   315  ASN315      0.2292
    109  O          8.2190  -22.5440   27.2070 O.2   315  ASN315     -0.2864
    110  CB         9.8740  -23.3220   24.5840 C.3   315  ASN315      0.1181
    111  CG         9.8490  -23.5140   23.0840 C.2   315  ASN315      0.2629
    112  OD1        8.8220  -23.3080   22.4390 O.2   315  ASN315     -0.2716
    113  ND2       10.9850  -23.9030   22.5190 N.am  315  ASN315     -0.0877
    114  N          5.2490  -15.4260   10.6420 N.3   394  LEU394     -0.1231
    115  CA         5.8220  -14.6840   11.7600 C.3   394  LEU394      0.1693
    116  C          7.3400  -14.8040   11.7730 C.2   394  LEU394      0.2592
    117  O          8.0490  -13.8140   11.9890 O.2   394  LEU394     -0.2718
    118  CB         5.2260  -15.1960   13.0740 C.3   394  LEU394      0.0284
    119  CG         5.5050  -14.4990   14.4090 C.3   394  LEU394      0.0019
    120  CD1        4.3930  -14.8350   15.3850 C.3   394  LEU394      0.0001
    121  CD2        6.8520  -14.9000   14.9970 C.3   394  LEU394      0.0001
    122  N          7.8550  -16.0130   11.5430 N.am  395  ASP395     -0.1974
    123  CA         9.2980  -16.2260   11.5580 C.3   395  ASP395      0.1709
    124  C          9.9890  -15.3940   10.4880 C.2   395  ASP395      0.2293
    125  O         11.0490  -14.8060   10.7370 O.2   395  ASP395     -0.2864
    126  CB         9.6040  -17.7100   11.3600 C.3   395  ASP395      0.1436
    127  CG         8.6550  -18.6070   12.1320 C.2   395  ASP395      0.3671
    128  OD1        7.5090  -18.1800   12.3920 O.co2 395  ASP395     -0.2456
    129  OD2        9.0520  -19.7410   12.4750 O.co2 395  ASP395     -0.2456
    130  N         10.0840  -11.7870   11.5450 N.3   398  ASP398     -0.1239
    131  CA        10.9850  -11.6520   12.6850 C.3   398  ASP398      0.1674
    132  C         12.4440  -11.7630   12.2610 C.2   398  ASP398      0.2266
    133  O         13.3310  -11.2220   12.9320 O.2   398  ASP398     -0.2867
    134  CB        10.6470  -12.7110   13.7390 C.3   398  ASP398      0.1410
    135  CG        11.5650  -12.6590   14.9460 C.2   398  ASP398      0.3668
    136  OD1       11.8330  -11.5500   15.4570 O.co2 398  ASP398     -0.2456
    137  OD2       12.0180  -13.7360   15.3850 O.co2 398  ASP398     -0.2456
    138  N         13.2360   -8.0920   12.5950 N.3   402  GLY402     -0.1225
    139  CA        13.6270   -8.1730   13.9900 C.3   402  GLY402      0.1811
    140  C         15.0740   -8.5710   14.1950 C.2   402  GLY402      0.2280
    141  O         15.7170   -8.1160   15.1460 O.2   402  GLY402     -0.2866
@<TRIPOS>BOND
     1   124   125    2
     2   124   123    1
     3   114   115    1
     4   126   123    1
     5   126   127    1
     6   122   123    1
     7   122   116   am
     8   130   131    1
     9   115   116    1
    10   115   118    1
    11   116   117    2
    12   127   128   ar
    13   127   129   ar
    14   132   131    1
    15   132   133    2
    16    20    21    1
    17   138   139    1
    18   131   134    1
    19   118   119    1
    20    34    36   ar
    21    34    32   ar
    22    36    37   ar
    23    27    28    1
    24   134   135    1
    25    31    32    1
    26    31    28    1
    27    21    22    1
    28    21    24    1
    29   139   140    1
    30    32    33   ar
    31   140   141    2
    32    26    24    1
    33    28    29    1
    34   119   121    1
    35   119   120    1
    36    22    23    2
    37    37    38    1
    38    37    35   ar
    39    24    25    1
    40   135   137   ar
    41   135   136   ar
    42    33    35   ar
    43    87    86    2
    44    86    85    1
    45    29    39   am
    46    29    30    2
    47    85    84    1
    48    85    88    1
    49    39    40    1
    50    91    93   ar
    51    91    89   ar
    52    88    89    1
    53    93    94   ar
    54    89    90   ar
    55    40    43    1
    56    40    41    1
    57    94    92   ar
    58    43    44    1
    59    90    92   ar
    60    70    72   ar
    61    70    68   ar
    62    58    56    1
    63    72    71   ar
    64    41    42    2
    65    56    55    1
    66    83    82   ar
    67    83    81   ar
    68    51    52    1
    69    67    68   ar
    70    67    65   ar
    71    68    66   ar
    72    82    80   ar
    73    81    79   ar
    74    44    45   ar
    75    44    46   ar
    76    71    69   ar
    77    55    52    1
    78    55    57    1
    79    45    47   ar
    80    52    53    1
    81    46    48   ar
    82    65    64   ar
    83    66    69   ar
    84    66    64   ar
    85    80    78   ar
    86    79    78   ar
    87    78    77    1
    88    19    17    1
    89    64    63    1
    90    47    49   ar
    91    53    54    2
    92    18    17    1
    93   104   105   ar
    94   104   102   ar
    95    48    49   ar
    96   105   103   ar
    97   102   100   ar
    98   103   101   ar
    99    73    74    1
   100    17    16    2
   101   100   101   ar
   102   100    99    1
   103    49    50    1
   104     8     6    1
   105     7     6    1
   106     6     5    1
   107   112   111    2
   108   113   111   am
   109    99    96    1
   110    74    77    1
   111    74    75    1
   112    59    60    1
   113    63    60    1
   114   111   110    1
   115    16    15    1
   116    60    61    1
   117     5     2    1
   118    15    14    1
   119    75    76    2
   120    96    95    1
   121    96    97    1
   122     4     3    2
   123     2     3    1
   124     2     1    1
   125   106    97   am
   126   106   107    1
   127    14    13    1
   128   110   107    1
   129    97    98    2
   130    61    62    2
   131   107   108    1
   132    13    10    1
   133    10    11    1
   134    10     9    1
   135   108   109    2
   136    12    11    2
