@<TRIPOS>MOLECULE
tmp/5jagA00.pdb
 140 132 0 0 0
SMALL
GASTEIGER

@<TRIPOS>ATOM
      1  N          9.4530   -4.9010   27.0750 N.3    21  GLY21      -0.1210
      2  CA         8.4790   -5.7210   26.3890 C.3    21  GLY21       0.1956
      3  C          9.0500   -6.6820   25.3770 C.2    21  GLY21       0.2612
      4  O          8.3100   -7.4990   24.8220 O.2    21  GLY21      -0.2717
      5  N         10.3540   -6.6150   25.1240 N.am   22  LEU22      -0.1965
      6  CA        11.0080   -7.4740   24.1470 C.3    22  LEU22       0.1728
      7  C         11.2950   -8.8730   24.6830 C.2    22  LEU22       0.2616
      8  O         12.0060   -9.6400   24.0240 O.2    22  LEU22      -0.2715
      9  CB        12.3050   -6.8180   23.6600 C.3    22  LEU22       0.0311
     10  CG        12.2210   -5.9170   22.4200 C.3    22  LEU22       0.0022
     11  CD1       10.9520   -5.0780   22.4070 C.3    22  LEU22       0.0001
     12  CD2       13.4460   -5.0190   22.3280 C.3    22  LEU22       0.0001
     13  N         10.7650   -9.2180   25.8550 N.am   23  GLY23      -0.1955
     14  CA        10.9250  -10.5570   26.3890 C.3    23  GLY23       0.1869
     15  C         12.2890  -10.8620   26.9600 C.2    23  GLY23       0.2309
     16  O         12.7250  -12.0170   26.9160 O.2    23  GLY23      -0.2863
     17  N         13.0190  -13.6590   29.6490 N.3    26  LEU26      -0.1231
     18  CA        13.3040  -14.9820   29.1110 C.3    26  LEU26       0.1693
     19  C         14.5290  -14.9920   28.2120 C.2    26  LEU26       0.2591
     20  O         15.2910  -15.9630   28.2160 O.2    26  LEU26      -0.2718
     21  CB        12.1030  -15.4960   28.3140 C.3    26  LEU26       0.0284
     22  CG        10.7450  -15.4720   29.0100 C.3    26  LEU26       0.0019
     23  CD1        9.6290  -15.4950   27.9810 C.3    26  LEU26       0.0001
     24  CD2       10.6310  -16.6510   29.9550 C.3    26  LEU26       0.0001
     25  N         14.7330  -13.9180   27.4480 N.am   27  ARG27      -0.1980
     26  CA        15.7690  -13.9050   26.4210 C.3    27  ARG27       0.1597
     27  C         17.1640  -13.9050   27.0330 C.2    27  ARG27       0.2287
     28  O         18.0460  -14.6510   26.5910 O.2    27  ARG27      -0.2864
     29  CB        15.5750  -12.6880   25.5180 C.3    27  ARG27       0.0334
     30  CG        16.6720  -12.4750   24.5000 C.3    27  ARG27       0.0492
     31  CD        16.4980  -11.1350   23.8120 C.3    27  ARG27       0.2205
     32  NE        15.1540  -10.9870   23.2630 N.pl3  27  ARG27      -0.0865
     33  CZ        14.7880  -11.4260   22.0640 C.cat  27  ARG27       0.5346
     34  NH1       13.5430  -11.2520   21.6420 N.pl3  27  ARG27       0.1354
     35  NH2       15.6700  -12.0410   21.2880 N.pl3  27  ARG27       0.1354
     36  N          4.1850   -8.3970   16.3350 N.3   105  TYR105     -0.1241
     37  CA         4.4280   -8.3020   17.7720 C.3   105  TYR105      0.1605
     38  C          3.1340   -8.0970   18.5510 C.2   105  TYR105      0.2264
     39  O          2.8920   -8.7800   19.5520 O.2   105  TYR105     -0.2867
     40  CB         5.4090   -7.1720   18.0810 C.3   105  TYR105      0.0534
     41  CG         5.7130   -7.0580   19.5540 C.ar  105  TYR105     -0.0201
     42  CD1        6.6540   -7.8850   20.1520 C.ar  105  TYR105     -0.0009
     43  CD2        5.0490   -6.1330   20.3520 C.ar  105  TYR105     -0.0009
     44  CE1        6.9310   -7.7900   21.4990 C.ar  105  TYR105      0.0417
     45  CE2        5.3200   -6.0320   21.7000 C.ar  105  TYR105      0.0417
     46  CZ         6.2620   -6.8620   22.2670 C.ar  105  TYR105      0.1957
     47  OH         6.5390   -6.7670   23.6070 O.3   105  TYR105     -0.2866
     48  N          1.4550  -11.2070   19.1110 N.3   108  ILE108     -0.1231
     49  CA         2.0900  -11.9810   20.1720 C.3   108  ILE108      0.1692
     50  C          1.7570  -11.3840   21.5310 C.2   108  ILE108      0.2591
     51  O          1.4760  -12.1080   22.4930 O.2   108  ILE108     -0.2718
     52  CB         3.6100  -12.0550   19.9420 C.3   108  ILE108      0.0266
     53  CG1        3.9150  -12.8260   18.6590 C.3   108  ILE108      0.0019
     54  CG2        4.3060  -12.7010   21.1320 C.3   108  ILE108      0.0020
     55  CD1        5.3850  -12.9400   18.3600 C.3   108  ILE108      0.0001
     56  N          1.7810  -10.0530   21.6290 N.am  109  GLU109     -0.1979
     57  CA         1.3650   -9.3850   22.8570 C.3   109  GLU109      0.1602
     58  C         -0.0740   -9.7360   23.2170 C.2   109  GLU109      0.2287
     59  O         -0.4110   -9.8670   24.4000 O.2   109  GLU109     -0.2864
     60  CB         1.5350   -7.8760   22.7010 C.3   109  GLU109      0.0415
     61  CG         0.7940   -7.0420   23.7260 C.3   109  GLU109      0.1163
     62  CD         0.9360   -5.5630   23.4540 C.2   109  GLU109      0.3649
     63  OE1        2.0860   -5.0900   23.3610 O.co2 109  GLU109     -0.2457
     64  OE2       -0.0970   -4.8780   23.3120 O.co2 109  GLU109     -0.2457
     65  N         -0.3950  -12.9360   25.3990 N.3   112  THR112     -0.1218
     66  CA        -0.2020  -12.8060   26.8410 C.3   112  THR112      0.1862
     67  C         -1.4600  -12.2830   27.5200 C.2   112  THR112      0.2287
     68  O         -1.7840  -12.6920   28.6410 O.2   112  THR112     -0.2866
     69  CB         0.9850  -11.8920   27.1360 C.3   112  THR112      0.1770
     70  OG1        0.7400  -10.5960   26.5780 O.3   112  THR112     -0.2211
     71  CG2        2.2550  -12.4670   26.5290 C.3   112  THR112      0.0375
     72  N         18.5350   -6.0210   22.0190 N.3   247  PHE247     -0.1241
     73  CA        17.2230   -6.2680   22.6020 C.3   247  PHE247      0.1605
     74  C         17.0600   -5.6880   24.0010 C.2   247  PHE247      0.2264
     75  O         15.9530   -5.2670   24.3550 O.2   247  PHE247     -0.2867
     76  CB        16.9330   -7.7710   22.6410 C.3   247  PHE247      0.0534
     77  CG        16.7500   -8.3900   21.2820 C.ar  247  PHE247     -0.0203
     78  CD1       15.5170   -8.3530   20.6490 C.ar  247  PHE247     -0.0042
     79  CD2       17.8080   -9.0100   20.6380 C.ar  247  PHE247     -0.0042
     80  CE1       15.3450   -8.9220   19.3990 C.ar  247  PHE247     -0.0003
     81  CE2       17.6420   -9.5820   19.3900 C.ar  247  PHE247     -0.0003
     82  CZ        16.4080   -9.5380   18.7700 C.ar  247  PHE247     -0.0000
     83  N         14.8380  -22.9200   24.3860 N.3   312  GLY312     -0.1210
     84  CA        14.6570  -21.5570   23.9320 C.3   312  GLY312      0.1956
     85  C         13.8730  -20.7180   24.9260 C.2   312  GLY312      0.2612
     86  O         13.2400  -21.2150   25.8580 O.2   312  GLY312     -0.2717
     87  N         13.9190  -19.4050   24.6840 N.am  313  ALA313     -0.1965
     88  CA        13.3020  -18.4530   25.6000 C.3   313  ALA313      0.1728
     89  C         11.7840  -18.4380   25.4580 C.2   313  ALA313      0.2616
     90  O         11.0660  -18.3260   26.4580 O.2   313  ALA313     -0.2715
     91  CB        13.8780  -17.0570   25.3650 C.3   313  ALA313      0.0334
     92  N         11.2750  -18.5450   24.2260 N.am  314  PHE314     -0.1974
     93  CA         9.8310  -18.4780   24.0220 C.3   314  PHE314      0.1639
     94  C          9.1270  -19.6880   24.6220 C.2   314  PHE314      0.2290
     95  O          8.0700  -19.5470   25.2500 O.2   314  PHE314     -0.2864
     96  CB         9.5080  -18.3620   22.5330 C.3   314  PHE314      0.0560
     97  CG         8.0360  -18.2770   22.2410 C.ar  314  PHE314     -0.0200
     98  CD1        7.3850  -17.0550   22.2530 C.ar  314  PHE314     -0.0042
     99  CD2        7.3010  -19.4190   21.9620 C.ar  314  PHE314     -0.0042
    100  CE1        6.0300  -16.9730   21.9880 C.ar  314  PHE314     -0.0003
    101  CE2        5.9480  -19.3430   21.6990 C.ar  314  PHE314     -0.0003
    102  CZ         5.3110  -18.1190   21.7120 C.ar  314  PHE314     -0.0000
    103  N          5.9760  -19.4890   27.4770 N.3   318  PHE318     -0.1241
    104  CA         4.6340  -19.8300   27.0310 C.3   318  PHE318      0.1605
    105  C          4.2820  -21.3010   27.1960 C.2   318  PHE318      0.2264
    106  O          3.1130  -21.6590   27.0140 O.2   318  PHE318     -0.2867
    107  CB         4.4400  -19.4250   25.5600 C.3   318  PHE318      0.0534
    108  CG         4.3350  -17.9400   25.3500 C.ar  318  PHE318     -0.0203
    109  CD1        5.4690  -17.1420   25.3640 C.ar  318  PHE318     -0.0042
    110  CD2        3.1030  -17.3400   25.1440 C.ar  318  PHE318     -0.0042
    111  CE1        5.3750  -15.7750   25.1740 C.ar  318  PHE318     -0.0003
    112  CE2        3.0040  -15.9730   24.9520 C.ar  318  PHE318     -0.0003
    113  CZ         4.1420  -15.1900   24.9670 C.ar  318  PHE318     -0.0000
    114  N          3.9880   -9.9020   31.2710 N.3   342  LEU342     -0.1245
    115  CA         4.4320   -9.8740   29.8810 C.3   342  LEU342      0.1561
    116  C          3.5610   -8.9520   29.0380 C.2   342  LEU342      0.2260
    117  O          4.0590   -8.2690   28.1350 O.2   342  LEU342     -0.2867
    118  CB         4.4350  -11.2870   29.2970 C.3   342  LEU342      0.0270
    119  CG         5.4930  -12.2550   29.8290 C.3   342  LEU342      0.0019
    120  CD1        5.4420  -13.5810   29.0800 C.3   342  LEU342      0.0001
    121  CD2        6.8780  -11.6360   29.7340 C.3   342  LEU342      0.0001
    122  N          4.9970   -5.7270   27.4030 N.3   346  GLY346     -0.1225
    123  CA         4.9020   -5.6120   25.9590 C.3   346  GLY346      0.1811
    124  C          4.1250   -4.3930   25.5090 C.2   346  GLY346      0.2280
    125  O          4.3740   -3.8580   24.4250 O.2   346  GLY346     -0.2866
    126  N         10.0840  -11.7870   11.5450 N.3   398  ASP398     -0.1239
    127  CA        10.9850  -11.6520   12.6850 C.3   398  ASP398      0.1674
    128  C         12.4440  -11.7630   12.2610 C.2   398  ASP398      0.2266
    129  O         13.3310  -11.2220   12.9320 O.2   398  ASP398     -0.2867
    130  CB        10.6470  -12.7110   13.7390 C.3   398  ASP398      0.1410
    131  CG        11.5650  -12.6590   14.9460 C.2   398  ASP398      0.3668
    132  OD1       11.8330  -11.5500   15.4570 O.co2 398  ASP398     -0.2456
    133  OD2       12.0180  -13.7360   15.3850 O.co2 398  ASP398     -0.2456
    134  N         15.6080   -9.4160   13.3180 N.3   403  THR403     -0.1218
    135  CA        16.9560   -9.9330   13.5140 C.3   403  THR403      0.1862
    136  C         17.9780   -9.1490   12.7020 C.2   403  THR403      0.2287
    137  O         18.7230   -8.3320   13.2530 O.2   403  THR403     -0.2866
    138  CB        17.0160  -11.4140   13.1440 C.3   403  THR403      0.1770
    139  OG1       15.9710  -12.1180   13.8260 O.3   403  THR403     -0.2211
    140  CG2       18.3590  -12.0020   13.5440 C.3   403  THR403      0.0375
@<TRIPOS>BOND
     1   126   127    1
     2   128   127    1
     3   128   129    2
     4   127   130    1
     5   136   137    2
     6   136   135    1
     7   138   135    1
     8   138   140    1
     9   138   139    1
    10   134   135    1
    11   130   131    1
    12   131   133   ar
    13   131   132   ar
    14    36    37    1
    15    37    40    1
    16    37    38    1
    17    40    41    1
    18    55    53    1
    19    38    39    2
    20    53    52    1
    21    82    81   ar
    22    82    80   ar
    23    48    49    1
    24    81    79   ar
    25    80    78   ar
    26    41    42   ar
    27    41    43   ar
    28    52    49    1
    29    52    54    1
    30    42    44   ar
    31    49    50    1
    32    43    45   ar
    33    79    77   ar
    34    78    77   ar
    35    77    76    1
    36    35    33    1
    37    44    46   ar
    38    50    56   am
    39    50    51    2
    40    56    57    1
    41    34    33    1
    42   101   102   ar
    43   101    99   ar
    44    45    46   ar
    45   102   100   ar
    46    99    97   ar
    47   100    98   ar
    48    72    73    1
    49    33    32    2
    50    97    98   ar
    51    97    96    1
    52    46    47    1
    53    12    10    1
    54    11    10    1
    55    10     9    1
    56    96    93    1
    57    73    76    1
    58    73    74    1
    59    60    57    1
    60    60    61    1
    61    57    58    1
    62    58    59    2
    63    32    31    1
    64    64    62   ar
    65    63    62   ar
    66    62    61    1
    67     9     6    1
    68    31    30    1
    69    84    83    1
    70    84    85    1
    71    74    75    2
    72    93    92    1
    73    93    94    1
    74     8     7    2
    75     6     7    1
    76     6     5    1
    77    92    89   am
    78   125   124    2
    79    30    29    1
    80    94    95    2
    81     7    13   am
    82    87    85   am
    83    87    88    1
    84     4     3    2
    85    85    86    2
    86   112   113   ar
    87   112   110   ar
    88   113   111   ar
    89     5     3   am
    90   110   108   ar
    91   111   109   ar
    92   108   109   ar
    93   108   107    1
    94    91    88    1
    95     3     2    1
    96    65    66    1
    97    89    88    1
    98    89    90    2
    99   124   123    1
   100    29    26    1
   101   107   104    1
   102    13    14    1
   103   123   122    1
   104    14    15    1
   105     2     1    1
   106    26    27    1
   107    26    25    1
   108    71    69    1
   109    70    69    1
   110    28    27    2
   111    66    69    1
   112    66    67    1
   113    16    15    2
   114   106   105    2
   115   104   105    1
   116   104   103    1
   117    25    19   am
   118    67    68    2
   119    23    22    1
   120   117   116    2
   121    19    20    2
   122    19    18    1
   123    21    22    1
   124    21    18    1
   125    22    24    1
   126   116   115    1
   127   120   119    1
   128    18    17    1
   129   118   119    1
   130   118   115    1
   131   121   119    1
   132   115   114    1
