@<TRIPOS>MOLECULE
tmp/5jahA00.pdb
 94 95 0 0 0
SMALL
GASTEIGER

@<TRIPOS>ATOM
      1  N         22.7520    4.0800  -12.5130 N.3    56  PHE56      -0.1241
      2  CA        23.0490    3.5630  -11.1580 C.3    56  PHE56       0.1605
      3  C         21.8920    2.6560  -10.6260 C.2    56  PHE56       0.2264
      4  O         22.1570    1.6510   -9.9490 O.2    56  PHE56      -0.2867
      5  CB        23.3400    4.7110  -10.1810 C.3    56  PHE56       0.0534
      6  CG        23.5470    4.3380   -8.7300 C.ar   56  PHE56      -0.0203
      7  CD1       24.5700    3.4730   -8.3550 C.ar   56  PHE56      -0.0042
      8  CD2       22.7190    4.8540   -7.7360 C.ar   56  PHE56      -0.0042
      9  CE1       24.7750    3.1350   -7.0020 C.ar   56  PHE56      -0.0003
     10  CE2       22.9180    4.5200   -6.3840 C.ar   56  PHE56      -0.0003
     11  CZ        23.9520    3.6600   -6.0260 C.ar   56  PHE56      -0.0000
     12  N         29.3380    9.2890   -2.0500 N.3    98  GLY98      -0.1210
     13  CA        29.2450    7.8490   -2.2750 C.3    98  GLY98       0.1956
     14  C         29.1960    7.4410   -3.7330 C.2    98  GLY98       0.2611
     15  O         29.1690    8.2820   -4.6470 O.2    98  GLY98      -0.2717
     16  N         29.2130    6.1140   -3.9470 N.am   99  LEU99      -0.1979
     17  CA        28.9910    5.4850   -5.2330 C.3    99  LEU99       0.1596
     18  C         27.5970    5.8490   -5.7500 C.2    99  LEU99       0.2287
     19  O         26.6130    5.7470   -5.0170 O.2    99  LEU99      -0.2864
     20  CB        29.1380    3.9480   -5.0920 C.3    99  LEU99       0.0297
     21  CG        28.9530    3.0910   -6.3250 C.3    99  LEU99       0.0022
     22  CD1       30.1090    3.3280   -7.3230 C.3    99  LEU99       0.0001
     23  CD2       28.9000    1.6120   -5.9130 C.3    99  LEU99       0.0001
     24  N         30.7130    9.9740    2.8610 N.3   218  HIS218     -0.1226
     25  CA        29.7190    8.9200    3.0840 C.3   218  HIS218      0.1752
     26  C         30.0010    7.6980    2.2190 C.2   218  HIS218      0.2597
     27  O         30.2380    7.8430    1.0100 O.2   218  HIS218     -0.2718
     28  CB        28.2780    9.4640    2.7980 C.3   218  HIS218      0.0759
     29  CG        27.1790    8.4270    2.8260 C.ar  218  HIS218      0.0818
     30  ND1       26.4100    8.1540    1.7030 N.ar  218  HIS218     -0.2268
     31  CD2       26.7540    7.6440    3.8510 C.ar  218  HIS218      0.1154
     32  CE1       25.5570    7.2190    2.0730 C.ar  218  HIS218      0.1986
     33  NE2       25.7300    6.8720    3.3580 N.ar  218  HIS218     -0.2212
     34  N         29.9440    6.4960    2.8410 N.am  219  SER219     -0.1938
     35  CA        29.9830    5.1880    2.1640 C.3   219  SER219      0.2055
     36  C         31.3280    4.9990    1.4150 C.2   219  SER219      0.2643
     37  O         32.3630    4.8070    2.0750 O.2   219  SER219     -0.2714
     38  CB        28.7920    5.0530    1.2220 C.3   219  SER219      0.2130
     39  OG        28.5870    3.6970    0.8540 O.3   219  SER219     -0.2179
     40  N         31.3280    5.0570    0.0490 N.am  220  PHE220     -0.1973
     41  CA        32.5980    5.0990   -0.6990 C.3   220  PHE220      0.1639
     42  C         33.4330    6.3080   -0.2290 C.2   220  PHE220      0.2290
     43  O         34.6770    6.2580   -0.1530 O.2   220  PHE220     -0.2864
     44  CB        32.3400    5.1980   -2.2410 C.3   220  PHE220      0.0560
     45  CG        33.4150    4.5740   -3.1120 C.ar  220  PHE220     -0.0200
     46  CD1       34.7150    4.3820   -2.6280 C.ar  220  PHE220     -0.0042
     47  CD2       33.1380    4.1890   -4.4220 C.ar  220  PHE220     -0.0042
     48  CE1       35.7040    3.8090   -3.4290 C.ar  220  PHE220     -0.0003
     49  CE2       34.1280    3.5940   -5.2190 C.ar  220  PHE220     -0.0003
     50  CZ        35.4060    3.4060   -4.7180 C.ar  220  PHE220     -0.0000
     51  N         31.9400    2.4200    3.6060 N.3   244  TRP244     -0.1241
     52  CA        32.0810    1.1510    2.9320 C.3   244  TRP244      0.1605
     53  C         33.5780    0.8580    2.7930 C.2   244  TRP244      0.2264
     54  O         34.2660    1.5260    2.0200 O.2   244  TRP244     -0.2867
     55  CB        31.4090    1.2630    1.5670 C.3   244  TRP244      0.0550
     56  CG        31.4690    0.0310    0.7320 C.ar  244  TRP244      0.0003
     57  CD1       31.1050   -1.2360    1.0950 C.ar  244  TRP244      0.0946
     58  CD2       31.8950   -0.0430   -0.6290 C.ar  244  TRP244      0.0152
     59  NE1       31.2870   -2.0980    0.0420 N.ar  244  TRP244     -0.2442
     60  CE2       31.7620   -1.3910   -1.0380 C.ar  244  TRP244      0.0810
     61  CE3       32.3530    0.9110   -1.5620 C.ar  244  TRP244      0.0012
     62  CZ2       32.0470   -1.8120   -2.3430 C.ar  244  TRP244      0.0191
     63  CZ3       32.6580    0.4790   -2.8550 C.ar  244  TRP244      0.0001
     64  CH2       32.5020   -0.8680   -3.2280 C.ar  244  TRP244      0.0015
     65  N         22.6130   -0.5870    7.6080 N.3   268  PHE268     -0.1241
     66  CA        23.6380   -0.8790    6.5870 C.3   268  PHE268      0.1605
     67  C         24.6670   -1.9040    7.0180 C.2   268  PHE268      0.2264
     68  O         24.9970   -2.7760    6.2210 O.2   268  PHE268     -0.2867
     69  CB        24.3360    0.3870    6.0930 C.3   268  PHE268      0.0534
     70  CG        25.4130    0.1650    5.0380 C.ar  268  PHE268     -0.0203
     71  CD1       25.0710   -0.2300    3.7390 C.ar  268  PHE268     -0.0042
     72  CD2       26.7570    0.3530    5.3430 C.ar  268  PHE268     -0.0042
     73  CE1       26.0680   -0.4260    2.7580 C.ar  268  PHE268     -0.0003
     74  CE2       27.7520    0.1540    4.3710 C.ar  268  PHE268     -0.0003
     75  CZ        27.3970   -0.2280    3.0840 C.ar  268  PHE268     -0.0000
     76  N         21.3350    3.3530    5.3980 N.3   297  HIS297     -0.1226
     77  CA        22.4620    3.9130    4.6980 C.3   297  HIS297      0.1752
     78  C         22.2340    5.3280    4.1020 C.2   297  HIS297      0.2595
     79  O         23.1250    6.1990    4.1810 O.2   297  HIS297     -0.2718
     80  CB        22.9170    2.9310    3.5980 C.3   297  HIS297      0.0759
     81  CG        24.3130    3.1740    3.1020 C.ar  297  HIS297      0.0818
     82  ND1       25.3670    3.3380    3.9760 N.ar  297  HIS297     -0.2268
     83  CD2       24.7820    3.1950    1.8270 C.ar  297  HIS297      0.1154
     84  CE1       26.4460    3.4860    3.2160 C.ar  297  HIS297      0.1986
     85  NE2       26.1340    3.4140    1.9120 N.ar  297  HIS297     -0.2212
     86  N         21.0380    5.5500    3.5350 N.am  298  GLN298     -0.1979
     87  CA        20.7040    6.7820    2.8200 C.3   298  GLN298      0.1601
     88  C         20.3300    7.9490    3.7230 C.2   298  GLN298      0.2287
     89  O         20.1430    9.0530    3.2060 O.2   298  GLN298     -0.2864
     90  CB        19.6090    6.5220    1.7450 C.3   298  GLN298      0.0394
     91  CG        20.1580    5.8330    0.4700 C.3   298  GLN298      0.0908
     92  CD        21.4220    6.4560   -0.1210 C.2   298  GLN298      0.2608
     93  OE1       21.5230    7.6600   -0.3060 O.2   298  GLN298     -0.2717
     94  NE2       22.4050    5.6430   -0.4900 N.am  298  GLN298     -0.0878
@<TRIPOS>BOND
     1     1     2    1
     2     2     3    1
     3     2     5    1
     4     3     4    2
     5     5     6    1
     6     6     7   ar
     7     6     8   ar
     8     7     9   ar
     9     8    10   ar
    10    22    21    1
    11     9    11   ar
    12    10    11   ar
    13    21    23    1
    14    21    20    1
    15    18    17    1
    16    18    19    2
    17    17    20    1
    18    17    16    1
    19    49    50   ar
    20    49    47   ar
    21    50    48   ar
    22    15    14    2
    23    47    45   ar
    24    16    14   am
    25    14    13    1
    26    48    46   ar
    27    64    63   ar
    28    64    62   ar
    29    45    46   ar
    30    45    44    1
    31    63    61   ar
    32    62    60   ar
    33    13    12    1
    34    44    41    1
    35    61    58   ar
    36    60    58   ar
    37    60    59   ar
    38    41    42    1
    39    41    40    1
    40    58    56   ar
    41    94    92   am
    42    93    92    2
    43    42    43    2
    44    92    91    1
    45    59    57   ar
    46    40    36   am
    47    91    90    1
    48    56    57   ar
    49    56    55    1
    50    39    38    1
    51    27    26    2
    52    38    35    1
    53    36    37    2
    54    36    35    1
    55    55    52    1
    56    30    32   ar
    57    30    29   ar
    58    90    87    1
    59    83    85   ar
    60    83    81   ar
    61    85    84   ar
    62    54    53    2
    63    32    33   ar
    64    35    34    1
    65    26    34   am
    66    26    25    1
    67    73    75   ar
    68    73    71   ar
    69    53    52    1
    70    28    29    1
    71    28    25    1
    72    87    86    1
    73    87    88    1
    74    29    31   ar
    75    24    25    1
    76    52    51    1
    77    75    74   ar
    78    81    80    1
    79    81    82   ar
    80    89    88    2
    81    84    82   ar
    82    33    31   ar
    83    86    78   am
    84    80    77    1
    85    71    70   ar
    86    78    79    2
    87    78    77    1
    88    74    72   ar
    89    77    76    1
    90    70    72   ar
    91    70    69    1
    92    69    66    1
    93    68    67    2
    94    66    67    1
    95    66    65    1
