@<TRIPOS>MOLECULE
tmp/5jaiA01.pdb
 106 98 0 0 0
SMALL
GASTEIGER

@<TRIPOS>ATOM
      1  N         31.0580  -12.5990    8.0350 N.3   146  ALA146     -0.1245
      2  CA        30.6300  -13.9940    7.9910 C.3   146  ALA146      0.1562
      3  C         29.8470  -14.2660    9.2630 C.2   146  ALA146      0.2260
      4  O         30.3550  -14.0340   10.3600 O.2   146  ALA146     -0.2867
      5  CB        31.8210  -14.9540    7.8460 C.3   146  ALA146      0.0290
      6  N         23.7780  -24.7650    5.2440 N.3   163  LEU163     -0.1245
      7  CA        25.0110  -25.2190    4.6040 C.3   163  LEU163      0.1561
      8  C         24.7510  -26.6040    4.0250 C.2   163  LEU163      0.2260
      9  O         25.2720  -27.6140    4.5060 O.2   163  LEU163     -0.2867
     10  CB        26.1800  -25.2070    5.5980 C.3   163  LEU163      0.0270
     11  CG        26.4060  -23.8520    6.2950 C.3   163  LEU163      0.0019
     12  CD1       27.5160  -23.9340    7.3420 C.3   163  LEU163      0.0001
     13  CD2       26.7210  -22.7690    5.2790 C.3   163  LEU163      0.0001
     14  N         24.0800  -14.4320    3.7570 N.3   202  MET202     -0.1245
     15  CA        25.3830  -14.3040    3.1090 C.3   202  MET202      0.1570
     16  C         25.2970  -13.7820    1.6780 C.2   202  MET202      0.2261
     17  O         26.3190  -13.7130    0.9900 O.2   202  MET202     -0.2867
     18  CB        26.1220  -15.6480    3.1400 C.3   202  MET202      0.0387
     19  CG        26.6390  -16.0400    4.5460 C.3   202  MET202      0.0595
     20  SD        27.7800  -14.8360    5.3280 S.3   202  MET202     -0.1393
     21  CE        29.2850  -15.0940    4.3630 C.3   202  MET202      0.0692
     22  N         34.2210  -17.2080   -2.0130 N.3   231  TYR231     -0.1241
     23  CA        34.9550  -18.4360   -2.2600 C.3   231  TYR231      0.1605
     24  C         34.1970  -19.1970   -3.3220 C.2   231  TYR231      0.2264
     25  O         32.9690  -19.2840   -3.2630 O.2   231  TYR231     -0.2867
     26  CB        35.0760  -19.2960   -0.9950 C.3   231  TYR231      0.0534
     27  CG        35.8300  -20.5960   -1.1910 C.ar  231  TYR231     -0.0201
     28  CD1       37.2050  -20.6080   -1.3390 C.ar  231  TYR231     -0.0009
     29  CD2       35.1560  -21.8170   -1.2190 C.ar  231  TYR231     -0.0009
     30  CE1       37.8910  -21.8050   -1.5310 C.ar  231  TYR231      0.0417
     31  CE2       35.8250  -23.0060   -1.3940 C.ar  231  TYR231      0.0417
     32  CZ        37.1900  -22.9930   -1.5490 C.ar  231  TYR231      0.1957
     33  OH        37.8490  -24.1870   -1.7290 O.3   231  TYR231     -0.2866
     34  N         29.3110  -26.1260   -1.4590 N.3   241  TYR241     -0.1241
     35  CA        29.5890  -24.6960   -1.4610 C.3   241  TYR241      0.1605
     36  C         29.0060  -24.0440   -2.7090 C.2   241  TYR241      0.2264
     37  O         27.8340  -23.6630   -2.7010 O.2   241  TYR241     -0.2867
     38  CB        31.0910  -24.4000   -1.3200 C.3   241  TYR241      0.0534
     39  CG        31.2980  -22.9990   -0.8210 C.ar  241  TYR241     -0.0201
     40  CD1       31.1760  -21.9190   -1.6810 C.ar  241  TYR241     -0.0009
     41  CD2       31.5460  -22.7470    0.5250 C.ar  241  TYR241     -0.0009
     42  CE1       31.3260  -20.6330   -1.2300 C.ar  241  TYR241      0.0417
     43  CE2       31.6990  -21.4580    0.9870 C.ar  241  TYR241      0.0417
     44  CZ        31.5870  -20.4050    0.1040 C.ar  241  TYR241      0.1957
     45  OH        31.7350  -19.1100    0.5370 O.3   241  TYR241     -0.2866
     46  N         24.8850  -22.1160    0.3700 N.3   246  ILE246     -0.1245
     47  CA        25.8010  -20.9950    0.5520 C.3   246  ILE246      0.1561
     48  C         26.2750  -20.4890   -0.8030 C.2   246  ILE246      0.2260
     49  O         26.4880  -19.2890   -0.9840 O.2   246  ILE246     -0.2867
     50  CB        26.9630  -21.4000    1.4860 C.3   246  ILE246      0.0252
     51  CG1       27.8080  -20.1730    1.8990 C.3   246  ILE246      0.0019
     52  CG2       27.8330  -22.4350    0.8440 C.3   246  ILE246      0.0019
     53  CD1       27.0750  -19.1570    2.8510 C.3   246  ILE246      0.0001
     54  N         26.4450  -16.7470   -2.5480 N.3   250  LYS250     -0.1245
     55  CA        27.5750  -16.1160   -3.2010 C.3   250  LYS250      0.1561
     56  C         27.1970  -15.7000   -4.6160 C.2   250  LYS250      0.2260
     57  O         27.6500  -14.6550   -5.1050 O.2   250  LYS250     -0.2867
     58  CB        28.7910  -17.0500   -3.1670 C.3   250  LYS250      0.0271
     59  CG        29.3050  -17.3960   -1.7310 C.3   250  LYS250      0.0035
     60  CD        29.3620  -16.1670   -0.7630 C.3   250  LYS250      0.0206
     61  CE        30.5830  -16.1980    0.1680 C.3   250  LYS250      0.1093
     62  NZ        30.9160  -14.8540    0.7690 N.3   250  LYS250     -0.1314
     63  N         41.0750  -21.0870    3.6420 N.3   280  VAL280     -0.1245
     64  CA        41.9930  -21.0060    4.7740 C.3   280  VAL280      0.1561
     65  C         41.3060  -21.5630    6.0210 C.2   280  VAL280      0.2260
     66  O         40.0770  -21.6860    6.0890 O.2   280  VAL280     -0.2867
     67  CB        42.4850  -19.5660    5.0690 C.3   280  VAL280      0.0252
     68  CG1       43.3000  -19.0090    3.9410 C.3   280  VAL280      0.0019
     69  CG2       41.3110  -18.6680    5.3810 C.3   280  VAL280      0.0019
     70  N         39.7210  -21.1850    9.4580 N.3   282  GLY282     -0.1210
     71  CA        39.0550  -20.1420   10.2000 C.3   282  GLY282      0.1956
     72  C         38.4040  -20.7470   11.4230 C.2   282  GLY282      0.2612
     73  O         38.3660  -21.9710   11.5870 O.2   282  GLY282     -0.2717
     74  N         37.8700  -19.8650   12.2710 N.am  283  GLN283     -0.1965
     75  CA        37.3800  -20.2930   13.5820 C.3   283  GLN283      0.1733
     76  C         36.3110  -21.3600   13.4570 C.2   283  GLN283      0.2616
     77  O         36.1960  -22.2340   14.3270 O.2   283  GLN283     -0.2715
     78  CB        36.8150  -19.0920   14.3560 C.3   283  GLN283      0.0408
     79  CG        37.7740  -17.9380   14.5720 C.3   283  GLN283      0.0908
     80  CD        37.0390  -16.6610   14.9400 C.2   283  GLN283      0.2608
     81  OE1       36.7130  -15.8400   14.0800 O.2   283  GLN283     -0.2717
     82  NE2       36.7540  -16.5020   16.2150 N.am  283  GLN283     -0.0878
     83  N         35.5160  -21.3020   12.3920 N.am  284  ALA284     -0.1963
     84  CA        34.3880  -22.1990   12.2070 C.3   284  ALA284      0.1728
     85  C         34.6110  -23.1990   11.0800 C.2   284  ALA284      0.2616
     86  O         33.6380  -23.7470   10.5540 O.2   284  ALA284     -0.2715
     87  CB        33.1260  -21.3890   11.9300 C.3   284  ALA284      0.0334
     88  N         35.8560  -23.4390   10.6630 N.am  285  SER285     -0.1950
     89  CA        36.0640  -24.2150    9.4400 C.3   285  SER285      0.1924
     90  C         35.2520  -25.5110    9.4440 C.2   285  SER285      0.2314
     91  O         34.6580  -25.8810    8.4220 O.2   285  SER285     -0.2863
     92  CB        37.5530  -24.4970    9.2490 C.3   285  SER285      0.2116
     93  OG        38.2190  -23.3210    8.8250 O.3   285  SER285     -0.2180
     94  N         32.4470  -26.0740   10.3200 N.3   287  ALA287     -0.1231
     95  CA        31.0630  -25.7860    9.9640 C.3   287  ALA287      0.1694
     96  C         30.6280  -26.6850    8.8150 C.2   287  ALA287      0.2591
     97  O         29.4510  -27.0560    8.7170 O.2   287  ALA287     -0.2718
     98  CB        30.8880  -24.3120    9.5860 C.3   287  ALA287      0.0304
     99  N         31.5700  -27.0290    7.9400 N.am  288  ILE288     -0.1980
    100  CA        31.5000  -28.2020    7.0780 C.3   288  ILE288      0.1595
    101  C         32.6120  -29.1500    7.5240 C.2   288  ILE288      0.2287
    102  O         33.7920  -28.8400    7.3120 O.2   288  ILE288     -0.2864
    103  CB        31.6640  -27.8350    5.5970 C.3   288  ILE288      0.0276
    104  CG1       31.2240  -26.3840    5.3600 C.3   288  ILE288      0.0022
    105  CG2       30.9160  -28.8530    4.7220 C.3   288  ILE288      0.0022
    106  CD1       30.7390  -26.0940    3.9490 C.3   288  ILE288      0.0001
@<TRIPOS>BOND
     1    57    56    2
     2    56    55    1
     3    24    25    2
     4    24    23    1
     5    55    58    1
     6    55    54    1
     7    58    59    1
     8    36    37    2
     9    36    35    1
    10    23    22    1
    11    23    26    1
    12    59    60    1
    13    33    32    1
    14    40    42   ar
    15    40    39   ar
    16    32    30   ar
    17    32    31   ar
    18    30    28   ar
    19    35    34    1
    20    35    38    1
    21    31    29   ar
    22    28    27   ar
    23    38    39    1
    24    42    44   ar
    25    29    27   ar
    26    27    26    1
    27    49    48    2
    28    39    41   ar
    29    48    47    1
    30    60    61    1
    31    44    45    1
    32    44    43   ar
    33    61    62    1
    34    46    47    1
    35    41    43   ar
    36    47    50    1
    37    52    50    1
    38    17    16    2
    39    50    51    1
    40    16    15    1
    41    51    53    1
    42    15    18    1
    43    15    14    1
    44    18    19    1
    45    63    64    1
    46    68    67    1
    47   106   104    1
    48     8     9    2
    49     8     7    1
    50    21    20    1
    51    19    20    1
    52     7     6    1
    53     7    10    1
    54   105   103    1
    55    64    67    1
    56    64    65    1
    57    67    69    1
    58    13    11    1
    59   104   103    1
    60   103   100    1
    61    10    11    1
    62    65    66    2
    63    11    12    1
    64   100   101    1
    65   100    99    1
    66   102   101    2
    67     5     2    1
    68    99    96   am
    69     2     1    1
    70     2     3    1
    71    91    90    2
    72    97    96    2
    73    96    95    1
    74    93    92    1
    75    92    89    1
    76     3     4    2
    77    89    90    1
    78    89    88    1
    79    70    71    1
    80    98    95    1
    81    95    94    1
    82    71    72    1
    83    86    85    2
    84    88    85   am
    85    85    84    1
    86    72    73    2
    87    72    74   am
    88    87    84    1
    89    84    83    1
    90    74    75    1
    91    83    76   am
    92    76    75    1
    93    76    77    2
    94    75    78    1
    95    81    80    2
    96    78    79    1
    97    79    80    1
    98    80    82   am
