@<TRIPOS>MOLECULE
tmp/5jalA00.pdb
 108 102 0 0 0
SMALL
GASTEIGER

@<TRIPOS>ATOM
      1  N         21.5960    8.7880  -12.7110 N.3    53  LEU53      -0.1245
      2  CA        20.8250    8.1420  -11.6340 C.3    53  LEU53       0.1561
      3  C         20.0340    6.9290  -12.1270 C.2    53  LEU53       0.2260
      4  O         20.0510    5.8720  -11.4900 O.2    53  LEU53      -0.2867
      5  CB        19.9330    9.1450  -10.8800 C.3    53  LEU53       0.0270
      6  CG        20.7080   10.0720   -9.9040 C.3    53  LEU53       0.0019
      7  CD1       19.8360   11.2580   -9.4130 C.3    53  LEU53       0.0001
      8  CD2       21.2920    9.3100   -8.7250 C.3    53  LEU53       0.0001
      9  N         22.3450    4.0280  -12.7220 N.3    56  PHE56      -0.1227
     10  CA        22.8000    3.4780  -11.4400 C.3    56  PHE56       0.1736
     11  C         21.6950    2.6000  -10.8120 C.2    56  PHE56       0.2595
     12  O         21.9960    1.5820  -10.1820 O.2    56  PHE56      -0.2718
     13  CB        23.2230    4.6010  -10.4860 C.3    56  PHE56       0.0547
     14  CG        23.4350    4.2130   -9.0420 C.ar   56  PHE56      -0.0202
     15  CD1       24.5170    3.4170   -8.6680 C.ar   56  PHE56      -0.0042
     16  CD2       22.5630    4.6510   -8.0540 C.ar   56  PHE56      -0.0042
     17  CE1       24.7120    3.0530   -7.3300 C.ar   56  PHE56      -0.0003
     18  CE2       22.7600    4.2970   -6.7120 C.ar   56  PHE56      -0.0003
     19  CZ        23.8360    3.5060   -6.3550 C.ar   56  PHE56      -0.0000
     20  N         20.4300    2.9940  -10.9990 N.am   57  LEU57      -0.1980
     21  CA        19.2950    2.2420  -10.4730 C.3    57  LEU57       0.1596
     22  C         18.9360    1.0110  -11.3310 C.2    57  LEU57       0.2287
     23  O         18.0700    0.2390  -10.9370 O.2    57  LEU57      -0.2864
     24  CB        18.0640    3.1500  -10.3200 C.3    57  LEU57       0.0297
     25  CG        18.1790    4.3840   -9.4360 C.3    57  LEU57       0.0022
     26  CD1       16.9500    5.2520   -9.6110 C.3    57  LEU57       0.0001
     27  CD2       18.4050    4.0170   -7.9640 C.3    57  LEU57       0.0001
     28  N         12.4510   10.9850  -13.3670 N.3    67  LEU67      -0.1245
     29  CA        13.1430   11.5480  -12.1780 C.3    67  LEU67       0.1561
     30  C         13.3170   13.0650  -12.3320 C.2    67  LEU67       0.2260
     31  O         13.1240   13.8040  -11.3680 O.2    67  LEU67      -0.2867
     32  CB        14.5090   10.8900  -11.9640 C.3    67  LEU67       0.0270
     33  CG        14.5390    9.3950  -11.6170 C.3    67  LEU67       0.0019
     34  CD1       15.9690    8.8950  -11.5830 C.3    67  LEU67       0.0001
     35  CD2       13.8610    9.1180  -10.2850 C.3    67  LEU67       0.0001
     36  N         28.9100    6.0170   -3.7890 N.3    99  LEU99      -0.1231
     37  CA        28.7360    5.3750   -5.0880 C.3    99  LEU99       0.1693
     38  C         27.3650    5.7530   -5.6730 C.2    99  LEU99       0.2593
     39  O         26.3650    5.6860   -4.9610 O.2    99  LEU99      -0.2718
     40  CB        28.8480    3.8290   -4.9240 C.3    99  LEU99       0.0284
     41  CG        28.7340    2.9930   -6.2260 C.3    99  LEU99       0.0019
     42  CD1       29.9000    3.3050   -7.1760 C.3    99  LEU99       0.0001
     43  CD2       28.6970    1.4750   -5.9110 C.3    99  LEU99       0.0001
     44  N         27.3340    6.1510   -6.9450 N.am  100  GLY100     -0.1942
     45  CA        26.0830    6.5490   -7.5980 C.3   100  GLY100      0.2014
     46  C         25.6430    7.9600   -7.2360 C.2   100  GLY100      0.2638
     47  O         24.6520    8.4600   -7.7720 O.2   100  GLY100     -0.2714
     48  N         26.3820    8.6360   -6.3350 N.am  101  ALA101     -0.1977
     49  CA        26.0400   10.0210   -5.9590 C.3   101  ALA101      0.1597
     50  C         26.8440   11.0220   -6.7990 C.2   101  ALA101      0.2287
     51  O         27.3860   10.6460   -7.8240 O.2   101  ALA101     -0.2864
     52  CB        26.2720   10.2290   -4.4760 C.3   101  ALA101      0.0319
     53  N         24.4810   16.1700   -3.6090 N.3   105  LEU105     -0.1231
     54  CA        23.5030   15.3100   -2.9190 C.3   105  LEU105      0.1693
     55  C         23.6770   15.1900   -1.4000 C.2   105  LEU105      0.2592
     56  O         23.0100   14.3620   -0.7440 O.2   105  LEU105     -0.2718
     57  CB        23.4790   13.9160   -3.5680 C.3   105  LEU105      0.0284
     58  CG        22.9410   13.8320   -5.0130 C.3   105  LEU105      0.0019
     59  CD1       23.0700   12.3750   -5.5440 C.3   105  LEU105      0.0001
     60  CD2       21.4980   14.3010   -5.0980 C.3   105  LEU105      0.0001
     61  N         24.5570   16.0030   -0.8370 N.am  106  TYR106     -0.1976
     62  CA        24.7700   16.0010    0.6210 C.3   106  TYR106      0.1639
     63  C         24.7250   17.4490    1.1320 C.2   106  TYR106      0.2290
     64  O         25.4860   17.8480    2.0170 O.2   106  TYR106     -0.2864
     65  CB        26.1140   15.3180    0.9610 C.3   106  TYR106      0.0560
     66  CG        26.1520   13.8520    0.5770 C.ar  106  TYR106     -0.0198
     67  CD1       25.8430   12.8600    1.5050 C.ar  106  TYR106     -0.0009
     68  CD2       26.5200   13.4530   -0.7120 C.ar  106  TYR106     -0.0009
     69  CE1       25.8930   11.5080    1.1630 C.ar  106  TYR106      0.0417
     70  CE2       26.5670   12.1030   -1.0650 C.ar  106  TYR106      0.0417
     71  CZ        26.2610   11.1360   -0.1220 C.ar  106  TYR106      0.1957
     72  OH        26.3330    9.8110   -0.4700 O.3   106  TYR106     -0.2866
     73  N         20.8810    5.4530    3.5110 N.3   298  GLN298     -0.1245
     74  CA        20.5850    6.7220    2.8130 C.3   298  GLN298      0.1566
     75  C         20.1500    7.8640    3.7440 C.2   298  GLN298      0.2260
     76  O         19.8850    8.9700    3.2520 O.2   298  GLN298     -0.2867
     77  CB        19.5420    6.4990    1.6810 C.3   298  GLN298      0.0367
     78  CG        20.0820    5.8170    0.3960 C.3   298  GLN298      0.0905
     79  CD        21.4810    6.1980   -0.0600 C.2   298  GLN298      0.2608
     80  OE1       21.8460    7.3590   -0.1910 O.2   298  GLN298     -0.2717
     81  NE2       22.2850    5.2080   -0.3890 N.am  298  GLN298     -0.0878
     82  N         18.4760   12.4800   -0.4500 N.3   303  PHE303     -0.1241
     83  CA        17.3050   11.7490   -0.9420 C.3   303  PHE303      0.1605
     84  C         16.3520   11.2980    0.2220 C.2   303  PHE303      0.2264
     85  O         15.1830   11.0080   -0.0250 O.2   303  PHE303     -0.2867
     86  CB        17.7220   10.5950   -1.8850 C.3   303  PHE303      0.0534
     87  CG        17.6180   10.9830   -3.3570 C.ar  303  PHE303     -0.0203
     88  CD1       16.3710   11.1870   -3.9580 C.ar  303  PHE303     -0.0042
     89  CD2       18.7550   11.1300   -4.1350 C.ar  303  PHE303     -0.0042
     90  CE1       16.2700   11.5440   -5.3110 C.ar  303  PHE303     -0.0003
     91  CE2       18.6590   11.4800   -5.4840 C.ar  303  PHE303     -0.0003
     92  CZ        17.4170   11.6780   -6.0670 C.ar  303  PHE303     -0.0000
     93  N         11.5780    2.6350   -0.5370 N.3   315  LEU315     -0.1245
     94  CA        12.7920    2.7460   -1.3490 C.3   315  LEU315      0.1561
     95  C         14.0930    2.7490   -0.5300 C.2   315  LEU315      0.2260
     96  O         15.1760    2.9790   -1.0910 O.2   315  LEU315     -0.2867
     97  CB        12.7170    4.0090   -2.2170 C.3   315  LEU315      0.0270
     98  CG        11.6530    4.0190   -3.2940 C.3   315  LEU315      0.0019
     99  CD1       11.3050    5.4250   -3.6530 C.3   315  LEU315      0.0001
    100  CD2       12.1260    3.2570   -4.5170 C.3   315  LEU315      0.0001
    101  N         15.0030    5.0030    1.5600 N.3   317  LEU317     -0.1245
    102  CA        15.5300    6.3690    1.6730 C.3   317  LEU317      0.1561
    103  C         15.3620    6.8530    3.1060 C.2   317  LEU317      0.2260
    104  O         16.0800    7.7410    3.5520 O.2   317  LEU317     -0.2867
    105  CB        14.8700    7.3170    0.6520 C.3   317  LEU317      0.0270
    106  CG        14.9790    6.8660   -0.8210 C.3   317  LEU317      0.0019
    107  CD1       14.1510    7.7730   -1.7580 C.3   317  LEU317      0.0001
    108  CD2       16.4280    6.7600   -1.2680 C.3   317  LEU317      0.0001
@<TRIPOS>BOND
     1    28    29    1
     2     9    10    1
     3     1     2    1
     4    30    29    1
     5    30    31    2
     6    29    32    1
     7     3     2    1
     8     3     4    2
     9    32    33    1
    10     2     5    1
    11    33    34    1
    12    33    35    1
    13    10    11    1
    14    10    13    1
    15    22    23    2
    16    22    21    1
    17    20    11   am
    18    20    21    1
    19     5     6    1
    20    11    12    2
    21    13    14    1
    22    21    24    1
    23    24    25    1
    24     6     7    1
    25     6     8    1
    26    26    25    1
    27    25    27    1
    28    14    15   ar
    29    14    16   ar
    30    15    17   ar
    31    16    18   ar
    32    51    50    2
    33    47    46    2
    34    45    46    1
    35    45    44    1
    36    17    19   ar
    37    46    48   am
    38    42    41    1
    39    44    38   am
    40    50    49    1
    41    18    19   ar
    42    48    49    1
    43    41    43    1
    44    41    40    1
    45    92    91   ar
    46    92    90   ar
    47    49    52    1
    48    38    37    1
    49    38    39    2
    50    59    58    1
    51    91    89   ar
    52    90    88   ar
    53    60    58    1
    54    37    40    1
    55    37    36    1
    56    58    57    1
    57   100    98    1
    58    89    87   ar
    59    88    87   ar
    60    99    98    1
    61    53    54    1
    62    57    54    1
    63    87    86    1
    64    98    97    1
    65    54    55    1
    66    97    94    1
    67    86    83    1
    68   107   106    1
    69    55    61   am
    70    55    56    2
    71    94    93    1
    72    94    95    1
    73   108   106    1
    74    96    95    2
    75    70    68   ar
    76    70    71   ar
    77    83    82    1
    78    83    84    1
    79    61    62    1
    80   106   105    1
    81    68    66   ar
    82    72    71    1
    83    81    79   am
    84    80    79    2
    85    71    69   ar
    86    79    78    1
    87    85    84    2
    88    78    77    1
    89    66    65    1
    90    66    67   ar
    91    62    65    1
    92    62    63    1
    93   105   102    1
    94    63    64    2
    95    69    67   ar
    96   101   102    1
    97   102   103    1
    98    77    74    1
    99    74    73    1
   100    74    75    1
   101   103   104    2
   102    76    75    2
