@<TRIPOS>MOLECULE
tmp/5janA00.pdb
 103 101 0 0 0
SMALL
GASTEIGER

@<TRIPOS>ATOM
      1  N         29.3440    6.4810   -4.1120 N.3    99  LEU99      -0.1245
      2  CA        29.2240    5.9890   -5.4630 C.3    99  LEU99       0.1561
      3  C         27.7880    6.2520   -5.8820 C.2    99  LEU99       0.2260
      4  O         26.8590    6.0170   -5.1150 O.2    99  LEU99      -0.2867
      5  CB        29.5080    4.4810   -5.5020 C.3    99  LEU99       0.0270
      6  CG        29.3970    3.8110   -6.8820 C.3    99  LEU99       0.0019
      7  CD1       30.5660    4.2020   -7.7300 C.3    99  LEU99       0.0001
      8  CD2       29.3290    2.3090   -6.7480 C.3    99  LEU99       0.0001
      9  N         36.7770   -5.4510  -10.2270 N.3   160  GLU160     -0.1245
     10  CA        36.3700   -4.8130   -8.9610 C.3   160  GLU160      0.1567
     11  C         37.5130   -4.4730   -8.0260 C.2   160  GLU160      0.2260
     12  O         37.6970   -3.3190   -7.6840 O.2   160  GLU160     -0.2867
     13  CB        35.3210   -5.6450   -8.1990 C.3   160  GLU160      0.0388
     14  CG        33.8970   -5.5240   -8.7420 C.3   160  GLU160      0.1160
     15  CD        33.2740   -4.1460   -8.5290 C.2   160  GLU160      0.3649
     16  OE1       33.3350   -3.6050   -7.4010 O.co2 160  GLU160     -0.2457
     17  OE2       32.7160   -3.5880   -9.4910 O.co2 160  GLU160     -0.2457
     18  N         38.3800   -0.4800   -8.0630 N.3   164  ARG164     -0.1245
     19  CA        37.9180    0.2500   -6.8710 C.3   164  ARG164      0.1563
     20  C         39.0560    0.8960   -6.1110 C.2   164  ARG164      0.2260
     21  O         38.9430    2.0340   -5.6690 O.2   164  ARG164     -0.2867
     22  CB        37.1090   -0.6480   -5.9290 C.3   164  ARG164      0.0307
     23  CG        35.7550   -1.0720   -6.4620 C.3   164  ARG164      0.0489
     24  CD        34.9140    0.0630   -7.0490 C.3   164  ARG164      0.2205
     25  NE        33.6280   -0.4290   -7.5120 N.pl3 164  ARG164     -0.0865
     26  CZ        32.7770    0.2170   -8.3070 C.cat 164  ARG164      0.5346
     27  NH1       33.0400    1.4400   -8.7750 N.pl3 164  ARG164      0.1354
     28  NH2       31.6350   -0.3770   -8.6400 N.pl3 164  ARG164      0.1354
     29  N         30.2250    6.5130    2.4690 N.3   219  SER219     -0.1202
     30  CA        30.2220    5.2860    1.6460 C.3   219  SER219      0.2020
     31  C         31.6010    5.0790    0.9870 C.2   219  SER219      0.2618
     32  O         32.5810    4.9170    1.7250 O.2   219  SER219     -0.2717
     33  CB        29.0320    5.3240    0.6680 C.3   219  SER219      0.2103
     34  OG        28.6890    4.0240    0.2470 O.3   219  SER219     -0.2182
     35  N         31.7040    5.0780   -0.3450 N.am  220  PHE220     -0.1975
     36  CA        33.0060    5.1830   -1.0590 C.3   220  PHE220      0.1639
     37  C         33.8040    6.3740   -0.4770 C.2   220  PHE220      0.2290
     38  O         34.9980    6.2950   -0.2570 O.2   220  PHE220     -0.2864
     39  CB        32.7590    5.4220   -2.5660 C.3   220  PHE220      0.0560
     40  CG        33.7560    4.7670   -3.5060 C.ar  220  PHE220     -0.0200
     41  CD1       35.1050    4.6110   -3.1770 C.ar  220  PHE220     -0.0042
     42  CD2       33.3260    4.2990   -4.7500 C.ar  220  PHE220     -0.0042
     43  CE1       35.9860    4.0060   -4.0680 C.ar  220  PHE220     -0.0003
     44  CE2       34.2040    3.6930   -5.6430 C.ar  220  PHE220     -0.0003
     45  CZ        35.5370    3.5440   -5.3050 C.ar  220  PHE220     -0.0000
     46  N         32.1590    2.2200    3.0900 N.3   244  TRP244     -0.1241
     47  CA        32.3150    0.9680    2.3710 C.3   244  TRP244      0.1605
     48  C         33.8310    0.7490    2.2770 C.2   244  TRP244      0.2264
     49  O         34.5170    1.5200    1.6050 O.2   244  TRP244     -0.2867
     50  CB        31.6700    1.0950    0.9800 C.3   244  TRP244      0.0550
     51  CG        31.7550   -0.1240    0.1340 C.ar  244  TRP244      0.0003
     52  CD1       31.4980   -1.3890    0.5170 C.ar  244  TRP244      0.0946
     53  CD2       32.1260   -0.1900   -1.2590 C.ar  244  TRP244      0.0152
     54  NE1       31.6820   -2.2470   -0.5360 N.ar  244  TRP244     -0.2442
     55  CE2       32.0680   -1.5360   -1.6390 C.ar  244  TRP244      0.0810
     56  CE3       32.4970    0.7610   -2.2080 C.ar  244  TRP244      0.0012
     57  CZ2       32.3710   -1.9780   -2.9500 C.ar  244  TRP244      0.0191
     58  CZ3       32.8050    0.3190   -3.5370 C.ar  244  TRP244      0.0001
     59  CH2       32.7370   -1.0310   -3.8790 C.ar  244  TRP244      0.0015
     60  N         35.7650   -1.8240    1.1130 N.3   246  PHE246     -0.1241
     61  CA        36.3070   -2.6600    0.0390 C.3   246  PHE246      0.1605
     62  C         37.4260   -2.0130   -0.8070 C.2   246  PHE246      0.2264
     63  O         38.4250   -2.6450   -1.0940 O.2   246  PHE246     -0.2867
     64  CB        35.1620   -3.1420   -0.8700 C.3   246  PHE246      0.0534
     65  CG        35.6240   -3.9750   -2.0480 C.ar  246  PHE246     -0.0203
     66  CD1       35.8700   -5.3290   -1.9030 C.ar  246  PHE246     -0.0042
     67  CD2       35.8100   -3.3900   -3.3050 C.ar  246  PHE246     -0.0042
     68  CE1       36.2950   -6.1040   -2.9790 C.ar  246  PHE246     -0.0003
     69  CE2       36.2370   -4.1620   -4.3930 C.ar  246  PHE246     -0.0003
     70  CZ        36.4790   -5.5200   -4.2260 C.ar  246  PHE246     -0.0000
     71  N         22.9730   -1.0020    7.0550 N.3   268  PHE268     -0.1241
     72  CA        23.9530   -1.1730    5.9610 C.3   268  PHE268      0.1605
     73  C         25.0660   -2.1540    6.2610 C.2   268  PHE268      0.2264
     74  O         25.5460   -2.8380    5.3590 O.2   268  PHE268     -0.2867
     75  CB        24.6250    0.1320    5.5840 C.3   268  PHE268      0.0534
     76  CG        25.6830   -0.0190    4.5160 C.ar  268  PHE268     -0.0203
     77  CD1       25.3280   -0.3140    3.1990 C.ar  268  PHE268     -0.0042
     78  CD2       27.0400    0.1300    4.8200 C.ar  268  PHE268     -0.0042
     79  CE1       26.3020   -0.4550    2.2080 C.ar  268  PHE268     -0.0003
     80  CE2       28.0160   -0.0120    3.8270 C.ar  268  PHE268     -0.0003
     81  CZ        27.6410   -0.3050    2.5210 C.ar  268  PHE268     -0.0000
     82  N         27.8870   -4.8990    7.8880 N.3   270  TYR270     -0.1241
     83  CA        28.0030   -6.3300    7.8310 C.3   270  TYR270      0.1605
     84  C         29.4220   -6.7480    8.2150 C.2   270  TYR270      0.2264
     85  O         30.3410   -5.9370    8.0840 O.2   270  TYR270     -0.2867
     86  CB        27.6320   -6.8250    6.4350 C.3   270  TYR270      0.0534
     87  CG        28.3130   -6.1220    5.2710 C.ar  270  TYR270     -0.0201
     88  CD1       29.5320   -6.5850    4.7710 C.ar  270  TYR270     -0.0009
     89  CD2       27.7480   -5.0130    4.6780 C.ar  270  TYR270     -0.0009
     90  CE1       30.1640   -5.9540    3.7070 C.ar  270  TYR270      0.0417
     91  CE2       28.3660   -4.3640    3.6080 C.ar  270  TYR270      0.0417
     92  CZ        29.5740   -4.8410    3.1290 C.ar  270  TYR270      0.1957
     93  OH        30.2070   -4.2290    2.0830 O.3   270  TYR270     -0.2866
     94  N         21.6310    3.2590    5.0930 N.3   297  HIS297     -0.1241
     95  CA        22.7500    3.8310    4.3450 C.3   297  HIS297      0.1621
     96  C         22.4630    5.2100    3.7170 C.2   297  HIS297      0.2264
     97  O         23.3560    6.0590    3.6640 O.2   297  HIS297     -0.2867
     98  CB        23.1760    2.8590    3.2380 C.3   297  HIS297      0.0745
     99  CG        24.5600    3.0920    2.7250 C.ar  297  HIS297      0.0817
    100  ND1       25.6450    3.2620    3.5550 N.ar  297  HIS297     -0.2268
    101  CD2       25.0290    3.1810    1.4580 C.ar  297  HIS297      0.1154
    102  CE1       26.7220    3.4470    2.8190 C.ar  297  HIS297      0.1986
    103  NE2       26.3760    3.4010    1.5420 N.ar  297  HIS297     -0.2212
@<TRIPOS>BOND
     1     9    10    1
     2    17    15   ar
     3    10    13    1
     4    10    11    1
     5    27    26    1
     6    14    15    1
     7    14    13    1
     8    28    26    1
     9    15    16   ar
    10    26    25    2
    11    18    19    1
    12    11    12    2
    13     7     6    1
    14    25    24    1
    15    24    23    1
    16     6     8    1
    17     6     5    1
    18    19    20    1
    19    19    22    1
    20    23    22    1
    21    20    21    2
    22     3     2    1
    23     3     4    2
    24    44    45   ar
    25    44    42   ar
    26     5     2    1
    27     2     1    1
    28    45    43   ar
    29    42    40   ar
    30    69    70   ar
    31    69    67   ar
    32    70    68   ar
    33    43    41   ar
    34    59    58   ar
    35    59    57   ar
    36    58    56   ar
    37    40    41   ar
    38    40    39    1
    39    67    65   ar
    40    68    66   ar
    41    57    55   ar
    42    39    36    1
    43    56    53   ar
    44    65    66   ar
    45    65    64    1
    46    55    53   ar
    47    55    54   ar
    48    53    51   ar
    49    63    62    2
    50    36    37    1
    51    36    35    1
    52    64    61    1
    53    62    61    1
    54    54    52   ar
    55    37    38    2
    56    35    31   am
    57    61    60    1
    58    51    52   ar
    59    51    50    1
    60    34    33    1
    61    33    30    1
    62    50    47    1
    63    31    30    1
    64    31    32    2
    65   101   103   ar
    66   101    99   ar
    67   103   102   ar
    68    49    48    2
    69    30    29    1
    70    93    92    1
    71    79    81   ar
    72    79    77   ar
    73    48    47    1
    74    47    46    1
    75    81    80   ar
    76    99    98    1
    77    99   100   ar
    78   102   100   ar
    79    92    91   ar
    80    92    90   ar
    81    77    76   ar
    82    98    95    1
    83    91    89   ar
    84    97    96    2
    85    90    88   ar
    86    96    95    1
    87    80    78   ar
    88    95    94    1
    89    76    78   ar
    90    76    75    1
    91    89    87   ar
    92    88    87   ar
    93    87    86    1
    94    74    73    2
    95    75    72    1
    96    72    73    1
    97    72    71    1
    98    86    83    1
    99    83    82    1
   100    83    84    1
   101    85    84    2
