@<TRIPOS>MOLECULE
tmp/5jaoA00.pdb
 127 122 0 0 0
SMALL
GASTEIGER

@<TRIPOS>ATOM
      1  N         19.0540   21.8900   -6.8320 N.3    43  TRP43      -0.1227
      2  CA        19.5690   20.6900   -6.1680 C.3    43  TRP43       0.1737
      3  C         20.3200   19.7920   -7.1350 C.2    43  TRP43       0.2595
      4  O         21.4470   19.3970   -6.8530 O.2    43  TRP43      -0.2718
      5  CB        18.4300   19.9440   -5.4460 C.3    43  TRP43       0.0564
      6  CG        18.8340   18.7180   -4.6860 C.ar   43  TRP43       0.0003
      7  CD1       19.8630   18.5920   -3.7970 C.ar   43  TRP43       0.0946
      8  CD2       18.1310   17.4690   -4.6670 C.ar   43  TRP43       0.0152
      9  NE1       19.8700   17.3190   -3.2590 N.ar   43  TRP43      -0.2442
     10  CE2       18.8220   16.6080   -3.7850 C.ar   43  TRP43       0.0810
     11  CE3       16.9900   16.9840   -5.3320 C.ar   43  TRP43       0.0012
     12  CZ2       18.4100   15.2990   -3.5490 C.ar   43  TRP43       0.0191
     13  CZ3       16.6000   15.6680   -5.1130 C.ar   43  TRP43       0.0001
     14  CH2       17.3000   14.8470   -4.2250 C.ar   43  TRP43       0.0015
     15  N         19.7030   19.4680   -8.2720 N.am   44  ILE44      -0.1980
     16  CA        20.3680   18.6390   -9.2780 C.3    44  ILE44       0.1595
     17  C         20.3170   19.5110  -10.5510 C.2    44  ILE44       0.2287
     18  O         19.2630   19.6440  -11.1110 O.2    44  ILE44      -0.2864
     19  CB        19.6700   17.2250   -9.4160 C.3    44  ILE44       0.0276
     20  CG1       19.6930   16.4560   -8.0570 C.3    44  ILE44       0.0022
     21  CG2       20.3120   16.4030  -10.5360 C.3    44  ILE44       0.0022
     22  CD1       18.8320   15.0950   -8.0200 C.3    44  ILE44       0.0001
     23  N         20.2970   13.1280  -13.8280 N.3    50  PHE50      -0.1241
     24  CA        19.1000   12.2830  -13.8030 C.3    50  PHE50       0.1605
     25  C         19.2270   11.0260  -14.6540 C.2    50  PHE50       0.2264
     26  O         18.8020    9.9900  -14.1920 O.2    50  PHE50      -0.2867
     27  CB        17.8520   13.0830  -14.1870 C.3    50  PHE50       0.0534
     28  CG        17.4820   14.0990  -13.1360 C.ar   50  PHE50      -0.0203
     29  CD1       16.9830   13.6930  -11.8970 C.ar   50  PHE50      -0.0042
     30  CD2       17.6230   15.4610  -13.3830 C.ar   50  PHE50      -0.0042
     31  CE1       16.6330   14.6380  -10.9210 C.ar   50  PHE50      -0.0003
     32  CE2       17.2590   16.4010  -12.4180 C.ar   50  PHE50      -0.0003
     33  CZ        16.7560   15.9820  -11.1970 C.ar   50  PHE50      -0.0000
     34  N         21.6720    8.9280  -12.6340 N.3    53  LEU53      -0.1245
     35  CA        20.8950    8.3160  -11.5490 C.3    53  LEU53       0.1561
     36  C         20.0600    7.1300  -12.0350 C.2    53  LEU53       0.2260
     37  O         20.0500    6.1040  -11.3730 O.2    53  LEU53      -0.2867
     38  CB        20.0400    9.3470  -10.7700 C.3    53  LEU53       0.0270
     39  CG        20.8490   10.2510   -9.7980 C.3    53  LEU53       0.0019
     40  CD1       20.0740   11.5310   -9.4210 C.3    53  LEU53       0.0001
     41  CD2       21.2830    9.5070   -8.5380 C.3    53  LEU53       0.0001
     42  N         22.2520    4.1730  -12.5460 N.3    56  PHE56      -0.1227
     43  CA        22.7520    3.6660  -11.2630 C.3    56  PHE56       0.1736
     44  C         21.6460    2.9070  -10.5300 C.2    56  PHE56       0.2595
     45  O         21.9340    1.9690   -9.7880 O.2    56  PHE56      -0.2718
     46  CB        23.2920    4.8090  -10.3830 C.3    56  PHE56       0.0547
     47  CG        23.4870    4.5150   -8.9060 C.ar   56  PHE56      -0.0202
     48  CD1       24.5110    3.6790   -8.4750 C.ar   56  PHE56      -0.0042
     49  CD2       22.6750    5.1100   -7.9480 C.ar   56  PHE56      -0.0042
     50  CE1       24.7010    3.4240   -7.1070 C.ar   56  PHE56      -0.0003
     51  CE2       22.8570    4.8470   -6.5850 C.ar   56  PHE56      -0.0003
     52  CZ        23.8720    4.0090   -6.1720 C.ar   56  PHE56      -0.0000
     53  N         20.3860    3.3110  -10.7330 N.am   57  LEU57      -0.1980
     54  CA        19.2570    2.5970  -10.1280 C.3    57  LEU57       0.1596
     55  C         18.8710    1.3100  -10.9050 C.2    57  LEU57       0.2287
     56  O         18.0060    0.5720  -10.4580 O.2    57  LEU57      -0.2864
     57  CB        18.0490    3.5390   -9.9380 C.3    57  LEU57       0.0297
     58  CG        18.2500    4.7500   -8.9960 C.3    57  LEU57       0.0022
     59  CD1       16.9580    5.5680   -8.8740 C.3    57  LEU57       0.0001
     60  CD2       18.7980    4.3380   -7.6050 C.3    57  LEU57       0.0001
     61  N         12.3320   11.1520  -13.2620 N.3    67  LEU67      -0.1245
     62  CA        13.0440   11.7420  -12.1110 C.3    67  LEU67       0.1561
     63  C         13.2390   13.2370  -12.3370 C.2    67  LEU67       0.2260
     64  O         13.0100   14.0050  -11.4130 O.2    67  LEU67      -0.2867
     65  CB        14.4000   11.0510  -11.8520 C.3    67  LEU67       0.0270
     66  CG        14.3910    9.5460  -11.6250 C.3    67  LEU67       0.0019
     67  CD1       15.7640    9.0410  -11.3380 C.3    67  LEU67       0.0001
     68  CD2       13.4020    9.1350  -10.5500 C.3    67  LEU67       0.0001
     69  N         11.8290   16.0670   -9.8900 N.3    71  PHE71      -0.1241
     70  CA        12.8580   16.6150   -9.0090 C.3    71  PHE71       0.1605
     71  C         13.7010   17.7330   -9.6370 C.2    71  PHE71       0.2264
     72  O         14.4840   18.3570   -8.9240 O.2    71  PHE71      -0.2867
     73  CB        13.7710   15.4800   -8.4650 C.3    71  PHE71       0.0534
     74  CG        13.0300   14.4700   -7.6200 C.ar   71  PHE71      -0.0203
     75  CD1       12.6470   14.7760   -6.3160 C.ar   71  PHE71      -0.0042
     76  CD2       12.6900   13.2220   -8.1370 C.ar   71  PHE71      -0.0042
     77  CE1       11.9420   13.8520   -5.5380 C.ar   71  PHE71      -0.0003
     78  CE2       11.9860   12.2960   -7.3590 C.ar   71  PHE71      -0.0003
     79  CZ        11.6210   12.6160   -6.0600 C.ar   71  PHE71      -0.0000
     80  N         20.9150    5.5310    3.5450 N.3   298  GLN298     -0.1245
     81  CA        20.5780    6.7700    2.8400 C.3   298  GLN298      0.1566
     82  C         20.1910    7.9060    3.7820 C.2   298  GLN298      0.2260
     83  O         19.9630    9.0180    3.3010 O.2   298  GLN298     -0.2867
     84  CB        19.4540    6.4870    1.8320 C.3   298  GLN298      0.0367
     85  CG        19.9220    5.6310    0.6740 C.3   298  GLN298      0.0905
     86  CD        20.5190    6.4450   -0.4130 C.2   298  GLN298      0.2608
     87  OE1       19.8320    6.7500   -1.3880 O.2   298  GLN298     -0.2717
     88  NE2       21.8220    6.7570   -0.3000 N.am  298  GLN298     -0.0878
     89  N         18.5640   12.4180   -0.4310 N.3   303  PHE303     -0.1241
     90  CA        17.4350   11.6150   -0.9020 C.3   303  PHE303      0.1605
     91  C         16.4670   11.3130    0.2470 C.2   303  PHE303      0.2264
     92  O         15.2790   11.1330    0.0040 O.2   303  PHE303     -0.2867
     93  CB        17.9440   10.3100   -1.5220 C.3   303  PHE303      0.0534
     94  CG        18.8000   10.4520   -2.7610 C.ar  303  PHE303     -0.0203
     95  CD1       18.3450   11.1640   -3.8610 C.ar  303  PHE303     -0.0042
     96  CD2       20.0480    9.8530   -2.8320 C.ar  303  PHE303     -0.0042
     97  CE1       19.1240   11.2810   -5.0080 C.ar  303  PHE303     -0.0003
     98  CE2       20.8320    9.9740   -3.9790 C.ar  303  PHE303     -0.0003
     99  CZ        20.3640   10.6840   -5.0640 C.ar  303  PHE303     -0.0000
    100  N         13.8410   13.9470    0.1190 N.3   306  ALA306     -0.1231
    101  CA        13.2510   14.2050   -1.2010 C.3   306  ALA306      0.1694
    102  C         11.8320   13.6730   -1.3910 C.2   306  ALA306      0.2592
    103  O         11.1220   14.1680   -2.2790 O.2   306  ALA306     -0.2718
    104  CB        14.1610   13.6520   -2.2880 C.3   306  ALA306      0.0304
    105  N         11.4060   12.6540   -0.5800 N.am  307  THR307     -0.1953
    106  CA        10.0740   12.0330   -0.7120 C.3   307  THR307      0.1897
    107  C          9.3130   12.0710    0.6270 C.2   307  THR307      0.2313
    108  O          9.8860   12.4300    1.6590 O.2   307  THR307     -0.2863
    109  CB        10.1630   10.5550   -1.2220 C.3   307  THR307      0.1794
    110  OG1       10.6180    9.6990   -0.1680 O.3   307  THR307     -0.2208
    111  CG2       10.9970   10.3740   -2.5090 C.3   307  THR307      0.0378
    112  N         11.4180    2.8530   -0.6680 N.3   315  LEU315     -0.1245
    113  CA        12.6700    2.9970   -1.4320 C.3   315  LEU315      0.1561
    114  C         13.9650    2.8930   -0.5870 C.2   315  LEU315      0.2260
    115  O         15.0750    3.0420   -1.1360 O.2   315  LEU315     -0.2867
    116  CB        12.6630    4.3130   -2.2400 C.3   315  LEU315      0.0270
    117  CG        11.5160    4.5210   -3.2580 C.3   315  LEU315      0.0019
    118  CD1       11.5100    5.9470   -3.7730 C.3   315  LEU315      0.0001
    119  CD2       11.6460    3.5810   -4.4370 C.3   315  LEU315      0.0001
    120  N         14.9520    5.0470    1.5970 N.3   317  LEU317     -0.1245
    121  CA        15.5510    6.3910    1.7020 C.3   317  LEU317      0.1561
    122  C         15.4150    6.8650    3.1340 C.2   317  LEU317      0.2260
    123  O         16.1510    7.7400    3.5780 O.2   317  LEU317     -0.2867
    124  CB        14.9090    7.3800    0.7130 C.3   317  LEU317      0.0270
    125  CG        14.9830    6.9690   -0.7710 C.3   317  LEU317      0.0019
    126  CD1       14.1420    7.8570   -1.6320 C.3   317  LEU317      0.0001
    127  CD2       16.3970    6.8970   -1.2690 C.3   317  LEU317      0.0001
@<TRIPOS>BOND
     1    25    26    2
     2    25    24    1
     3    27    24    1
     4    27    28    1
     5    23    24    1
     6    30    28   ar
     7    30    32   ar
     8    61    62    1
     9    28    29   ar
    10    34    35    1
    11    42    43    1
    12    32    33   ar
    13    63    62    1
    14    63    64    2
    15    62    65    1
    16    36    35    1
    17    36    37    2
    18    29    31   ar
    19    65    66    1
    20    66    67    1
    21    66    68    1
    22    35    38    1
    23    43    44    1
    24    43    46    1
    25    33    31   ar
    26    18    17    2
    27    55    56    2
    28    55    54    1
    29    38    39    1
    30    53    44   am
    31    53    54    1
    32    17    16    1
    33    21    19    1
    34    44    45    2
    35    46    47    1
    36    54    57    1
    37    57    58    1
    38    69    70    1
    39    39    40    1
    40    39    41    1
    41    71    70    1
    42    71    72    2
    43    19    16    1
    44    19    20    1
    45    16    15    1
    46    70    73    1
    47    58    59    1
    48    58    60    1
    49    47    48   ar
    50    47    49   ar
    51    48    50   ar
    52    73    74    1
    53    15     3   am
    54    76    74   ar
    55    76    78   ar
    56    20    22    1
    57    49    51   ar
    58    74    75   ar
    59    78    79   ar
    60     3     4    2
    61     3     2    1
    62    50    52   ar
    63     1     2    1
    64    51    52   ar
    65    75    77   ar
    66     2     5    1
    67    79    77   ar
    68     5     6    1
    69    11    13   ar
    70    11     8   ar
    71    13    14   ar
    72    99    97   ar
    73    99    98   ar
    74    97    95   ar
    75     6     8   ar
    76     6     7   ar
    77     8    10   ar
    78   119   117    1
    79    14    12   ar
    80    98    96   ar
    81    95    94   ar
    82     7     9   ar
    83    10    12   ar
    84    10     9   ar
    85   118   117    1
    86   117   116    1
    87    96    94   ar
    88    94    93    1
    89   111   109    1
    90   104   101    1
    91   103   102    2
    92   116   113    1
    93   126   125    1
    94    93    90    1
    95   113   112    1
    96   113   114    1
    97   102   101    1
    98   102   105   am
    99    87    86    2
   100   127   125    1
   101   109   106    1
   102   109   110    1
   103   101   100    1
   104   115   114    2
   105    90    89    1
   106    90    91    1
   107   125   124    1
   108   106   105    1
   109   106   107    1
   110    86    88   am
   111    86    85    1
   112    92    91    2
   113   107   108    2
   114    85    84    1
   115   124   121    1
   116   120   121    1
   117   121   122    1
   118    84    81    1
   119    81    80    1
   120    81    82    1
   121   122   123    2
   122    83    82    2
