@<TRIPOS>MOLECULE
tmp/5japA00.pdb
 152 145 0 0 0
SMALL
GASTEIGER

@<TRIPOS>ATOM
      1  N         19.1960   21.8090   -6.5660 N.3    43  TRP43      -0.1227
      2  CA        19.7550   20.6130   -5.9100 C.3    43  TRP43       0.1737
      3  C         20.4730   19.6970   -6.9040 C.2    43  TRP43       0.2595
      4  O         21.6140   19.3220   -6.6790 O.2    43  TRP43      -0.2718
      5  CB        18.6130   19.8660   -5.1920 C.3    43  TRP43       0.0564
      6  CG        18.9740   18.5990   -4.4630 C.ar   43  TRP43       0.0003
      7  CD1       19.9640   18.4360   -3.5390 C.ar   43  TRP43       0.0946
      8  CD2       18.2910   17.3350   -4.5490 C.ar   43  TRP43       0.0152
      9  NE1       19.9560   17.1470   -3.0600 N.ar   43  TRP43      -0.2442
     10  CE2       18.9260   16.4540   -3.6510 C.ar   43  TRP43       0.0810
     11  CE3       17.1740   16.8740   -5.2720 C.ar   43  TRP43       0.0012
     12  CZ2       18.5110   15.1240   -3.4870 C.ar   43  TRP43       0.0191
     13  CZ3       16.7500   15.5600   -5.0990 C.ar   43  TRP43       0.0001
     14  CH2       17.4170   14.6980   -4.2210 C.ar   43  TRP43       0.0015
     15  N         19.7850   19.3270   -7.9980 N.am   44  ILE44      -0.1980
     16  CA        20.3320   18.5720   -9.1230 C.3    44  ILE44       0.1595
     17  C         20.2500   19.4880  -10.3670 C.2    44  ILE44       0.2287
     18  O         19.1680   19.6800  -10.9440 O.2    44  ILE44      -0.2864
     19  CB        19.6930   17.1720   -9.2990 C.3    44  ILE44       0.0276
     20  CG1       19.6930   16.3970   -7.9380 C.3    44  ILE44       0.0022
     21  CG2       20.4440   16.3920  -10.4010 C.3    44  ILE44       0.0022
     22  CD1       19.1320   14.9290   -7.9190 C.3    44  ILE44       0.0001
     23  N         20.3440   13.1720  -13.7860 N.3    50  PHE50      -0.1241
     24  CA        19.1640   12.2910  -13.7360 C.3    50  PHE50       0.1605
     25  C         19.3080   11.0460  -14.5820 C.2    50  PHE50       0.2264
     26  O         18.8510    9.9800  -14.1700 O.2    50  PHE50      -0.2867
     27  CB        17.8970   13.0550  -14.0840 C.3    50  PHE50       0.0534
     28  CG        17.5370   14.1000  -13.0490 C.ar   50  PHE50      -0.0203
     29  CD1       17.1220   13.7270  -11.7680 C.ar   50  PHE50      -0.0042
     30  CD2       17.5960   15.4570  -13.3550 C.ar   50  PHE50      -0.0042
     31  CE1       16.7810   14.6920  -10.8170 C.ar   50  PHE50      -0.0003
     32  CE2       17.2470   16.4160  -12.4050 C.ar   50  PHE50      -0.0003
     33  CZ        16.8420   16.0250  -11.1450 C.ar   50  PHE50      -0.0000
     34  N         21.7370    8.9110  -12.8720 N.3    53  LEU53      -0.1245
     35  CA        21.0180    8.3180  -11.7390 C.3    53  LEU53       0.1561
     36  C         20.1280    7.1490  -12.1630 C.2    53  LEU53       0.2260
     37  O         20.0650    6.1650  -11.4300 O.2    53  LEU53      -0.2867
     38  CB        20.2210    9.3610  -10.9240 C.3    53  LEU53       0.0270
     39  CG        21.0500   10.2620   -9.9820 C.3    53  LEU53       0.0019
     40  CD1       20.2700   11.4960   -9.5760 C.3    53  LEU53       0.0001
     41  CD2       21.5450    9.5000   -8.7740 C.3    53  LEU53       0.0001
     42  N         22.3900    4.2070  -12.8260 N.3    56  PHE56      -0.1227
     43  CA        22.8330    3.6810  -11.5190 C.3    56  PHE56       0.1736
     44  C         21.7070    2.8920  -10.8270 C.2    56  PHE56       0.2595
     45  O         21.9710    1.8640  -10.2130 O.2    56  PHE56      -0.2718
     46  CB        23.3890    4.8040  -10.6080 C.3    56  PHE56       0.0547
     47  CG        23.5740    4.4380   -9.1500 C.ar   56  PHE56      -0.0202
     48  CD1       24.6660    3.6820   -8.7380 C.ar   56  PHE56      -0.0042
     49  CD2       22.6550    4.8480   -8.1910 C.ar   56  PHE56      -0.0042
     50  CE1       24.8410    3.3390   -7.3910 C.ar   56  PHE56      -0.0003
     51  CE2       22.8210    4.4920   -6.8460 C.ar   56  PHE56      -0.0003
     52  CZ        23.9240    3.7500   -6.4540 C.ar   56  PHE56      -0.0000
     53  N         20.4580    3.3610  -10.9290 N.am   57  LEU57      -0.1980
     54  CA        19.3490    2.6160  -10.3320 C.3    57  LEU57       0.1596
     55  C         18.8880    1.4410  -11.2150 C.2    57  LEU57       0.2287
     56  O         18.0180    0.6760  -10.8150 O.2    57  LEU57      -0.2864
     57  CB        18.1810    3.5370   -9.9350 C.3    57  LEU57       0.0297
     58  CG        18.4920    4.7070   -8.9980 C.3    57  LEU57       0.0022
     59  CD1       17.3070    5.6100   -8.8890 C.3    57  LEU57       0.0001
     60  CD2       18.9410    4.2480   -7.6190 C.3    57  LEU57       0.0001
     61  N         13.1880    6.6460  -17.5230 N.3    63  MET63      -0.1245
     62  CA        12.9620    6.8530  -16.0830 C.3    63  MET63       0.1570
     63  C         13.7410    8.0780  -15.5590 C.2    63  MET63       0.2261
     64  O         13.2220    8.7970  -14.7090 O.2    63  MET63      -0.2867
     65  CB        13.2280    5.5590  -15.2770 C.3    63  MET63       0.0387
     66  CG        13.4700    5.7460  -13.7560 C.3    63  MET63       0.0595
     67  SD        12.0870    6.3610  -12.7490 S.3    63  MET63      -0.1393
     68  CE        12.6830    5.9380  -11.1030 C.3    63  MET63       0.0692
     69  N         12.3750   11.1800  -13.1740 N.3    67  LEU67      -0.1245
     70  CA        13.0740   11.7670  -12.0170 C.3    67  LEU67       0.1561
     71  C         13.3370   13.2380  -12.2140 C.2    67  LEU67       0.2260
     72  O         13.2030   13.9960  -11.2570 O.2    67  LEU67      -0.2867
     73  CB        14.4160   11.0790  -11.7410 C.3    67  LEU67       0.0270
     74  CG        14.3950    9.6490  -11.3050 C.3    67  LEU67       0.0019
     75  CD1       15.8140    9.0940  -11.2790 C.3    67  LEU67       0.0001
     76  CD2       13.6590    9.4810   -9.9890 C.3    67  LEU67       0.0001
     77  N         11.8610   15.9610   -9.6930 N.3    71  PHE71      -0.1241
     78  CA        12.8960   16.5120   -8.8170 C.3    71  PHE71       0.1605
     79  C         13.7720   17.5990   -9.4360 C.2    71  PHE71       0.2264
     80  O         14.6080   18.1720   -8.7360 O.2    71  PHE71      -0.2867
     81  CB        13.7710   15.3830   -8.2610 C.3    71  PHE71       0.0534
     82  CG        13.0060   14.4030   -7.4060 C.ar   71  PHE71      -0.0203
     83  CD1       12.6950   14.7040   -6.0820 C.ar   71  PHE71      -0.0042
     84  CD2       12.6110   13.1740   -7.9160 C.ar   71  PHE71      -0.0042
     85  CE1       11.9890   13.7960   -5.2900 C.ar   71  PHE71      -0.0003
     86  CE2       11.8990   12.2710   -7.1260 C.ar   71  PHE71      -0.0003
     87  CZ        11.5880   12.5870   -5.8180 C.ar   71  PHE71      -0.0000
     88  N         29.0260    6.2850   -3.6980 N.3    99  LEU99      -0.1231
     89  CA        28.8470    5.6890   -5.0220 C.3    99  LEU99       0.1693
     90  C         27.4240    6.0310   -5.5740 C.2    99  LEU99       0.2593
     91  O         26.4390    6.0020   -4.8230 O.2    99  LEU99      -0.2718
     92  CB        29.0920    4.1550   -4.9320 C.3    99  LEU99       0.0284
     93  CG        28.9220    3.3350   -6.1890 C.3    99  LEU99       0.0019
     94  CD1       30.0370    3.6380   -7.1800 C.3    99  LEU99       0.0001
     95  CD2       28.8540    1.8550   -5.8550 C.3    99  LEU99       0.0001
     96  N         27.3570    6.3560   -6.8570 N.am  100  GLY100     -0.1942
     97  CA        26.1390    6.8080   -7.5100 C.3   100  GLY100      0.2014
     98  C         25.6970    8.2240   -7.1520 C.2   100  GLY100      0.2638
     99  O         24.6580    8.6800   -7.6370 O.2   100  GLY100     -0.2714
    100  N         26.4590    8.9330   -6.3060 N.am  101  ALA101     -0.1977
    101  CA        26.1440   10.3050   -5.9120 C.3   101  ALA101      0.1597
    102  C         27.0040   11.2660   -6.7330 C.2   101  ALA101      0.2287
    103  O         27.4890   10.8750   -7.7890 O.2   101  ALA101     -0.2864
    104  CB        26.3820   10.4890   -4.4200 C.3   101  ALA101      0.0319
    105  N         21.2250    5.7510    3.4720 N.3   298  GLN298     -0.1245
    106  CA        20.9440    7.0380    2.8490 C.3   298  GLN298      0.1566
    107  C         20.4600    8.1360    3.8220 C.2   298  GLN298      0.2260
    108  O         20.1780    9.2500    3.3690 O.2   298  GLN298     -0.2867
    109  CB        19.9710    6.8830    1.6710 C.3   298  GLN298      0.0367
    110  CG        20.5630    6.1680    0.4530 C.3   298  GLN298      0.0905
    111  CD        21.9630    6.5740    0.0630 C.2   298  GLN298      0.2608
    112  OE1       22.3220    7.7420    0.0080 O.2   298  GLN298     -0.2717
    113  NE2       22.7940    5.6030   -0.2320 N.am  298  GLN298     -0.0878
    114  N         18.6830   12.6570   -0.2500 N.3   303  PHE303     -0.1241
    115  CA        17.5800   11.7980   -0.7030 C.3   303  PHE303      0.1605
    116  C         16.6040   11.5020    0.4050 C.2   303  PHE303      0.2264
    117  O         15.4420   11.2250    0.1080 O.2   303  PHE303     -0.2867
    118  CB        18.1140   10.4870   -1.2850 C.3   303  PHE303      0.0534
    119  CG        18.9350   10.6420   -2.5410 C.ar  303  PHE303     -0.0203
    120  CD1       18.4090   11.2660   -3.6640 C.ar  303  PHE303     -0.0042
    121  CD2       20.2380   10.1550   -2.6050 C.ar  303  PHE303     -0.0042
    122  CE1       19.1680   11.3950   -4.8310 C.ar  303  PHE303     -0.0003
    123  CE2       20.9870   10.2800   -3.7780 C.ar  303  PHE303     -0.0003
    124  CZ        20.4450   10.9000   -4.8810 C.ar  303  PHE303     -0.0000
    125  N         13.9680   14.1430    0.2640 N.3   306  ALA306     -0.1231
    126  CA        13.3970   14.3350   -1.0820 C.3   306  ALA306      0.1694
    127  C         11.9590   13.8480   -1.2440 C.2   306  ALA306      0.2592
    128  O         11.2490   14.3220   -2.1510 O.2   306  ALA306     -0.2718
    129  CB        14.2910   13.7090   -2.1350 C.3   306  ALA306      0.0304
    130  N         11.5230   12.9150   -0.3600 N.am  307  THR307     -0.1953
    131  CA        10.1990   12.2530   -0.4050 C.3   307  THR307      0.1897
    132  C          9.4880   12.2320    0.9570 C.2   307  THR307      0.2313
    133  O         10.0760   12.5890    1.9770 O.2   307  THR307     -0.2863
    134  CB        10.3140   10.8030   -0.9570 C.3   307  THR307      0.1794
    135  OG1       11.0470    9.9910   -0.0390 O.3   307  THR307     -0.2208
    136  CG2       10.9370   10.7290   -2.3560 C.3   307  THR307      0.0378
    137  N         11.7830    2.7260   -0.4250 N.3   315  LEU315     -0.1245
    138  CA        12.9710    2.9020   -1.2680 C.3   315  LEU315      0.1561
    139  C         14.2910    2.8600   -0.4800 C.2   315  LEU315      0.2260
    140  O         15.3610    3.0310   -1.0750 O.2   315  LEU315     -0.2867
    141  CB        12.8780    4.2260   -2.0710 C.3   315  LEU315      0.0270
    142  CG        11.7480    4.3980   -3.0820 C.3   315  LEU315      0.0019
    143  CD1       11.7350    5.7980   -3.6310 C.3   315  LEU315      0.0001
    144  CD2       11.8570    3.4000   -4.2190 C.3   315  LEU315      0.0001
    145  N         15.3440    5.1040    1.8400 N.3   317  LEU317     -0.1245
    146  CA        15.8930    6.4930    1.9650 C.3   317  LEU317      0.1561
    147  C         15.6200    7.0600    3.3700 C.2   317  LEU317      0.2260
    148  O         16.3060    7.9690    3.8390 O.2   317  LEU317     -0.2867
    149  CB        15.2840    7.4500    0.9100 C.3   317  LEU317      0.0270
    150  CG        15.2320    6.9690   -0.5480 C.3   317  LEU317      0.0019
    151  CD1       14.1150    7.6840   -1.3350 C.3   317  LEU317      0.0001
    152  CD2       16.6010    7.0750   -1.2180 C.3   317  LEU317      0.0001
@<TRIPOS>BOND
     1    61    62    1
     2    62    63    1
     3    62    65    1
     4    63    64    2
     5    65    66    1
     6    25    26    2
     7    25    24    1
     8    27    24    1
     9    27    28    1
    10    23    24    1
    11    66    67    1
    12    30    28   ar
    13    30    32   ar
    14    69    70    1
    15    28    29   ar
    16    34    35    1
    17    42    43    1
    18    67    68    1
    19    32    33   ar
    20    71    70    1
    21    71    72    2
    22    36    35    1
    23    36    37    2
    24    70    73    1
    25    29    31   ar
    26    73    74    1
    27    35    38    1
    28    43    44    1
    29    43    46    1
    30    74    75    1
    31    74    76    1
    32    55    56    2
    33    55    54    1
    34    33    31   ar
    35    18    17    2
    36    53    44   am
    37    53    54    1
    38    38    39    1
    39    44    45    2
    40    46    47    1
    41    21    19    1
    42    17    16    1
    43    54    57    1
    44    39    40    1
    45    39    41    1
    46    57    58    1
    47    77    78    1
    48    79    78    1
    49    79    80    2
    50    19    16    1
    51    19    20    1
    52    47    48   ar
    53    47    49   ar
    54    16    15    1
    55    58    59    1
    56    58    60    1
    57    78    81    1
    58    48    50   ar
    59    81    82    1
    60    49    51   ar
    61    15     3   am
    62    20    22    1
    63    84    82   ar
    64    84    86   ar
    65   103   102    2
    66    99    98    2
    67    97    98    1
    68    97    96    1
    69    82    83   ar
    70    50    52   ar
    71    94    93    1
    72    98   100   am
    73    86    87   ar
    74     3     4    2
    75     3     2    1
    76    96    90   am
    77    51    52   ar
    78   102   101    1
    79     1     2    1
    80   100   101    1
    81    93    95    1
    82    93    92    1
    83    83    85   ar
    84   101   104    1
    85     2     5    1
    86    87    85   ar
    87    90    89    1
    88    90    91    2
    89    11    13   ar
    90    11     8   ar
    91     5     6    1
    92    13    14   ar
    93    89    92    1
    94    89    88    1
    95   124   122   ar
    96   124   123   ar
    97   122   120   ar
    98     8     6   ar
    99     8    10   ar
   100     6     7   ar
   101    14    12   ar
   102   144   142    1
   103   123   121   ar
   104   120   119   ar
   105    10    12   ar
   106    10     9   ar
   107   143   142    1
   108     7     9   ar
   109   142   141    1
   110   121   119   ar
   111   119   118    1
   112   136   134    1
   113   128   127    2
   114   129   126    1
   115   141   138    1
   116   151   150    1
   117   118   115    1
   118   138   139    1
   119   138   137    1
   120   127   126    1
   121   127   130   am
   122   152   150    1
   123   126   125    1
   124   140   139    2
   125   134   131    1
   126   134   135    1
   127   115   114    1
   128   115   116    1
   129   150   149    1
   130   131   130    1
   131   131   132    1
   132   113   111   am
   133   112   111    2
   134   111   110    1
   135   117   116    2
   136   110   109    1
   137   149   146    1
   138   132   133    2
   139   109   106    1
   140   145   146    1
   141   146   147    1
   142   106   105    1
   143   106   107    1
   144   108   107    2
   145   147   148    2
