@<TRIPOS>MOLECULE
tmp/5jarA00.pdb
 144 138 0 0 0
SMALL
GASTEIGER

@<TRIPOS>ATOM
      1  N         19.1460   21.7970   -6.7850 N.3    43  TRP43      -0.1227
      2  CA        19.6920   20.6050   -6.1170 C.3    43  TRP43       0.1737
      3  C         20.4370   19.6890   -7.1110 C.2    43  TRP43       0.2595
      4  O         21.5850   19.3200   -6.8680 O.2    43  TRP43      -0.2718
      5  CB        18.5640   19.8560   -5.3600 C.3    43  TRP43       0.0564
      6  CG        18.9680   18.6080   -4.6070 C.ar   43  TRP43       0.0003
      7  CD1       19.9910   18.4810   -3.7180 C.ar   43  TRP43       0.0946
      8  CD2       18.2990   17.3330   -4.6380 C.ar   43  TRP43       0.0152
      9  NE1       20.0060   17.2050   -3.1980 N.ar   43  TRP43      -0.2442
     10  CE2       18.9790   16.4810   -3.7510 C.ar   43  TRP43       0.0810
     11  CE3       17.1770   16.8320   -5.3380 C.ar   43  TRP43       0.0012
     12  CZ2       18.5870   15.1440   -3.5410 C.ar   43  TRP43       0.0191
     13  CZ3       16.8050   15.5030   -5.1540 C.ar   43  TRP43       0.0001
     14  CH2       17.4960   14.6770   -4.2580 C.ar   43  TRP43       0.0015
     15  N         19.7910   19.3230   -8.2070 N.am   44  ILE44      -0.1980
     16  CA        20.4250   18.5420   -9.2750 C.3    44  ILE44       0.1595
     17  C         20.3770   19.4260  -10.5610 C.2    44  ILE44       0.2287
     18  O         19.3150   19.6150  -11.1390 O.2    44  ILE44      -0.2864
     19  CB        19.7880   17.1270   -9.4330 C.3    44  ILE44       0.0276
     20  CG1       19.8300   16.3050   -8.0760 C.3    44  ILE44       0.0022
     21  CG2       20.4520   16.3620  -10.5830 C.3    44  ILE44       0.0022
     22  CD1       18.9940   14.9720   -8.1210 C.3    44  ILE44       0.0001
     23  N         20.3210   13.0440  -13.9340 N.3    50  PHE50      -0.1241
     24  CA        19.1620   12.1280  -13.8830 C.3    50  PHE50       0.1605
     25  C         19.3330   10.8780  -14.7610 C.2    50  PHE50       0.2264
     26  O         18.9170    9.7970  -14.3530 O.2    50  PHE50      -0.2867
     27  CB        17.8490   12.8650  -14.2010 C.3    50  PHE50       0.0534
     28  CG        17.5140   13.9440  -13.1760 C.ar   50  PHE50      -0.0203
     29  CD1       16.9500   13.6110  -11.9460 C.ar   50  PHE50      -0.0042
     30  CD2       17.7700   15.2900  -13.4460 C.ar   50  PHE50      -0.0042
     31  CE1       16.6470   14.6110  -11.0040 C.ar   50  PHE50      -0.0003
     32  CE2       17.4550   16.2840  -12.5150 C.ar   50  PHE50      -0.0003
     33  CZ        16.9000   15.9420  -11.3010 C.ar   50  PHE50      -0.0000
     34  N         21.7450    8.8670  -12.8250 N.3    53  LEU53      -0.1245
     35  CA        21.0020    8.2750  -11.6900 C.3    53  LEU53       0.1561
     36  C         20.1490    7.0860  -12.1350 C.2    53  LEU53       0.2260
     37  O         20.1340    6.0540  -11.4710 O.2    53  LEU53      -0.2867
     38  CB        20.1690    9.3200  -10.9090 C.3    53  LEU53       0.0270
     39  CG        21.0260   10.2600   -9.9930 C.3    53  LEU53       0.0019
     40  CD1       20.2210   11.5040   -9.5180 C.3    53  LEU53       0.0001
     41  CD2       21.5710    9.5180   -8.7700 C.3    53  LEU53       0.0001
     42  N         22.3620    4.1010  -12.7640 N.3    56  PHE56      -0.1227
     43  CA        22.8660    3.5520  -11.4960 C.3    56  PHE56       0.1736
     44  C         21.7780    2.7490  -10.7780 C.2    56  PHE56       0.2595
     45  O         22.0860    1.7730  -10.0920 O.2    56  PHE56      -0.2718
     46  CB        23.4290    4.6600  -10.5940 C.3    56  PHE56       0.0547
     47  CG        23.6400    4.2880   -9.1450 C.ar   56  PHE56      -0.0202
     48  CD1       24.7300    3.4990   -8.7580 C.ar   56  PHE56      -0.0042
     49  CD2       22.7550    4.7170   -8.1660 C.ar   56  PHE56      -0.0042
     50  CE1       24.9220    3.1440   -7.4090 C.ar   56  PHE56      -0.0003
     51  CE2       22.9390    4.3590   -6.8200 C.ar   56  PHE56      -0.0003
     52  CZ        24.0290    3.5850   -6.4450 C.ar   56  PHE56      -0.0000
     53  N         20.5140    3.1580  -10.9350 N.am   57  LEU57      -0.1980
     54  CA        19.4100    2.4320  -10.3000 C.3    57  LEU57       0.1596
     55  C         18.9540    1.1830  -11.1010 C.2    57  LEU57       0.2287
     56  O         18.0820    0.4670  -10.6420 O.2    57  LEU57      -0.2864
     57  CB        18.2120    3.3770  -10.0280 C.3    57  LEU57       0.0297
     58  CG        18.4760    4.6340   -9.1690 C.3    57  LEU57       0.0022
     59  CD1       17.2900    5.5420   -9.2080 C.3    57  LEU57       0.0001
     60  CD2       18.8290    4.2970   -7.7230 C.3    57  LEU57       0.0001
     61  N         12.3790   11.1040  -13.3720 N.3    67  LEU67      -0.1245
     62  CA        13.0490   11.6490  -12.1760 C.3    67  LEU67       0.1561
     63  C         13.2930   13.1330  -12.3400 C.2    67  LEU67       0.2260
     64  O         13.1200   13.8760  -11.3810 O.2    67  LEU67      -0.2867
     65  CB        14.3830   10.9370  -11.9110 C.3    67  LEU67       0.0270
     66  CG        14.3170    9.4980  -11.4230 C.3    67  LEU67       0.0019
     67  CD1       15.6980    8.9330  -11.3470 C.3    67  LEU67       0.0001
     68  CD2       13.6280    9.4060  -10.0720 C.3    67  LEU67       0.0001
     69  N         11.9370   15.9530   -9.8630 N.3    71  PHE71      -0.1241
     70  CA        12.9610   16.5110   -8.9740 C.3    71  PHE71       0.1605
     71  C         13.8070   17.6290   -9.6020 C.2    71  PHE71       0.2264
     72  O         14.6070   18.2470   -8.8960 O.2    71  PHE71      -0.2867
     73  CB        13.8770   15.3780   -8.4630 C.3    71  PHE71       0.0534
     74  CG        13.1410   14.3460   -7.6320 C.ar   71  PHE71      -0.0203
     75  CD1       12.7500   14.6310   -6.3250 C.ar   71  PHE71      -0.0042
     76  CD2       12.8180   13.0970   -8.1670 C.ar   71  PHE71      -0.0042
     77  CE1       12.0400   13.6870   -5.5620 C.ar   71  PHE71      -0.0003
     78  CE2       12.1300   12.1460   -7.4040 C.ar   71  PHE71      -0.0003
     79  CZ        11.7450   12.4500   -6.0980 C.ar   71  PHE71      -0.0000
     80  N         28.9220    6.1170   -3.8320 N.3    99  LEU99      -0.1231
     81  CA        28.7090    5.4880   -5.1210 C.3    99  LEU99       0.1693
     82  C         27.3400    5.8810   -5.6710 C.2    99  LEU99       0.2593
     83  O         26.3680    5.8240   -4.9400 O.2    99  LEU99      -0.2718
     84  CB        28.7970    3.9380   -4.9820 C.3    99  LEU99       0.0284
     85  CG        28.7070    3.1130   -6.2780 C.3    99  LEU99       0.0019
     86  CD1       29.9040    3.4130   -7.2160 C.3    99  LEU99       0.0001
     87  CD2       28.6410    1.6210   -5.9630 C.3    99  LEU99       0.0001
     88  N         27.2790    6.2680   -6.9470 N.am  100  GLY100     -0.1942
     89  CA        26.0160    6.6990   -7.5480 C.3   100  GLY100      0.2014
     90  C         25.6270    8.1300   -7.2320 C.2   100  GLY100      0.2638
     91  O         24.6450    8.6440   -7.7730 O.2   100  GLY100     -0.2714
     92  N         26.3840    8.8020   -6.3660 N.am  101  ALA101     -0.1977
     93  CA        26.0880   10.1820   -5.9950 C.3   101  ALA101      0.1597
     94  C         26.9560   11.1390   -6.8110 C.2   101  ALA101      0.2287
     95  O         27.4630   10.7510   -7.8520 O.2   101  ALA101     -0.2864
     96  CB        26.2680   10.3750   -4.5020 C.3   101  ALA101      0.0319
     97  N         21.1400    5.5280    3.4480 N.3   298  GLN298     -0.1245
     98  CA        20.8620    6.8140    2.7960 C.3   298  GLN298      0.1566
     99  C         20.3390    7.9170    3.7280 C.2   298  GLN298      0.2260
    100  O         20.0500    9.0190    3.2340 O.2   298  GLN298     -0.2867
    101  CB        19.9120    6.6110    1.5960 C.3   298  GLN298      0.0367
    102  CG        20.5160    5.8190    0.4360 C.3   298  GLN298      0.0905
    103  CD        21.8840    6.3000   -0.0040 C.2   298  GLN298      0.2608
    104  OE1       22.1710    7.4940   -0.0910 O.2   298  GLN298     -0.2717
    105  NE2       22.7770    5.3700   -0.2780 N.am  298  GLN298     -0.0878
    106  N         18.6430   12.4500   -0.3990 N.3   303  PHE303     -0.1241
    107  CA        17.5660   11.5460   -0.8430 C.3   303  PHE303      0.1605
    108  C         16.6110   11.2390    0.2840 C.2   303  PHE303      0.2264
    109  O         15.4530   10.9590    0.0260 O.2   303  PHE303     -0.2867
    110  CB        18.1430   10.2310   -1.4010 C.3   303  PHE303      0.0534
    111  CG        18.9520   10.4140   -2.6550 C.ar  303  PHE303     -0.0203
    112  CD1       18.4150   11.0730   -3.7630 C.ar  303  PHE303     -0.0042
    113  CD2       20.2580    9.9480   -2.7300 C.ar  303  PHE303     -0.0042
    114  CE1       19.1690   11.2480   -4.9280 C.ar  303  PHE303     -0.0003
    115  CE2       21.0180   10.1370   -3.8940 C.ar  303  PHE303     -0.0003
    116  CZ        20.4620   10.7840   -4.9890 C.ar  303  PHE303     -0.0000
    117  N         13.9020   13.8160    0.2120 N.3   306  ALA306     -0.1231
    118  CA        13.3690   14.0600   -1.1420 C.3   306  ALA306      0.1694
    119  C         11.9550   13.5000   -1.3670 C.2   306  ALA306      0.2592
    120  O         11.2690   13.9370   -2.3020 O.2   306  ALA306     -0.2718
    121  CB        14.3330   13.5100   -2.1980 C.3   306  ALA306      0.0304
    122  N         11.5130   12.5250   -0.5380 N.am  307  THR307     -0.1953
    123  CA        10.1610   11.9550   -0.6970 C.3   307  THR307      0.1897
    124  C          9.4260   11.9890    0.6410 C.2   307  THR307      0.2313
    125  O         10.0030   12.3780    1.6650 O.2   307  THR307     -0.2863
    126  CB        10.1980   10.4840   -1.2490 C.3   307  THR307      0.1794
    127  OG1       10.6850    9.6000   -0.2360 O.3   307  THR307     -0.2208
    128  CG2       11.0200   10.3220   -2.5270 C.3   307  THR307      0.0378
    129  N         11.7290    2.7990   -0.6200 N.3   315  LEU315     -0.1245
    130  CA        12.9600    2.9730   -1.3930 C.3   315  LEU315      0.1561
    131  C         14.2430    2.9180   -0.5510 C.2   315  LEU315      0.2260
    132  O         15.3410    3.1430   -1.0940 O.2   315  LEU315     -0.2867
    133  CB        12.9150    4.2840   -2.2340 C.3   315  LEU315      0.0270
    134  CG        11.8040    4.4040   -3.2920 C.3   315  LEU315      0.0019
    135  CD1       11.8270    5.7600   -3.9450 C.3   315  LEU315      0.0001
    136  CD2       11.9680    3.3480   -4.3930 C.3   315  LEU315      0.0001
    137  N         15.2000    5.0650    1.6130 N.3   317  LEU317     -0.1245
    138  CA        15.7760    6.4160    1.7510 C.3   317  LEU317      0.1561
    139  C         15.5990    6.9150    3.1930 C.2   317  LEU317      0.2260
    140  O         16.3040    7.8190    3.6220 O.2   317  LEU317     -0.2867
    141  CB        15.1310    7.3770    0.7390 C.3   317  LEU317      0.0270
    142  CG        15.2000    6.9120   -0.7300 C.3   317  LEU317      0.0019
    143  CD1       14.3840    7.8120   -1.6400 C.3   317  LEU317      0.0001
    144  CD2       16.6090    6.8110   -1.2170 C.3   317  LEU317      0.0001
@<TRIPOS>BOND
     1    25    26    2
     2    25    24    1
     3    27    24    1
     4    27    28    1
     5    23    24    1
     6    30    28   ar
     7    30    32   ar
     8    61    62    1
     9    28    29   ar
    10    34    35    1
    11    42    43    1
    12    32    33   ar
    13    63    62    1
    14    63    64    2
    15    62    65    1
    16    36    35    1
    17    36    37    2
    18    29    31   ar
    19    65    66    1
    20    35    38    1
    21    43    44    1
    22    43    46    1
    23    66    67    1
    24    66    68    1
    25    33    31   ar
    26    18    17    2
    27    55    56    2
    28    55    54    1
    29    53    44   am
    30    53    54    1
    31    38    39    1
    32    44    45    2
    33    46    47    1
    34    21    19    1
    35    17    16    1
    36    54    57    1
    37    57    58    1
    38    39    40    1
    39    39    41    1
    40    69    70    1
    41    71    70    1
    42    71    72    2
    43    19    16    1
    44    19    20    1
    45    16    15    1
    46    59    58    1
    47    58    60    1
    48    47    48   ar
    49    47    49   ar
    50    70    73    1
    51    48    50   ar
    52    73    74    1
    53    15     3   am
    54    76    74   ar
    55    76    78   ar
    56    49    51   ar
    57    22    20    1
    58    95    94    2
    59    91    90    2
    60    74    75   ar
    61    89    90    1
    62    89    88    1
    63    50    52   ar
    64    78    79   ar
    65    90    92   am
    66    86    85    1
    67     3     4    2
    68     3     2    1
    69    88    82   am
    70    51    52   ar
    71    94    93    1
    72     1     2    1
    73    92    93    1
    74    75    77   ar
    75    85    87    1
    76    85    84    1
    77     2     5    1
    78    79    77   ar
    79    93    96    1
    80    82    81    1
    81    82    83    2
    82     5     6    1
    83    11    13   ar
    84    11     8   ar
    85    13    14   ar
    86    81    84    1
    87    81    80    1
    88   116   114   ar
    89   116   115   ar
    90   114   112   ar
    91     8     6   ar
    92     8    10   ar
    93     6     7   ar
    94   136   134    1
    95    14    12   ar
    96   135   134    1
    97   115   113   ar
    98   112   111   ar
    99    10    12   ar
   100    10     9   ar
   101     7     9   ar
   102   134   133    1
   103   113   111   ar
   104   111   110    1
   105   128   126    1
   106   120   119    2
   107   133   130    1
   108   121   118    1
   109   143   142    1
   110   110   107    1
   111   130   129    1
   112   130   131    1
   113   119   118    1
   114   119   122   am
   115   126   123    1
   116   126   127    1
   117   144   142    1
   118   118   117    1
   119   132   131    2
   120   107   106    1
   121   107   108    1
   122   142   141    1
   123   123   122    1
   124   123   124    1
   125   105   103   am
   126   104   103    2
   127   103   102    1
   128   109   108    2
   129   102   101    1
   130   124   125    2
   131   141   138    1
   132   101    98    1
   133   137   138    1
   134   138   139    1
   135    98    97    1
   136    98    99    1
   137   139   140    2
   138   100    99    2
