@<TRIPOS>MOLECULE
tmp/5jasA00.pdb
 144 138 0 0 0
SMALL
GASTEIGER

@<TRIPOS>ATOM
      1  N         19.0510   21.8040   -6.6980 N.3    43  TRP43      -0.1227
      2  CA        19.5950   20.5860   -6.0740 C.3    43  TRP43       0.1737
      3  C         20.3160   19.7040   -7.1030 C.2    43  TRP43       0.2595
      4  O         21.4650   19.3350   -6.8960 O.2    43  TRP43      -0.2718
      5  CB        18.4570   19.8330   -5.3440 C.3    43  TRP43       0.0564
      6  CG        18.8390   18.5800   -4.6020 C.ar   43  TRP43       0.0003
      7  CD1       19.8670   18.4240   -3.7130 C.ar   43  TRP43       0.0946
      8  CD2       18.1140   17.3220   -4.6100 C.ar   43  TRP43       0.0152
      9  NE1       19.8520   17.1470   -3.1960 N.ar   43  TRP43      -0.2442
     10  CE2       18.7850   16.4500   -3.7290 C.ar   43  TRP43       0.0810
     11  CE3       16.9650   16.8590   -5.2810 C.ar   43  TRP43       0.0012
     12  CZ2       18.3650   15.1230   -3.5220 C.ar   43  TRP43       0.0191
     13  CZ3       16.5470   15.5390   -5.0800 C.ar   43  TRP43       0.0001
     14  CH2       17.2430   14.6860   -4.2110 C.ar   43  TRP43       0.0015
     15  N         19.6580   19.3670   -8.2010 N.am   44  ILE44      -0.1980
     16  CA        20.2930   18.5560   -9.2450 C.3    44  ILE44       0.1595
     17  C         20.2520   19.4340  -10.5080 C.2    44  ILE44       0.2287
     18  O         19.2120   19.5760  -11.1260 O.2    44  ILE44      -0.2864
     19  CB        19.6580   17.1270   -9.4000 C.3    44  ILE44       0.0276
     20  CG1       19.7480   16.3140   -8.0610 C.3    44  ILE44       0.0022
     21  CG2       20.3330   16.3300  -10.5480 C.3    44  ILE44       0.0022
     22  CD1       18.8850   15.0300   -8.0370 C.3    44  ILE44       0.0001
     23  N         20.2660   13.0200  -13.7940 N.3    50  PHE50      -0.1241
     24  CA        19.0910   12.1290  -13.8080 C.3    50  PHE50       0.1605
     25  C         19.2370   10.9050  -14.6830 C.2    50  PHE50       0.2264
     26  O         18.7750    9.8680  -14.2520 O.2    50  PHE50      -0.2867
     27  CB        17.8290   12.8970  -14.1690 C.3    50  PHE50       0.0534
     28  CG        17.4820   13.9410  -13.1320 C.ar   50  PHE50      -0.0203
     29  CD1       16.9610   13.5670  -11.8880 C.ar   50  PHE50      -0.0042
     30  CD2       17.6580   15.3000  -13.4010 C.ar   50  PHE50      -0.0042
     31  CE1       16.6340   14.5330  -10.9330 C.ar   50  PHE50      -0.0003
     32  CE2       17.3050   16.2610  -12.4540 C.ar   50  PHE50      -0.0003
     33  CZ        16.7950   15.8730  -11.2330 C.ar   50  PHE50      -0.0000
     34  N         21.6040    8.8600  -12.6710 N.3    53  LEU53      -0.1245
     35  CA        20.8850    8.2580  -11.5410 C.3    53  LEU53       0.1561
     36  C         20.0590    7.0480  -11.9480 C.2    53  LEU53       0.2260
     37  O         20.0100    6.0690  -11.2100 O.2    53  LEU53      -0.2867
     38  CB        20.0360    9.2910  -10.7680 C.3    53  LEU53       0.0270
     39  CG        20.8740   10.2120   -9.8640 C.3    53  LEU53       0.0019
     40  CD1       20.1120   11.5210   -9.4940 C.3    53  LEU53       0.0001
     41  CD2       21.3830    9.4660   -8.6140 C.3    53  LEU53       0.0001
     42  N         22.3420    4.0980  -12.5250 N.3    56  PHE56      -0.1227
     43  CA        22.7970    3.5670  -11.2350 C.3    56  PHE56       0.1736
     44  C         21.6720    2.7280  -10.5830 C.2    56  PHE56       0.2595
     45  O         21.9430    1.6940   -9.9680 O.2    56  PHE56      -0.2718
     46  CB        23.2600    4.6930  -10.2880 C.3    56  PHE56       0.0547
     47  CG        23.4980    4.2930   -8.8480 C.ar   56  PHE56      -0.0202
     48  CD1       24.5830    3.4930   -8.4980 C.ar   56  PHE56      -0.0042
     49  CD2       22.6590    4.7390   -7.8380 C.ar   56  PHE56      -0.0042
     50  CE1       24.8080    3.1320   -7.1670 C.ar   56  PHE56      -0.0003
     51  CE2       22.8850    4.3760   -6.5100 C.ar   56  PHE56      -0.0003
     52  CZ        23.9590    3.5790   -6.1810 C.ar   56  PHE56      -0.0000
     53  N         20.4180    3.1630  -10.7320 N.am   57  LEU57      -0.1980
     54  CA        19.2880    2.4430  -10.1130 C.3    57  LEU57       0.1596
     55  C         18.8630    1.2070  -10.9320 C.2    57  LEU57       0.2287
     56  O         18.0360    0.4350  -10.4810 O.2    57  LEU57      -0.2864
     57  CB        18.1050    3.4000   -9.8760 C.3    57  LEU57       0.0297
     58  CG        18.3470    4.5840   -8.9090 C.3    57  LEU57       0.0022
     59  CD1       17.0850    5.4080   -8.7600 C.3    57  LEU57       0.0001
     60  CD2       18.8690    4.1230   -7.5080 C.3    57  LEU57       0.0001
     61  N         12.2520   11.1150  -13.3270 N.3    67  LEU67      -0.1245
     62  CA        12.9530   11.6500  -12.1320 C.3    67  LEU67       0.1561
     63  C         13.1700   13.1340  -12.2920 C.2    67  LEU67       0.2260
     64  O         12.9310   13.8880  -11.3430 O.2    67  LEU67      -0.2867
     65  CB        14.3050   10.9590  -11.8490 C.3    67  LEU67       0.0270
     66  CG        14.2860    9.4910  -11.4370 C.3    67  LEU67       0.0019
     67  CD1       15.7030    8.9860  -11.2700 C.3    67  LEU67       0.0001
     68  CD2       13.4720    9.2820  -10.1710 C.3    67  LEU67       0.0001
     69  N         11.7740   15.9420   -9.8220 N.3    71  PHE71      -0.1241
     70  CA        12.8090   16.4470   -8.8980 C.3    71  PHE71       0.1605
     71  C         13.6460   17.5630   -9.5000 C.2    71  PHE71       0.2264
     72  O         14.4670   18.1450   -8.8000 O.2    71  PHE71      -0.2867
     73  CB        13.6940   15.2860   -8.4060 C.3    71  PHE71       0.0534
     74  CG        12.9030   14.3230   -7.5600 C.ar   71  PHE71      -0.0203
     75  CD1       12.5130   14.6660   -6.2690 C.ar   71  PHE71      -0.0042
     76  CD2       12.5270   13.0770   -8.0610 C.ar   71  PHE71      -0.0042
     77  CE1       11.7540   13.7810   -5.4900 C.ar   71  PHE71      -0.0003
     78  CE2       11.7700   12.1950   -7.2920 C.ar   71  PHE71      -0.0003
     79  CZ        11.3880   12.5500   -6.0040 C.ar   71  PHE71      -0.0000
     80  N         28.8690    6.1340   -3.7510 N.3    99  LEU99      -0.1231
     81  CA        28.7070    5.5100   -5.0610 C.3    99  LEU99       0.1693
     82  C         27.3140    5.8590   -5.6080 C.2    99  LEU99       0.2593
     83  O         26.3490    5.7820   -4.8720 O.2    99  LEU99      -0.2718
     84  CB        28.8930    3.9670   -4.9350 C.3    99  LEU99       0.0284
     85  CG        28.7140    3.1290   -6.1970 C.3    99  LEU99       0.0019
     86  CD1       29.8660    3.4060   -7.2020 C.3    99  LEU99       0.0001
     87  CD2       28.6580    1.6420   -5.8420 C.3    99  LEU99       0.0001
     88  N         27.2340    6.2310   -6.8840 N.am  100  GLY100     -0.1942
     89  CA        25.9830    6.6750   -7.4870 C.3   100  GLY100      0.2014
     90  C         25.5810    8.0910   -7.1390 C.2   100  GLY100      0.2638
     91  O         24.5440    8.5720   -7.6150 O.2   100  GLY100     -0.2714
     92  N         26.3690    8.7830   -6.3020 N.am  101  ALA101     -0.1977
     93  CA        26.0410   10.1650   -5.9310 C.3   101  ALA101      0.1597
     94  C         26.8750   11.1280   -6.7340 C.2   101  ALA101      0.2287
     95  O         27.3590   10.7520   -7.7740 O.2   101  ALA101     -0.2864
     96  CB        26.1890   10.3850   -4.4350 C.3   101  ALA101      0.0319
     97  N         20.9840    5.5990    3.6290 N.3   298  GLN298     -0.1245
     98  CA        20.7030    6.8650    2.9500 C.3   298  GLN298      0.1566
     99  C         20.2010    7.9570    3.8810 C.2   298  GLN298      0.2260
    100  O         19.9390    9.0560    3.3830 O.2   298  GLN298     -0.2867
    101  CB        19.7350    6.6590    1.7420 C.3   298  GLN298      0.0367
    102  CG        20.3610    6.0130    0.4760 C.3   298  GLN298      0.0905
    103  CD        21.7670    6.4710    0.0980 C.2   298  GLN298      0.2608
    104  OE1       22.0860    7.6530    0.0150 O.2   298  GLN298     -0.2717
    105  NE2       22.6490    5.5350   -0.1640 N.am  298  GLN298     -0.0878
    106  N         18.5690   12.4340   -0.2740 N.3   303  PHE303     -0.1241
    107  CA        17.4750   11.6290   -0.8040 C.3   303  PHE303      0.1605
    108  C         16.4920   11.3510    0.3080 C.2   303  PHE303      0.2264
    109  O         15.3340   11.2000    0.0250 O.2   303  PHE303     -0.2867
    110  CB        17.9950   10.3230   -1.4120 C.3   303  PHE303      0.0534
    111  CG        18.8380   10.4730   -2.6630 C.ar  303  PHE303     -0.0203
    112  CD1       18.3010   11.0260   -3.8240 C.ar  303  PHE303     -0.0042
    113  CD2       20.1590   10.0520   -2.6810 C.ar  303  PHE303     -0.0042
    114  CE1       19.0660   11.1520   -4.9720 C.ar  303  PHE303     -0.0003
    115  CE2       20.9350   10.1880   -3.8350 C.ar  303  PHE303     -0.0003
    116  CZ        20.3890   10.7370   -4.9750 C.ar  303  PHE303     -0.0000
    117  N         13.8320   13.9330    0.1460 N.3   306  ALA306     -0.1231
    118  CA        13.2510   14.2010   -1.1830 C.3   306  ALA306      0.1694
    119  C         11.8450   13.6440   -1.3730 C.2   306  ALA306      0.2592
    120  O         11.1330   14.1070   -2.2670 O.2   306  ALA306     -0.2718
    121  CB        14.1770   13.6880   -2.2840 C.3   306  ALA306      0.0304
    122  N         11.4420   12.6390   -0.5430 N.am  307  THR307     -0.1953
    123  CA        10.1070   12.0360   -0.6120 C.3   307  THR307      0.1897
    124  C          9.3880   12.1090    0.7660 C.2   307  THR307      0.2313
    125  O          9.9960   12.4790    1.7750 O.2   307  THR307     -0.2863
    126  CB        10.1700   10.5680   -1.1090 C.3   307  THR307      0.1794
    127  OG1       10.6910    9.7610   -0.0640 O.3   307  THR307     -0.2208
    128  CG2       10.9760   10.3800   -2.3910 C.3   307  THR307      0.0378
    129  N         11.3770    2.9110   -0.5460 N.3   315  LEU315     -0.1245
    130  CA        12.5710    3.0100   -1.3890 C.3   315  LEU315      0.1561
    131  C         13.8670    2.8820   -0.5790 C.2   315  LEU315      0.2260
    132  O         14.9650    3.0500   -1.1420 O.2   315  LEU315     -0.2867
    133  CB        12.5690    4.3410   -2.1630 C.3   315  LEU315      0.0270
    134  CG        11.4860    4.5620   -3.2010 C.3   315  LEU315      0.0019
    135  CD1       11.5220    5.9830   -3.6880 C.3   315  LEU315      0.0001
    136  CD2       11.7000    3.6720   -4.3950 C.3   315  LEU315      0.0001
    137  N         14.9080    4.9280    1.6740 N.3   317  LEU317     -0.1245
    138  CA        15.5250    6.2640    1.7760 C.3   317  LEU317      0.1561
    139  C         15.3610    6.7800    3.1840 C.2   317  LEU317      0.2260
    140  O         16.0630    7.7050    3.5850 O.2   317  LEU317     -0.2867
    141  CB        14.9480    7.2580    0.7390 C.3   317  LEU317      0.0270
    142  CG        15.0870    6.8480   -0.7450 C.3   317  LEU317      0.0019
    143  CD1       14.2080    7.7020   -1.6290 C.3   317  LEU317      0.0001
    144  CD2       16.5150    6.8160   -1.1950 C.3   317  LEU317      0.0001
@<TRIPOS>BOND
     1    25    26    2
     2    25    24    1
     3    27    24    1
     4    27    28    1
     5    24    23    1
     6    30    28   ar
     7    30    32   ar
     8    61    62    1
     9    28    29   ar
    10    34    35    1
    11    42    43    1
    12    32    33   ar
    13    63    62    1
    14    63    64    2
    15    62    65    1
    16    36    35    1
    17    36    37    2
    18    29    31   ar
    19    65    66    1
    20    35    38    1
    21    66    67    1
    22    66    68    1
    23    43    44    1
    24    43    46    1
    25    33    31   ar
    26    18    17    2
    27    55    56    2
    28    55    54    1
    29    38    39    1
    30    53    44   am
    31    53    54    1
    32    44    45    2
    33    21    19    1
    34    17    16    1
    35    46    47    1
    36    54    57    1
    37    57    58    1
    38    39    40    1
    39    39    41    1
    40    69    70    1
    41    71    70    1
    42    71    72    2
    43    19    16    1
    44    19    20    1
    45    16    15    1
    46    58    59    1
    47    58    60    1
    48    70    73    1
    49    47    48   ar
    50    47    49   ar
    51    48    50   ar
    52    73    74    1
    53    15     3   am
    54    20    22    1
    55    76    74   ar
    56    76    78   ar
    57    49    51   ar
    58    95    94    2
    59    91    90    2
    60    74    75   ar
    61    89    90    1
    62    89    88    1
    63    78    79   ar
    64    86    85    1
    65    50    52   ar
    66    90    92   am
    67     3     4    2
    68     3     2    1
    69    88    82   am
    70    94    93    1
    71     1     2    1
    72    51    52   ar
    73    92    93    1
    74    75    77   ar
    75    85    87    1
    76    85    84    1
    77     2     5    1
    78    79    77   ar
    79    93    96    1
    80    82    81    1
    81    82    83    2
    82     5     6    1
    83    11    13   ar
    84    11     8   ar
    85    13    14   ar
    86    81    84    1
    87    81    80    1
    88   116   114   ar
    89   116   115   ar
    90   114   112   ar
    91     8     6   ar
    92     8    10   ar
    93     6     7   ar
    94   136   134    1
    95    14    12   ar
    96   115   113   ar
    97   112   111   ar
    98    10    12   ar
    99    10     9   ar
   100     7     9   ar
   101   135   134    1
   102   134   133    1
   103   113   111   ar
   104   111   110    1
   105   128   126    1
   106   121   118    1
   107   120   119    2
   108   133   130    1
   109   143   142    1
   110   110   107    1
   111   130   131    1
   112   130   129    1
   113   119   118    1
   114   119   122   am
   115   144   142    1
   116   118   117    1
   117   132   131    2
   118   126   123    1
   119   126   127    1
   120   107   106    1
   121   107   108    1
   122   142   141    1
   123   123   122    1
   124   123   124    1
   125   105   103   am
   126   104   103    2
   127   109   108    2
   128   103   102    1
   129   102   101    1
   130   141   138    1
   131   124   125    2
   132   137   138    1
   133   101    98    1
   134   138   139    1
   135    98    97    1
   136    98    99    1
   137   139   140    2
   138   100    99    2
