@<TRIPOS>MOLECULE
tmp/5jatA00.pdb
 207 200 0 0 0
SMALL
GASTEIGER

@<TRIPOS>ATOM
      1  N         19.3210   21.9230   -6.8860 N.3    43  TRP43      -0.1227
      2  CA        19.8270   20.7440   -6.1910 C.3    43  TRP43       0.1737
      3  C         20.5590   19.8000   -7.1310 C.2    43  TRP43       0.2595
      4  O         21.6860   19.3950   -6.8420 O.2    43  TRP43      -0.2718
      5  CB        18.6580   20.0480   -5.4480 C.3    43  TRP43       0.0564
      6  CG        19.0310   18.8070   -4.6710 C.ar   43  TRP43       0.0003
      7  CD1       20.0640   18.6550   -3.8000 C.ar   43  TRP43       0.0946
      8  CD2       18.3000   17.5720   -4.6490 C.ar   43  TRP43       0.0152
      9  NE1       20.0240   17.3960   -3.2350 N.ar   43  TRP43      -0.2442
     10  CE2       18.9610   16.7080   -3.7540 C.ar   43  TRP43       0.0810
     11  CE3       17.1380   17.1120   -5.3070 C.ar   43  TRP43       0.0012
     12  CZ2       18.5200   15.4030   -3.5150 C.ar   43  TRP43       0.0191
     13  CZ3       16.7070   15.8080   -5.0780 C.ar   43  TRP43       0.0001
     14  CH2       17.3790   14.9780   -4.1780 C.ar   43  TRP43       0.0015
     15  N         19.9180   19.4390   -8.2420 N.am   44  ILE44      -0.1980
     16  CA        20.5160   18.6000   -9.2710 C.3    44  ILE44       0.1595
     17  C         20.4560   19.4800  -10.5270 C.2    44  ILE44       0.2287
     18  O         19.4040   19.6320  -11.1170 O.2    44  ILE44      -0.2864
     19  CB        19.7900   17.2280   -9.4200 C.3    44  ILE44       0.0276
     20  CG1       19.7920   16.4320   -8.0640 C.3    44  ILE44       0.0022
     21  CG2       20.4630   16.4100  -10.5430 C.3    44  ILE44       0.0022
     22  CD1       18.9210   15.1240   -8.0470 C.3    44  ILE44       0.0001
     23  N         20.3660   13.2720  -13.8430 N.3    50  PHE50      -0.1241
     24  CA        19.1880   12.3990  -13.8060 C.3    50  PHE50       0.1605
     25  C         19.3310   11.1380  -14.6720 C.2    50  PHE50       0.2264
     26  O         18.9020   10.0720  -14.2470 O.2    50  PHE50      -0.2867
     27  CB        17.9280   13.1880  -14.1580 C.3    50  PHE50       0.0534
     28  CG        17.5700   14.2360  -13.1210 C.ar   50  PHE50      -0.0203
     29  CD1       16.9990   13.8650  -11.8980 C.ar   50  PHE50      -0.0042
     30  CD2       17.7820   15.5910  -13.3740 C.ar   50  PHE50      -0.0042
     31  CE1       16.6530   14.8320  -10.9490 C.ar   50  PHE50      -0.0003
     32  CE2       17.4420   16.5540  -12.4300 C.ar   50  PHE50      -0.0003
     33  CZ        16.8720   16.1710  -11.2230 C.ar   50  PHE50      -0.0000
     34  N         21.7530    9.0000  -12.6770 N.3    53  LEU53      -0.1245
     35  CA        21.0230    8.3990  -11.5500 C.3    53  LEU53       0.1561
     36  C         20.1400    7.2460  -12.0260 C.2    53  LEU53       0.2260
     37  O         20.1010    6.2120  -11.3760 O.2    53  LEU53      -0.2867
     38  CB        20.2040    9.4260  -10.7440 C.3    53  LEU53       0.0270
     39  CG        21.0590   10.4610   -9.9450 C.3    53  LEU53       0.0019
     40  CD1       20.2350   11.7310   -9.6160 C.3    53  LEU53       0.0001
     41  CD2       21.7040    9.8510   -8.6780 C.3    53  LEU53       0.0001
     42  N         22.2930    4.2840  -12.6840 N.3    56  PHE56      -0.1227
     43  CA        22.7610    3.6970  -11.4230 C.3    56  PHE56       0.1736
     44  C         21.6300    2.9130  -10.7210 C.2    56  PHE56       0.2595
     45  O         21.9030    1.9260  -10.0340 O.2    56  PHE56      -0.2718
     46  CB        23.3660    4.7730  -10.4950 C.3    56  PHE56       0.0547
     47  CG        23.6690    4.3340   -9.0840 C.ar   56  PHE56      -0.0202
     48  CD1       24.7870    3.5450   -8.8070 C.ar   56  PHE56      -0.0042
     49  CD2       22.8580    4.7290   -8.0270 C.ar   56  PHE56      -0.0042
     50  CE1       25.0770    3.1410   -7.5060 C.ar   56  PHE56      -0.0003
     51  CE2       23.1380    4.3180   -6.7200 C.ar   56  PHE56      -0.0003
     52  CZ        24.2530    3.5250   -6.4660 C.ar   56  PHE56      -0.0000
     53  N         20.3800    3.3450  -10.8890 N.am   57  LEU57      -0.1980
     54  CA        19.2610    2.6590  -10.2270 C.3    57  LEU57       0.1596
     55  C         18.7900    1.3840  -10.9740 C.2    57  LEU57       0.2287
     56  O         17.9650    0.6530  -10.4550 O.2    57  LEU57      -0.2864
     57  CB        18.0840    3.6250   -9.9450 C.3    57  LEU57       0.0297
     58  CG        18.3850    4.7820   -8.9710 C.3    57  LEU57       0.0022
     59  CD1       17.2520    5.7770   -8.9570 C.3    57  LEU57       0.0001
     60  CD2       18.7030    4.2850   -7.5540 C.3    57  LEU57       0.0001
     61  N         13.2850    6.8880  -17.5400 N.3    63  MET63      -0.1245
     62  CA        12.9310    7.0710  -16.1240 C.3    63  MET63       0.1570
     63  C         13.7000    8.2910  -15.5900 C.2    63  MET63       0.2261
     64  O         13.1880    9.0080  -14.7400 O.2    63  MET63      -0.2867
     65  CB        13.1770    5.7780  -15.3180 C.3    63  MET63       0.0387
     66  CG        13.3420    5.9550  -13.8040 C.3    63  MET63       0.0595
     67  SD        11.8630    6.3890  -12.8390 S.3    63  MET63      -0.1393
     68  CE        12.2920    5.6120  -11.2530 C.3    63  MET63       0.0692
     69  N         12.2190   11.3390  -13.3870 N.3    67  LEU67      -0.1245
     70  CA        12.9220   11.9460  -12.2290 C.3    67  LEU67       0.1561
     71  C         13.2290   13.4360  -12.4290 C.2    67  LEU67       0.2260
     72  O         13.0500   14.2110  -11.5000 O.2    67  LEU67      -0.2867
     73  CB        14.1800   11.1700  -11.8200 C.3    67  LEU67       0.0270
     74  CG        13.9160    9.7480  -11.2720 C.3    67  LEU67       0.0019
     75  CD1       15.2180    9.0160  -11.0020 C.3    67  LEU67       0.0001
     76  CD2       13.0190    9.7710  -10.0350 C.3    67  LEU67       0.0001
     77  N         11.9270   16.2810  -10.0390 N.3    71  PHE71      -0.1241
     78  CA        12.9350   16.8280   -9.1260 C.3    71  PHE71       0.1605
     79  C         13.8220   17.9260   -9.7210 C.2    71  PHE71       0.2264
     80  O         14.6060   18.5300   -8.9790 O.2    71  PHE71      -0.2867
     81  CB        13.8040   15.6820   -8.5490 C.3    71  PHE71       0.0534
     82  CG        12.9960   14.7010   -7.7280 C.ar   71  PHE71      -0.0203
     83  CD1       12.5830   15.0230   -6.4360 C.ar   71  PHE71      -0.0042
     84  CD2       12.6510   13.4580   -8.2440 C.ar   71  PHE71      -0.0042
     85  CE1       11.8110   14.1280   -5.6830 C.ar   71  PHE71      -0.0003
     86  CE2       11.8890   12.5530   -7.4880 C.ar   71  PHE71      -0.0003
     87  CZ        11.4740   12.8990   -6.2090 C.ar   71  PHE71      -0.0000
     88  N         29.3090    9.3580   -1.9660 N.3    98  GLY98      -0.1210
     89  CA        29.1980    7.9040   -2.1560 C.3    98  GLY98       0.1956
     90  C         29.1390    7.4630   -3.6060 C.2    98  GLY98       0.2612
     91  O         29.1000    8.2950   -4.5320 O.2    98  GLY98      -0.2717
     92  N         29.1560    6.1240   -3.8120 N.am   99  LEU99      -0.1965
     93  CA        28.9690    5.5020   -5.1080 C.3    99  LEU99       0.1728
     94  C         27.5800    5.8680   -5.6540 C.2    99  LEU99       0.2617
     95  O         26.6170    5.7950   -4.9140 O.2    99  LEU99      -0.2715
     96  CB        29.0880    3.9550   -4.9920 C.3    99  LEU99       0.0311
     97  CG        28.9070    3.1710   -6.3040 C.3    99  LEU99       0.0022
     98  CD1       30.0780    3.4720   -7.2800 C.3    99  LEU99       0.0001
     99  CD2       28.8010    1.6630   -6.0230 C.3    99  LEU99       0.0001
    100  N         27.5070    6.2650   -6.9230 N.am  100  GLY100     -0.1940
    101  CA        26.2490    6.6640   -7.5560 C.3   100  GLY100      0.2014
    102  C         25.8190    8.0770   -7.2180 C.2   100  GLY100      0.2638
    103  O         24.7700    8.5290   -7.6880 O.2   100  GLY100     -0.2714
    104  N         26.6060    8.7860   -6.3950 N.am  101  ALA101     -0.1977
    105  CA        26.2700   10.1750   -5.9950 C.3   101  ALA101      0.1597
    106  C         27.0790   11.1440   -6.8240 C.2   101  ALA101      0.2287
    107  O         27.5760   10.7680   -7.8880 O.2   101  ALA101     -0.2864
    108  CB        26.5260   10.3730   -4.4930 C.3   101  ALA101      0.0319
    109  N         24.7000   16.2510   -3.5890 N.3   105  LEU105     -0.1231
    110  CA        23.7160   15.3880   -2.9210 C.3   105  LEU105      0.1693
    111  C         23.9010   15.2550   -1.4160 C.2   105  LEU105      0.2592
    112  O         23.2460   14.4230   -0.7640 O.2   105  LEU105     -0.2718
    113  CB        23.6860   13.9930   -3.5940 C.3   105  LEU105      0.0284
    114  CG        23.1880   13.9960   -5.0560 C.3   105  LEU105      0.0019
    115  CD1       23.3640   12.6080   -5.7080 C.3   105  LEU105      0.0001
    116  CD2       21.7310   14.4350   -5.1480 C.3   105  LEU105      0.0001
    117  N         24.7940   16.0610   -0.8630 N.am  106  TYR106     -0.1976
    118  CA        25.0100   16.0540    0.5800 C.3   106  TYR106      0.1639
    119  C         24.9350   17.4940    1.1040 C.2   106  TYR106      0.2290
    120  O         25.7340   17.9060    1.9560 O.2   106  TYR106     -0.2864
    121  CB        26.3610   15.4000    0.8900 C.3   106  TYR106      0.0560
    122  CG        26.4460   13.9320    0.5190 C.ar  106  TYR106     -0.0198
    123  CD1       26.2010   12.9400    1.4620 C.ar  106  TYR106     -0.0009
    124  CD2       26.7840   13.5350   -0.7770 C.ar  106  TYR106     -0.0009
    125  CE1       26.2980   11.5870    1.1300 C.ar  106  TYR106      0.0417
    126  CE2       26.8740   12.1860   -1.1220 C.ar  106  TYR106      0.0417
    127  CZ        26.6610   11.2170   -0.1570 C.ar  106  TYR106      0.1957
    128  OH        26.7830    9.8860   -0.4920 O.3   106  TYR106     -0.2866
    129  N         30.7670    9.9790    3.0040 N.3   218  HIS218     -0.1226
    130  CA        29.7600    8.9310    3.2150 C.3   218  HIS218      0.1752
    131  C         30.0270    7.7040    2.3340 C.2   218  HIS218      0.2596
    132  O         30.2770    7.8650    1.1440 O.2   218  HIS218     -0.2718
    133  CB        28.3720    9.5040    2.8660 C.3   218  HIS218      0.0759
    134  CG        27.2450    8.4760    2.8150 C.ar  218  HIS218      0.0818
    135  ND1       26.5170    8.2470    1.6490 N.ar  218  HIS218     -0.2268
    136  CD2       26.7640    7.6810    3.7960 C.ar  218  HIS218      0.1154
    137  CE1       25.6280    7.3150    1.9510 C.ar  218  HIS218      0.1986
    138  NE2       25.7230    6.9450    3.2380 N.ar  218  HIS218     -0.2212
    139  N         29.9590    6.4950    2.9030 N.am  219  SER219     -0.1952
    140  CA        29.9410    5.2380    2.1340 C.3   219  SER219      0.1924
    141  C         31.3110    5.0380    1.4230 C.2   219  SER219      0.2314
    142  O         32.3170    4.8760    2.1160 O.2   219  SER219     -0.2863
    143  CB        28.7380    5.2070    1.1710 C.3   219  SER219      0.2116
    144  OG        28.4370    3.8820    0.7530 O.3   219  SER219     -0.2180
    145  N         21.4030    3.5120    5.4990 N.3   297  HIS297     -0.1226
    146  CA        22.5050    4.1020    4.7460 C.3   297  HIS297      0.1752
    147  C         22.1570    5.4340    4.1280 C.2   297  HIS297      0.2595
    148  O         22.9970    6.3340    4.0960 O.2   297  HIS297     -0.2718
    149  CB        22.9010    3.1330    3.6210 C.3   297  HIS297      0.0759
    150  CG        24.3090    3.2750    3.1310 C.ar  297  HIS297      0.0818
    151  ND1       25.3880    3.3060    4.0110 N.ar  297  HIS297     -0.2268
    152  CD2       24.7760    3.3290    1.8550 C.ar  297  HIS297      0.1154
    153  CE1       26.4770    3.3920    3.2520 C.ar  297  HIS297      0.1986
    154  NE2       26.1550    3.4110    1.9450 N.ar  297  HIS297     -0.2212
    155  N         20.9060    5.5650    3.6280 N.am  298  GLN298     -0.1979
    156  CA        20.4540    6.7760    2.9360 C.3   298  GLN298      0.1601
    157  C         20.2330    7.9660    3.8740 C.2   298  GLN298      0.2287
    158  O         20.0770    9.0820    3.3650 O.2   298  GLN298     -0.2864
    159  CB        19.1760    6.4730    2.1030 C.3   298  GLN298      0.0394
    160  CG        19.4650    5.6720    0.8200 C.3   298  GLN298      0.0908
    161  CD        20.1400    6.4210   -0.3060 C.2   298  GLN298      0.2608
    162  OE1       20.8240    7.4370   -0.1480 O.2   298  GLN298     -0.2717
    163  NE2       20.0360    5.8620   -1.4720 N.am  298  GLN298     -0.0878
    164  N         22.5070   11.0480    3.1430 N.3   301  ALA301     -0.1245
    165  CA        22.4910   11.8110    1.8880 C.3   301  ALA301      0.1562
    166  C         21.1240   12.5200    1.7350 C.2   301  ALA301      0.2260
    167  O         20.2160   12.2750    2.5250 O.2   301  ALA301     -0.2867
    168  CB        22.7940   10.8920    0.6940 C.3   301  ALA301      0.0290
    169  N         18.6090   12.3480   -0.3840 N.3   303  PHE303     -0.1241
    170  CA        17.4150   11.6960   -0.9050 C.3   303  PHE303      0.1605
    171  C         16.4390   11.3950    0.2310 C.2   303  PHE303      0.2264
    172  O         15.2560   11.2620   -0.0200 O.2   303  PHE303     -0.2867
    173  CB        17.7390   10.4280   -1.7140 C.3   303  PHE303      0.0534
    174  CG        18.5640   10.6680   -2.9570 C.ar  303  PHE303     -0.0203
    175  CD1       18.0600   11.4210   -4.0160 C.ar  303  PHE303     -0.0042
    176  CD2       19.8320   10.1170   -3.0830 C.ar  303  PHE303     -0.0042
    177  CE1       18.8180   11.6220   -5.1730 C.ar  303  PHE303     -0.0003
    178  CE2       20.6040   10.3410   -4.2370 C.ar  303  PHE303     -0.0003
    179  CZ        20.0970   11.0900   -5.2710 C.ar  303  PHE303     -0.0000
    180  N         13.9140   14.0440    0.1770 N.3   306  ALA306     -0.1231
    181  CA        13.3340   14.3870   -1.1260 C.3   306  ALA306      0.1694
    182  C         11.8820   13.9030   -1.3340 C.2   306  ALA306      0.2592
    183  O         11.2030   14.3840   -2.2520 O.2   306  ALA306     -0.2718
    184  CB        14.2310   13.8970   -2.2460 C.3   306  ALA306      0.0304
    185  N         11.4060   12.9550   -0.5030 N.am  307  THR307     -0.1953
    186  CA        10.0420   12.4080   -0.6200 C.3   307  THR307      0.1897
    187  C          9.3760   12.3980    0.7520 C.2   307  THR307      0.2313
    188  O         10.0200   12.6810    1.7650 O.2   307  THR307     -0.2863
    189  CB        10.0450   10.9450   -1.1920 C.3   307  THR307      0.1794
    190  OG1       10.5560   10.0470   -0.2020 O.3   307  THR307     -0.2208
    191  CG2       10.8330   10.7940   -2.5060 C.3   307  THR307      0.0378
    192  N         11.2980    3.1290   -0.7330 N.3   315  LEU315     -0.1245
    193  CA        12.5270    3.2690   -1.5240 C.3   315  LEU315      0.1561
    194  C         13.8060    3.0940   -0.7240 C.2   315  LEU315      0.2260
    195  O         14.9080    3.2270   -1.2900 O.2   315  LEU315     -0.2867
    196  CB        12.5480    4.6020   -2.2890 C.3   315  LEU315      0.0270
    197  CG        11.4140    4.8240   -3.2970 C.3   315  LEU315      0.0019
    198  CD1       11.3960    6.2370   -3.7530 C.3   315  LEU315      0.0001
    199  CD2       11.5320    3.8840   -4.4880 C.3   315  LEU315      0.0001
    200  N         14.8920    5.1120    1.4600 N.3   317  LEU317     -0.1245
    201  CA        15.4580    6.4550    1.6570 C.3   317  LEU317      0.1561
    202  C         15.3640    6.8760    3.1100 C.2   317  LEU317      0.2260
    203  O         16.0990    7.7480    3.5350 O.2   317  LEU317     -0.2867
    204  CB        14.7930    7.4800    0.7160 C.3   317  LEU317      0.0270
    205  CG        14.8660    7.1220   -0.7900 C.3   317  LEU317      0.0019
    206  CD1       14.1350    8.1840   -1.6690 C.3   317  LEU317      0.0001
    207  CD2       16.3000    6.8990   -1.2320 C.3   317  LEU317      0.0001
@<TRIPOS>BOND
     1    61    62    1
     2    62    63    1
     3    62    65    1
     4    63    64    2
     5    65    66    1
     6    25    26    2
     7    25    24    1
     8    27    24    1
     9    27    28    1
    10    23    24    1
    11    66    67    1
    12    69    70    1
    13    30    28   ar
    14    30    32   ar
    15    28    29   ar
    16    67    68    1
    17    42    43    1
    18    34    35    1
    19    32    33   ar
    20    71    70    1
    21    71    72    2
    22    70    73    1
    23    36    35    1
    24    36    37    2
    25    29    31   ar
    26    73    74    1
    27    35    38    1
    28    43    44    1
    29    43    46    1
    30    74    75    1
    31    74    76    1
    32    33    31   ar
    33    18    17    2
    34    55    56    2
    35    55    54    1
    36    53    44   am
    37    53    54    1
    38    38    39    1
    39    44    45    2
    40    21    19    1
    41    17    16    1
    42    46    47    1
    43    54    57    1
    44    77    78    1
    45    39    40    1
    46    39    41    1
    47    57    58    1
    48    79    78    1
    49    79    80    2
    50    19    16    1
    51    19    20    1
    52    16    15    1
    53    78    81    1
    54    47    48   ar
    55    47    49   ar
    56    58    59    1
    57    58    60    1
    58    48    50   ar
    59    81    82    1
    60    84    82   ar
    61    84    86   ar
    62    15     3   am
    63    20    22    1
    64    49    51   ar
    65   107   106    2
    66    82    83   ar
    67   103   102    2
    68   101   102    1
    69   101   100    1
    70    50    52   ar
    71    86    87   ar
    72    98    97    1
    73   102   104   am
    74     3     4    2
    75     3     2    1
    76   100    94   am
    77     1     2    1
    78   106   105    1
    79    51    52   ar
    80    83    85   ar
    81   104   105    1
    82    97    99    1
    83    97    96    1
    84    87    85   ar
    85     2     5    1
    86   105   108    1
    87   115   114    1
    88    94    93    1
    89    94    95    2
    90     5     6    1
    91    11    13   ar
    92    11     8   ar
    93   179   177   ar
    94   179   178   ar
    95   177   175   ar
    96   116   114    1
    97    93    96    1
    98    93    92    1
    99    13    14   ar
   100   114   113    1
   101     6     8   ar
   102     6     7   ar
   103     8    10   ar
   104    91    90    2
   105   199   197    1
   106   178   176   ar
   107    14    12   ar
   108   175   174   ar
   109    92    90   am
   110     7     9   ar
   111    10    12   ar
   112    10     9   ar
   113   198   197    1
   114    90    89    1
   115   113   110    1
   116   109   110    1
   117   197   196    1
   118   176   174   ar
   119   174   173    1
   120   110   111    1
   121   191   189    1
   122   196   193    1
   123   183   182    2
   124   184   181    1
   125    89    88    1
   126   173   170    1
   127   206   205    1
   128   193   192    1
   129   193   194    1
   130   163   161   am
   131   111   117   am
   132   111   112    2
   133   182   181    1
   134   182   185   am
   135   195   194    2
   136   207   205    1
   137   189   186    1
   138   189   190    1
   139   181   180    1
   140   126   124   ar
   141   126   127   ar
   142   170   169    1
   143   170   171    1
   144   117   118    1
   145   205   204    1
   146   124   122   ar
   147   186   185    1
   148   186   187    1
   149   128   127    1
   150   161   162    2
   151   161   160    1
   152   127   125   ar
   153   172   171    2
   154   122   121    1
   155   122   123   ar
   156   118   121    1
   157   118   119    1
   158   168   165    1
   159   204   201    1
   160   187   188    2
   161   144   143    1
   162   160   159    1
   163   119   120    2
   164   125   123   ar
   165   132   131    2
   166   143   140    1
   167   141   142    2
   168   141   140    1
   169   200   201    1
   170   135   137   ar
   171   135   134   ar
   172   201   202    1
   173   166   165    1
   174   166   167    2
   175   152   154   ar
   176   152   150   ar
   177   165   164    1
   178   154   153   ar
   179   137   138   ar
   180   159   156    1
   181   140   139    1
   182   131   139   am
   183   131   130    1
   184   134   133    1
   185   134   136   ar
   186   133   130    1
   187   156   155    1
   188   156   157    1
   189   129   130    1
   190   202   203    2
   191   150   149    1
   192   150   151   ar
   193   138   136   ar
   194   153   151   ar
   195   158   157    2
   196   149   146    1
   197   155   147   am
   198   148   147    2
   199   147   146    1
   200   146   145    1
