@<TRIPOS>MOLECULE
tmp/5jauA00.pdb
 208 203 0 0 0
SMALL
GASTEIGER

@<TRIPOS>ATOM
      1  N         19.0800   21.7410   -6.8720 N.3    43  TRP43      -0.1227
      2  CA        19.6110   20.5680   -6.1650 C.3    43  TRP43       0.1737
      3  C         20.3370   19.6050   -7.1050 C.2    43  TRP43       0.2595
      4  O         21.4820   19.2190   -6.8430 O.2    43  TRP43      -0.2718
      5  CB        18.4800   19.8640   -5.3790 C.3    43  TRP43       0.0564
      6  CG        18.8700   18.6040   -4.6530 C.ar   43  TRP43       0.0003
      7  CD1       19.8960   18.4460   -3.7660 C.ar   43  TRP43       0.0946
      8  CD2       18.1450   17.3640   -4.6540 C.ar   43  TRP43       0.0152
      9  NE1       19.8850   17.1680   -3.2530 N.ar   43  TRP43      -0.2442
     10  CE2       18.8100   16.4870   -3.7670 C.ar   43  TRP43       0.0810
     11  CE3       16.9740   16.9180   -5.3000 C.ar   43  TRP43       0.0012
     12  CZ2       18.3770   15.1660   -3.5510 C.ar   43  TRP43       0.0191
     13  CZ3       16.5540   15.6080   -5.0910 C.ar   43  TRP43       0.0001
     14  CH2       17.2520   14.7500   -4.2250 C.ar   43  TRP43       0.0015
     15  N         19.6760   19.2200   -8.1850 N.am   44  ILE44      -0.1980
     16  CA        20.2870   18.3970   -9.2420 C.3    44  ILE44       0.1595
     17  C         20.2760   19.2380  -10.5430 C.2    44  ILE44       0.2287
     18  O         19.2500   19.3340  -11.1900 O.2    44  ILE44      -0.2864
     19  CB        19.6650   16.9600   -9.3730 C.3    44  ILE44       0.0276
     20  CG1       19.7290   16.1660   -8.0180 C.3    44  ILE44       0.0022
     21  CG2       20.3980   16.1480  -10.4860 C.3    44  ILE44       0.0022
     22  CD1       18.7650   14.8420   -7.9480 C.3    44  ILE44       0.0001
     23  N         20.3940   12.9130  -13.8960 N.3    50  PHE50      -0.1241
     24  CA        19.2300   12.0080  -13.8470 C.3    50  PHE50       0.1605
     25  C         19.4270   10.7450  -14.6670 C.2    50  PHE50       0.2264
     26  O         19.0470    9.6800  -14.1900 O.2    50  PHE50      -0.2867
     27  CB        17.9240   12.7280  -14.2230 C.3    50  PHE50       0.0534
     28  CG        17.5430   13.7700  -13.1870 C.ar   50  PHE50      -0.0203
     29  CD1       16.9520   13.3950  -11.9830 C.ar   50  PHE50      -0.0042
     30  CD2       17.7690   15.1250  -13.4230 C.ar   50  PHE50      -0.0042
     31  CE1       16.5980   14.3540  -11.0330 C.ar   50  PHE50      -0.0003
     32  CE2       17.4080   16.0830  -12.4790 C.ar   50  PHE50      -0.0003
     33  CZ        16.8300   15.6930  -11.2910 C.ar   50  PHE50      -0.0000
     34  N         21.8080    8.7260  -12.5770 N.3    53  LEU53      -0.1245
     35  CA        21.0590    8.1130  -11.4680 C.3    53  LEU53       0.1561
     36  C         20.2070    6.9060  -11.9150 C.2    53  LEU53       0.2260
     37  O         20.1500    5.9100  -11.1970 O.2    53  LEU53      -0.2867
     38  CB        20.2120    9.1510  -10.6990 C.3    53  LEU53       0.0270
     39  CG        21.0160   10.1300   -9.8250 C.3    53  LEU53       0.0019
     40  CD1       20.1850   11.3830   -9.4520 C.3    53  LEU53       0.0001
     41  CD2       21.6500    9.4390   -8.5830 C.3    53  LEU53       0.0001
     42  N         22.5960    3.9810  -12.3670 N.3    56  PHE56      -0.1227
     43  CA        22.9940    3.4710  -11.0410 C.3    56  PHE56       0.1736
     44  C         21.8580    2.5900  -10.4410 C.2    56  PHE56       0.2595
     45  O         22.1320    1.5530   -9.8230 O.2    56  PHE56      -0.2718
     46  CB        23.3740    4.6080  -10.0600 C.3    56  PHE56       0.0547
     47  CG        23.5620    4.1590   -8.6270 C.ar   56  PHE56      -0.0202
     48  CD1       24.6850    3.4210   -8.2510 C.ar   56  PHE56      -0.0042
     49  CD2       22.6130    4.4610   -7.6550 C.ar   56  PHE56      -0.0042
     50  CE1       24.8510    2.9930   -6.9310 C.ar   56  PHE56      -0.0003
     51  CE2       22.7790    4.0260   -6.3360 C.ar   56  PHE56      -0.0003
     52  CZ        23.9010    3.3010   -5.9800 C.ar   56  PHE56      -0.0000
     53  N         20.5960    3.0130  -10.6430 N.am   57  LEU57      -0.1980
     54  CA        19.4300    2.3010  -10.0870 C.3    57  LEU57       0.1596
     55  C         18.9960    1.0720  -10.9210 C.2    57  LEU57       0.2287
     56  O         18.0480    0.3930  -10.5460 O.2    57  LEU57      -0.2864
     57  CB        18.2490    3.2870   -9.8570 C.3    57  LEU57       0.0297
     58  CG        18.5110    4.4310   -8.8510 C.3    57  LEU57       0.0022
     59  CD1       17.3770    5.4180   -8.8450 C.3    57  LEU57       0.0001
     60  CD2       18.7390    3.9150   -7.4070 C.3    57  LEU57       0.0001
     61  N         12.4150   10.9190  -13.4790 N.3    67  LEU67      -0.1245
     62  CA        12.9930   11.4970  -12.2570 C.3    67  LEU67       0.1561
     63  C         13.2070   12.9960  -12.4180 C.2    67  LEU67       0.2260
     64  O         12.9520   13.7210  -11.4700 O.2    67  LEU67      -0.2867
     65  CB        14.2940   10.8060  -11.8340 C.3    67  LEU67       0.0270
     66  CG        14.1690    9.3230  -11.4820 C.3    67  LEU67       0.0019
     67  CD1       15.5290    8.7080  -11.3170 C.3    67  LEU67       0.0001
     68  CD2       13.3140    9.1240  -10.2280 C.3    67  LEU67       0.0001
     69  N         11.6790   15.7780   -9.9530 N.3    71  PHE71      -0.1241
     70  CA        12.6920   16.3580   -9.0580 C.3    71  PHE71       0.1605
     71  C         13.6000   17.4530   -9.6640 C.2    71  PHE71       0.2264
     72  O         14.3360   18.0930   -8.9060 O.2    71  PHE71      -0.2867
     73  CB        13.5730   15.2480   -8.4590 C.3    71  PHE71       0.0534
     74  CG        12.8190   14.1820   -7.6890 C.ar   71  PHE71      -0.0203
     75  CD1       12.3530   14.4280   -6.3960 C.ar   71  PHE71      -0.0042
     76  CD2       12.5930   12.9320   -8.2460 C.ar   71  PHE71      -0.0042
     77  CE1       11.6600   13.4420   -5.6850 C.ar   71  PHE71      -0.0003
     78  CE2       11.9060   11.9460   -7.5340 C.ar   71  PHE71      -0.0003
     79  CZ        11.4460   12.2080   -6.2540 C.ar   71  PHE71      -0.0000
     80  N         29.2470    9.3030   -1.9770 N.3    98  GLY98      -0.1210
     81  CA        29.1950    7.8420   -2.1320 C.3    98  GLY98       0.1956
     82  C         29.1490    7.3630   -3.5860 C.2    98  GLY98       0.2612
     83  O         29.1510    8.1580   -4.5390 O.2    98  GLY98      -0.2717
     84  N         29.1290    6.0330   -3.7520 N.am   99  LEU99      -0.1965
     85  CA        28.9310    5.3470   -5.0170 C.3    99  LEU99       0.1728
     86  C         27.5460    5.6850   -5.5970 C.2    99  LEU99       0.2617
     87  O         26.5350    5.5480   -4.9100 O.2    99  LEU99      -0.2715
     88  CB        29.0930    3.8010   -4.8470 C.3    99  LEU99       0.0311
     89  CG        28.9900    2.9680   -6.1560 C.3    99  LEU99       0.0022
     90  CD1       30.1200    3.3160   -7.1380 C.3    99  LEU99       0.0001
     91  CD2       28.9710    1.4530   -5.8690 C.3    99  LEU99       0.0001
     92  N         27.5230    6.1180   -6.8540 N.am  100  GLY100     -0.1940
     93  CA        26.2810    6.5160   -7.5260 C.3   100  GLY100      0.2014
     94  C         25.8150    7.9040   -7.1190 C.2   100  GLY100      0.2638
     95  O         24.7440    8.3550   -7.5360 O.2   100  GLY100     -0.2714
     96  N         26.6030    8.6000   -6.3100 N.am  101  ALA101     -0.1977
     97  CA        26.2200    9.9770   -5.9170 C.3   101  ALA101      0.1597
     98  C         26.9860   10.9720   -6.8050 C.2   101  ALA101      0.2287
     99  O         27.4900   10.5840   -7.8640 O.2   101  ALA101     -0.2864
    100  CB        26.4980   10.2020   -4.4400 C.3   101  ALA101      0.0319
    101  N         24.5190   16.1720   -3.6240 N.3   105  LEU105     -0.1231
    102  CA        23.5400   15.2900   -2.9400 C.3   105  LEU105      0.1693
    103  C         23.7140   15.1850   -1.4040 C.2   105  LEU105      0.2592
    104  O         23.0620   14.3640   -0.7360 O.2   105  LEU105     -0.2718
    105  CB        23.5370   13.8920   -3.5840 C.3   105  LEU105      0.0284
    106  CG        23.0960   13.8300   -5.0660 C.3   105  LEU105      0.0019
    107  CD1       23.2940   12.4130   -5.6210 C.3   105  LEU105      0.0001
    108  CD2       21.6440   14.2940   -5.2310 C.3   105  LEU105      0.0001
    109  N         24.5890   16.0090   -0.8580 N.am  106  TYR106     -0.1976
    110  CA        24.8460   16.0270    0.5820 C.3   106  TYR106      0.1639
    111  C         24.7510   17.4410    1.1060 C.2   106  TYR106      0.2290
    112  O         25.5420   17.8670    1.9650 O.2   106  TYR106     -0.2864
    113  CB        26.2180   15.4010    0.9040 C.3   106  TYR106      0.0560
    114  CG        26.3170   13.9400    0.5370 C.ar  106  TYR106     -0.0198
    115  CD1       26.0320   12.9450    1.4690 C.ar  106  TYR106     -0.0009
    116  CD2       26.6890   13.5460   -0.7480 C.ar  106  TYR106     -0.0009
    117  CE1       26.1390   11.5880    1.1390 C.ar  106  TYR106      0.0417
    118  CE2       26.7880   12.1950   -1.0890 C.ar  106  TYR106      0.0417
    119  CZ        26.5360   11.2190   -0.1340 C.ar  106  TYR106      0.1957
    120  OH        26.6600    9.8870   -0.4760 O.3   106  TYR106     -0.2866
    121  N         30.6830   10.0480    3.0570 N.3   218  HIS218     -0.1226
    122  CA        29.6760    8.9960    3.2590 C.3   218  HIS218      0.1752
    123  C         29.9570    7.7960    2.3960 C.2   218  HIS218      0.2596
    124  O         30.1750    7.9640    1.1870 O.2   218  HIS218     -0.2718
    125  CB        28.2730    9.5240    2.9160 C.3   218  HIS218      0.0759
    126  CG        27.1600    8.4910    2.8730 C.ar  218  HIS218      0.0818
    127  ND1       26.4400    8.2450    1.6950 N.ar  218  HIS218     -0.2268
    128  CD2       26.6600    7.7040    3.8590 C.ar  218  HIS218      0.1154
    129  CE1       25.5460    7.3220    2.0010 C.ar  218  HIS218      0.1986
    130  NE2       25.6270    6.9640    3.2950 N.ar  218  HIS218     -0.2212
    131  N         29.9060    6.5880    3.0030 N.am  219  SER219     -0.1952
    132  CA        29.9030    5.3040    2.2670 C.3   219  SER219      0.1924
    133  C         31.2510    5.1060    1.5180 C.2   219  SER219      0.2314
    134  O         32.2540    4.9570    2.1950 O.2   219  SER219     -0.2863
    135  CB        28.6910    5.2500    1.3290 C.3   219  SER219      0.2116
    136  OG        28.4030    3.9240    0.9360 O.3   219  SER219     -0.2180
    137  N         21.3360    3.5480    5.5560 N.3   297  HIS297     -0.1226
    138  CA        22.4420    4.0990    4.7920 C.3   297  HIS297      0.1752
    139  C         22.0970    5.4780    4.2070 C.2   297  HIS297      0.2595
    140  O         22.9150    6.3980    4.2510 O.2   297  HIS297     -0.2718
    141  CB        22.8590    3.1170    3.6630 C.3   297  HIS297      0.0759
    142  CG        24.2710    3.2910    3.1920 C.ar  297  HIS297      0.0818
    143  ND1       25.3420    3.3390    4.0940 N.ar  297  HIS297     -0.2268
    144  CD2       24.7550    3.4010    1.9240 C.ar  297  HIS297      0.1154
    145  CE1       26.4310    3.4720    3.3520 C.ar  297  HIS297      0.1986
    146  NE2       26.1240    3.5080    2.0390 N.ar  297  HIS297     -0.2212
    147  N         20.8660    5.6100    3.6950 N.am  298  GLN298     -0.1979
    148  CA        20.4130    6.8160    3.0200 C.3   298  GLN298      0.1601
    149  C         20.1130    7.9880    3.9750 C.2   298  GLN298      0.2287
    150  O         19.9510    9.0960    3.4680 O.2   298  GLN298     -0.2864
    151  CB        19.2340    6.5090    2.0590 C.3   298  GLN298      0.0394
    152  CG        19.7040    5.7800    0.7310 C.3   298  GLN298      0.0908
    153  CD        20.9900    6.3550    0.1460 C.2   298  GLN298      0.2608
    154  OE1       21.0900    7.5520   -0.1260 O.2   298  GLN298     -0.2717
    155  NE2       22.0470    5.5360    0.0300 N.am  298  GLN298     -0.0878
    156  N         22.3530   11.0690    3.2890 N.3   301  ALA301     -0.1245
    157  CA        22.3300   11.8230    2.0350 C.3   301  ALA301      0.1562
    158  C         20.9680   12.5290    1.8550 C.2   301  ALA301      0.2260
    159  O         20.0570   12.2890    2.6350 O.2   301  ALA301     -0.2867
    160  CB        22.6840   10.9120    0.8450 C.3   301  ALA301      0.0290
    161  N         18.5170   12.2680   -0.3820 N.3   303  PHE303     -0.1241
    162  CA        17.3380   11.5250   -0.8350 C.3   303  PHE303      0.1605
    163  C         16.3500   11.2540    0.3140 C.2   303  PHE303      0.2264
    164  O         15.1650   11.1350    0.0410 O.2   303  PHE303     -0.2867
    165  CB        17.7240   10.2420   -1.6020 C.3   303  PHE303      0.0534
    166  CG        18.5300   10.4530   -2.8720 C.ar  303  PHE303     -0.0203
    167  CD1       18.0280   11.2230   -3.9210 C.ar  303  PHE303     -0.0042
    168  CD2       19.7730    9.8580   -3.0300 C.ar  303  PHE303     -0.0042
    169  CE1       18.7640   11.4120   -5.0890 C.ar  303  PHE303     -0.0003
    170  CE2       20.5150   10.0490   -4.1980 C.ar  303  PHE303     -0.0003
    171  CZ        20.0120   10.8250   -5.2230 C.ar  303  PHE303     -0.0000
    172  N         13.7970   13.8900    0.1750 N.3   306  ALA306     -0.1231
    173  CA        13.2130   14.1240   -1.1590 C.3   306  ALA306      0.1694
    174  C         11.7660   13.6430   -1.3350 C.2   306  ALA306      0.2592
    175  O         11.0820   14.1210   -2.2480 O.2   306  ALA306     -0.2718
    176  CB        14.1130   13.5150   -2.2360 C.3   306  ALA306      0.0304
    177  N         11.2840   12.7000   -0.4830 N.am  307  THR307     -0.1953
    178  CA         9.9210   12.1450   -0.6030 C.3   307  THR307      0.1897
    179  C          9.2280   12.1780    0.7700 C.2   307  THR307      0.2313
    180  O          9.8710   12.5030    1.7770 O.2   307  THR307     -0.2863
    181  CB         9.9600   10.6740   -1.1410 C.3   307  THR307      0.1794
    182  OG1       10.4450    9.8120   -0.1090 O.3   307  THR307     -0.2208
    183  CG2       10.7880   10.5040   -2.4460 C.3   307  THR307      0.0378
    184  N         11.2010    2.9090   -0.4870 N.3   315  LEU315     -0.1231
    185  CA        12.3870    3.0930   -1.3420 C.3   315  LEU315      0.1693
    186  C         13.7100    2.9800   -0.5840 C.2   315  LEU315      0.2592
    187  O         14.7900    3.1670   -1.1900 O.2   315  LEU315     -0.2718
    188  CB        12.2970    4.4370   -2.0760 C.3   315  LEU315      0.0284
    189  CG        11.2610    4.5320   -3.1930 C.3   315  LEU315      0.0019
    190  CD1       11.1210    5.9450   -3.6490 C.3   315  LEU315      0.0001
    191  CD2       11.6410    3.6600   -4.3940 C.3   315  LEU315      0.0001
    192  N         13.6340    2.6710    0.7410 N.am  316  LYS316     -0.1966
    193  CA        14.7790    2.5610    1.6630 C.3   316  LYS316      0.1728
    194  C         15.6080    3.8790    1.7000 C.2   316  LYS316      0.2616
    195  O         16.8380    3.8440    1.8320 O.2   316  LYS316     -0.2715
    196  CB        15.6790    1.3420    1.3030 C.3   316  LYS316      0.0311
    197  CG        15.0770   -0.0350    1.6380 C.3   316  LYS316      0.0038
    198  CD        15.3770   -0.4920    3.0940 C.3   316  LYS316      0.0206
    199  CE        16.8030   -0.9630    3.3280 C.3   316  LYS316      0.1093
    200  NZ        17.0670   -1.2690    4.7620 N.3   316  LYS316     -0.1314
    201  N         14.9110    5.0290    1.5690 N.am  317  LEU317     -0.1977
    202  CA        15.5060    6.3510    1.6820 C.3   317  LEU317      0.1596
    203  C         15.3850    6.8320    3.1450 C.2   317  LEU317      0.2287
    204  O         16.1490    7.6850    3.5860 O.2   317  LEU317     -0.2864
    205  CB        14.8490    7.3530    0.6870 C.3   317  LEU317      0.0297
    206  CG        14.8570    6.9650   -0.8210 C.3   317  LEU317      0.0022
    207  CD1       14.0420    7.9460   -1.6580 C.3   317  LEU317      0.0001
    208  CD2       16.2930    6.7270   -1.3680 C.3   317  LEU317      0.0001
@<TRIPOS>BOND
     1    25    26    2
     2    25    24    1
     3    27    24    1
     4    27    28    1
     5    23    24    1
     6    61    62    1
     7    30    28   ar
     8    30    32   ar
     9    28    29   ar
    10    34    35    1
    11    32    33   ar
    12    63    62    1
    13    63    64    2
    14    42    43    1
    15    62    65    1
    16    29    31   ar
    17    36    35    1
    18    36    37    2
    19    65    66    1
    20    66    67    1
    21    66    68    1
    22    35    38    1
    23    33    31   ar
    24    18    17    2
    25    43    44    1
    26    43    46    1
    27    55    56    2
    28    55    54    1
    29    38    39    1
    30    53    44   am
    31    53    54    1
    32    17    16    1
    33    21    19    1
    34    44    45    2
    35    54    57    1
    36    46    47    1
    37    69    70    1
    38    57    58    1
    39    39    40    1
    40    39    41    1
    41    71    70    1
    42    71    72    2
    43    19    16    1
    44    19    20    1
    45    16    15    1
    46    70    73    1
    47    58    59    1
    48    58    60    1
    49    47    48   ar
    50    47    49   ar
    51    73    74    1
    52    48    50   ar
    53    76    74   ar
    54    76    78   ar
    55    15     3   am
    56    20    22    1
    57    99    98    2
    58    74    75   ar
    59    49    51   ar
    60    95    94    2
    61    78    79   ar
    62    93    94    1
    63    93    92    1
    64    90    89    1
    65    94    96   am
    66     3     4    2
    67     3     2    1
    68    50    52   ar
    69     1     2    1
    70    92    86   am
    71    98    97    1
    72    75    77   ar
    73    51    52   ar
    74    96    97    1
    75    79    77   ar
    76     2     5    1
    77    89    91    1
    78    89    88    1
    79    97   100    1
    80   107   106    1
    81    86    85    1
    82    86    87    2
    83     5     6    1
    84    11    13   ar
    85    11     8   ar
    86   108   106    1
    87   171   169   ar
    88   171   170   ar
    89    13    14   ar
    90   169   167   ar
    91   106   105    1
    92    85    88    1
    93    85    84    1
    94     8     6   ar
    95     8    10   ar
    96     6     7   ar
    97    83    82    2
    98   191   189    1
    99    14    12   ar
   100   170   168   ar
   101   167   166   ar
   102    10    12   ar
   103    10     9   ar
   104     7     9   ar
   105    84    82   am
   106   190   189    1
   107   101   102    1
   108    82    81    1
   109   105   102    1
   110   189   188    1
   111   168   166   ar
   112   102   103    1
   113   166   165    1
   114   183   181    1
   115   175   174    2
   116   176   173    1
   117    81    80    1
   118   188   185    1
   119   207   206    1
   120   165   162    1
   121   103   109   am
   122   103   104    2
   123   208   206    1
   124   185   186    1
   125   185   184    1
   126   174   173    1
   127   174   177   am
   128   187   186    2
   129   173   172    1
   130   181   178    1
   131   181   182    1
   132   118   116   ar
   133   118   119   ar
   134   109   110    1
   135   162   161    1
   136   162   163    1
   137   206   205    1
   138   116   114   ar
   139   178   177    1
   140   178   179    1
   141   186   192   am
   142   120   119    1
   143   119   117   ar
   144   154   153    2
   145   155   153   am
   146   164   163    2
   147   153   152    1
   148   114   113    1
   149   114   115   ar
   150   110   113    1
   151   110   111    1
   152   205   202    1
   153   152   151    1
   154   192   193    1
   155   179   180    2
   156   160   157    1
   157   136   135    1
   158   111   112    2
   159   117   115   ar
   160   124   123    2
   161   196   197    1
   162   196   193    1
   163   135   132    1
   164   133   134    2
   165   133   132    1
   166   201   202    1
   167   201   194   am
   168   197   198    1
   169   193   194    1
   170   202   203    1
   171   127   129   ar
   172   127   126   ar
   173   194   195    2
   174   158   157    1
   175   158   159    2
   176   144   146   ar
   177   144   142   ar
   178   129   130   ar
   179   157   156    1
   180   146   145   ar
   181   151   148    1
   182   132   131    1
   183   123   131   am
   184   123   122    1
   185   126   125    1
   186   126   128   ar
   187   125   122    1
   188   148   147    1
   189   148   149    1
   190   121   122    1
   191   198   199    1
   192   203   204    2
   193   142   141    1
   194   142   143   ar
   195   130   128   ar
   196   199   200    1
   197   145   143   ar
   198   150   149    2
   199   141   138    1
   200   147   139   am
   201   139   140    2
   202   139   138    1
   203   138   137    1
