@<TRIPOS>MOLECULE
tmp/5jawG00.pdb
 138 129 0 0 0
SMALL
GASTEIGER

@<TRIPOS>ATOM
      1  N         -0.3330   84.3160   13.9240 N.3    28  GLN28      -0.1245
      2  CA        -0.3310   84.4370   15.3950 C.3    28  GLN28       0.1566
      3  C         -0.1700   85.8770   15.7270 C.2    28  GLN28       0.2260
      4  O          0.6710   86.5920   15.1300 O.2    28  GLN28      -0.2867
      5  CB         0.7120   83.5640   16.0590 C.3    28  GLN28       0.0367
      6  CG         0.7420   83.7400   17.5840 C.3    28  GLN28       0.0905
      7  CD         1.6740   82.7390   18.2970 C.2    28  GLN28       0.2608
      8  OE1        2.0760   83.0010   19.4400 O.2    28  GLN28      -0.2717
      9  NE2        2.0460   81.6330   17.6420 N.am   28  GLN28      -0.0878
     10  N          1.7730   89.7410   21.5130 N.3    31  ASN31      -0.1240
     11  CA         1.3540   89.2400   22.8380 C.3    31  ASN31       0.1653
     12  C          0.3390   90.0930   23.5610 C.2    31  ASN31       0.2266
     13  O         -0.2440   89.6290   24.5890 O.2    31  ASN31      -0.2867
     14  CB         2.6090   89.1520   23.7610 C.3    31  ASN31       0.1155
     15  CG         3.5610   88.0110   23.4420 C.2    31  ASN31       0.2627
     16  OD1        4.6930   88.0870   23.9310 O.2    31  ASN31      -0.2716
     17  ND2        3.1610   86.9810   22.6840 N.am   31  ASN31      -0.0877
     18  N         -1.9880   81.4870   28.5000 N.3    94  PHE94      -0.1241
     19  CA        -0.9130   82.1760   29.1290 C.3    94  PHE94       0.1605
     20  C         -1.2920   82.1850   30.6170 C.2    94  PHE94       0.2264
     21  O         -2.1840   82.9490   31.0550 O.2    94  PHE94      -0.2867
     22  CB        -0.8130   83.6200   28.5840 C.3    94  PHE94       0.0534
     23  CG        -0.2460   83.7570   27.1580 C.ar   94  PHE94      -0.0203
     24  CD1        0.0660   82.7030   26.3010 C.ar   94  PHE94      -0.0042
     25  CD2        0.1090   85.0740   26.7410 C.ar   94  PHE94      -0.0042
     26  CE1        0.5760   82.9490   25.0360 C.ar   94  PHE94      -0.0003
     27  CE2        0.6480   85.3010   25.5060 C.ar   94  PHE94      -0.0003
     28  CZ         0.9140   84.2530   24.7080 C.ar   94  PHE94      -0.0000
     29  N          4.5290   81.9210   30.8950 N.3    98  LYS98      -0.1231
     30  CA         4.7100   82.4760   29.5670 C.3    98  LYS98       0.1693
     31  C          6.1860   82.8750   29.4240 C.2    98  LYS98       0.2592
     32  O          6.6320   83.7770   30.0920 O.2    98  LYS98      -0.2718
     33  CB         3.7380   83.6200   29.3270 C.3    98  LYS98       0.0285
     34  CG         3.5770   84.0950   27.8840 C.3    98  LYS98       0.0035
     35  CD         4.6870   84.9670   27.3530 C.3    98  LYS98       0.0206
     36  CE         4.3650   85.4200   25.9340 C.3    98  LYS98       0.1093
     37  NZ         5.5700   85.9230   25.2410 N.3    98  LYS98      -0.1314
     38  N          6.9010   82.2130   28.4980 N.am   99  ASN99      -0.1974
     39  CA         8.3360   82.4060   28.2860 C.3    99  ASN99       0.1688
     40  C          9.0320   82.3750   29.6460 C.2    99  ASN99       0.2292
     41  O          9.7060   83.2680   30.0080 O.2    99  ASN99      -0.2864
     42  CB         8.6760   83.6810   27.5810 C.3    99  ASN99       0.1181
     43  CG         8.0790   83.7730   26.1840 C.2    99  ASN99       0.2629
     44  OD1        7.0650   83.1620   25.8920 O.2    99  ASN99      -0.2716
     45  ND2        8.6980   84.5960   25.3600 N.am   99  ASN99      -0.0877
     46  N          2.8220   78.6970   27.6790 N.3   168  ASN168     -0.1225
     47  CA         3.5380   79.2540   26.5420 C.3   168  ASN168      0.1785
     48  C          5.0180   79.3030   26.8640 C.2   168  ASN168      0.2597
     49  O          5.4260   80.0030   27.8060 O.2   168  ASN168     -0.2718
     50  CB         3.0280   80.6430   26.1520 C.3   168  ASN168      0.1169
     51  CG         3.6130   81.1190   24.8470 C.2   168  ASN168      0.2627
     52  OD1        3.0180   80.8760   23.8110 O.2   168  ASN168     -0.2716
     53  ND2        4.7660   81.7680   24.8860 N.am  168  ASN168     -0.0877
     54  N          5.8100   78.4930   26.1530 N.am  169  GLU169     -0.1979
     55  CA         7.2340   78.3790   26.3400 C.3   169  GLU169      0.1602
     56  C          7.5490   78.2050   27.8480 C.2   169  GLU169      0.2287
     57  O          8.1520   79.0730   28.4520 O.2   169  GLU169     -0.2864
     58  CB         7.9450   79.5190   25.6550 C.3   169  GLU169      0.0415
     59  CG         7.8840   79.2860   24.1270 C.3   169  GLU169      0.1163
     60  CD         8.8420   80.1730   23.3650 C.2   169  GLU169      0.3649
     61  OE1        9.4050   81.0570   24.0180 O.co2 169  GLU169     -0.2457
     62  OE2        9.0140   79.9930   22.1040 O.co2 169  GLU169     -0.2457
     63  N          4.3090   74.3940   23.4090 N.3   245  ASN245     -0.1240
     64  CA         5.2420   74.9800   22.4570 C.3   245  ASN245      0.1653
     65  C          6.5990   75.2580   23.1480 C.2   245  ASN245      0.2266
     66  O          6.6810   75.9690   24.1410 O.2   245  ASN245     -0.2867
     67  CB         4.5960   76.2350   21.8720 C.3   245  ASN245      0.1155
     68  CG         4.3900   77.3300   22.8900 C.2   245  ASN245      0.2627
     69  OD1        3.9060   77.1140   24.0150 O.2   245  ASN245     -0.2716
     70  ND2        4.7480   78.5310   22.5110 N.am  245  ASN245     -0.0877
     71  N          9.0500   76.0860   18.3340 N.3   286  ASP286     -0.1239
     72  CA         8.9460   77.5050   18.1370 C.3   286  ASP286      0.1674
     73  C         10.2260   77.9600   17.4250 C.2   286  ASP286      0.2266
     74  O         11.3070   77.8540   17.9540 O.2   286  ASP286     -0.2867
     75  CB         8.7460   78.3350   19.3950 C.3   286  ASP286      0.1410
     76  CG         7.3410   78.2250   19.9730 C.2   286  ASP286      0.3668
     77  OD1        6.4370   77.5720   19.3620 O.co2 286  ASP286     -0.2456
     78  OD2        7.1690   78.7530   21.1190 O.co2 286  ASP286     -0.2456
     79  N         12.7990   80.4180   15.6500 N.3   288  TYR288     -0.1241
     80  CA        13.3950   81.7230   15.2730 C.3   288  TYR288      0.1605
     81  C         14.7940   81.6290   14.6710 C.2   288  TYR288      0.2264
     82  O         15.4330   82.6510   14.3970 O.2   288  TYR288     -0.2867
     83  CB        13.3540   82.7600   16.4190 C.3   288  TYR288      0.0534
     84  CG        12.1290   83.6360   16.3740 C.ar  288  TYR288     -0.0201
     85  CD1       12.0130   84.6450   15.4220 C.ar  288  TYR288     -0.0009
     86  CD2       11.0630   83.4450   17.2720 C.ar  288  TYR288     -0.0009
     87  CE1       10.8900   85.4570   15.3890 C.ar  288  TYR288      0.0417
     88  CE2        9.9370   84.2200   17.2110 C.ar  288  TYR288      0.0417
     89  CZ         9.8490   85.2270   16.2660 C.ar  288  TYR288      0.1957
     90  OH         8.7420   86.0200   16.2350 O.3   288  TYR288     -0.2866
     91  N          5.1590   78.5910   16.1870 N.3   313  GLU313     -0.1245
     92  CA         5.6300   79.9240   16.1740 C.3   313  GLU313      0.1567
     93  C          6.7850   79.8200   15.1790 C.2   313  GLU313      0.2260
     94  O          7.5890   78.9010   15.2250 O.2   313  GLU313     -0.2867
     95  CB         6.1610   80.3750   17.5240 C.3   313  GLU313      0.0388
     96  CG         6.7500   81.7750   17.5380 C.3   313  GLU313      0.1160
     97  CD         7.6290   81.9790   18.7210 C.2   313  GLU313      0.3649
     98  OE1        7.0230   82.6580   19.7320 O.co2 313  GLU313     -0.2457
     99  OE2        8.7970   81.5810   18.7260 O.co2 313  GLU313     -0.2457
    100  N          4.5540   84.4140   13.6170 N.3   338  PHE338     -0.1241
    101  CA         4.3440   85.2500   14.7790 C.3   338  PHE338      0.1605
    102  C          4.3160   86.7200   14.4170 C.2   338  PHE338      0.2264
    103  O          5.0690   87.1860   13.5370 O.2   338  PHE338     -0.2867
    104  CB         5.4350   84.9760   15.8170 C.3   338  PHE338      0.0534
    105  CG         5.2010   85.6980   17.0960 C.ar  338  PHE338     -0.0203
    106  CD1        4.3120   85.1870   18.0030 C.ar  338  PHE338     -0.0042
    107  CD2        5.7590   86.9520   17.3330 C.ar  338  PHE338     -0.0042
    108  CE1        4.0020   85.8960   19.1540 C.ar  338  PHE338     -0.0003
    109  CE2        5.4350   87.6780   18.4710 C.ar  338  PHE338     -0.0003
    110  CZ         4.5580   87.1400   19.3930 C.ar  338  PHE338     -0.0000
    111  N          4.2660   96.9750   17.0610 N.3   345  TYR345     -0.1241
    112  CA         5.3220   96.2430   17.7240 C.3   345  TYR345      0.1605
    113  C          6.0300   95.3700   16.7480 C.2   345  TYR345      0.2264
    114  O          5.3630   94.6830   15.9560 O.2   345  TYR345     -0.2867
    115  CB         4.8030   95.3340   18.8350 C.3   345  TYR345      0.0534
    116  CG         5.9440   94.7210   19.5780 C.ar  345  TYR345     -0.0201
    117  CD1        6.6490   95.4680   20.5120 C.ar  345  TYR345     -0.0009
    118  CD2        6.3270   93.4050   19.3170 C.ar  345  TYR345     -0.0009
    119  CE1        7.7330   94.9100   21.2120 C.ar  345  TYR345      0.0417
    120  CE2        7.4210   92.8430   19.9770 C.ar  345  TYR345      0.0417
    121  CZ         8.1060   93.5920   20.9020 C.ar  345  TYR345      0.1957
    122  OH         9.2120   93.0670   21.5620 O.3   345  TYR345     -0.2866
    123  N          9.3120   92.4280   16.9610 N.3   347  ASN347     -0.1240
    124  CA        10.4150   91.8050   17.7140 C.3   347  ASN347      0.1653
    125  C         11.7200   91.6760   16.9300 C.2   347  ASN347      0.2266
    126  O         12.6190   90.8900   17.3160 O.2   347  ASN347     -0.2867
    127  CB        10.0260   90.4310   18.2460 C.3   347  ASN347      0.1155
    128  CG         9.7430   89.4470   17.1350 C.2   347  ASN347      0.2627
    129  OD1       10.0450   89.7130   15.9680 O.2   347  ASN347     -0.2716
    130  ND2        9.1770   88.3060   17.4810 N.am  347  ASN347     -0.0877
    131  N         14.4760   89.4800   15.7710 N.3   350  LEU350     -0.1245
    132  CA        13.9450   88.1350   15.6270 C.3   350  LEU350      0.1561
    133  C         13.0920   88.0370   14.3650 C.2   350  LEU350      0.2260
    134  O         13.3400   87.1450   13.5470 O.2   350  LEU350     -0.2867
    135  CB        13.1440   87.6800   16.8450 C.3   350  LEU350      0.0270
    136  CG        13.9950   87.5190   18.1100 C.3   350  LEU350      0.0019
    137  CD1       13.0890   87.1930   19.3150 C.3   350  LEU350      0.0001
    138  CD2       15.0680   86.4560   17.9710 C.3   350  LEU350      0.0001
@<TRIPOS>BOND
     1   103   102    2
     2   134   133    2
     3   100   101    1
     4     1     2    1
     5   133   132    1
     6    82    81    2
     7   102   101    1
     8    81    80    1
     9   101   104    1
    10     4     3    2
    11    93    94    2
    12    93    92    1
    13    80    79    1
    14    80    83    1
    15    87    85   ar
    16    87    89   ar
    17     2     3    1
    18     2     5    1
    19    85    84   ar
    20   132   131    1
    21   132   135    1
    22   104   105    1
    23   114   113    2
    24   129   128    2
    25     5     6    1
    26    92    91    1
    27    92    95    1
    28    90    89    1
    29    89    88   ar
    30    84    83    1
    31    84    86   ar
    32   113   112    1
    33   135   136    1
    34   125   126    2
    35   125   124    1
    36   123   124    1
    37   111   112    1
    38   105   107   ar
    39   105   106   ar
    40   128   130   am
    41   128   127    1
    42    88    86   ar
    43   107   109   ar
    44    73    74    2
    45    73    72    1
    46    95    96    1
    47    96    97    1
    48     6     7    1
    49     9     7   am
    50   124   127    1
    51   112   115    1
    52   138   136    1
    53   106   108   ar
    54   136   137    1
    55    72    71    1
    56    72    75    1
    57     7     8    2
    58   109   110   ar
    59    97    99   ar
    60    97    98   ar
    61   115   116    1
    62   108   110   ar
    63   118   116   ar
    64   118   120   ar
    65    77    76   ar
    66    75    76    1
    67   116   117   ar
    68    76    78   ar
    69   120   121   ar
    70   117   119   ar
    71   121   119   ar
    72   121   122    1
    73    10    11    1
    74    67    64    1
    75    67    68    1
    76    62    60   ar
    77    64    65    1
    78    64    63    1
    79    70    68   am
    80    17    15   am
    81    11    12    1
    82    11    14    1
    83    68    69    2
    84    65    66    2
    85    60    61   ar
    86    60    59    1
    87    15    14    1
    88    15    16    2
    89    12    13    2
    90    52    51    2
    91    59    58    1
    92    28    26   ar
    93    28    27   ar
    94    51    53   am
    95    51    50    1
    96    26    24   ar
    97    37    36    1
    98    45    43   am
    99    27    25   ar
   100    58    55    1
   101    44    43    2
   102    36    35    1
   103    50    47    1
   104    54    55    1
   105    54    48   am
   106    43    42    1
   107    24    23   ar
   108    55    56    1
   109    47    48    1
   110    47    46    1
   111    25    23   ar
   112    48    49    2
   113    23    22    1
   114    35    34    1
   115    42    39    1
   116    56    57    2
   117    34    33    1
   118    39    38    1
   119    39    40    1
   120    38    31   am
   121    18    19    1
   122    22    19    1
   123    19    20    1
   124    33    30    1
   125    31    30    1
   126    31    32    2
   127    30    29    1
   128    40    41    2
   129    20    21    2
