@<TRIPOS>MOLECULE
tmp/5jaxA00.pdb
 140 133 0 0 0
SMALL
GASTEIGER

@<TRIPOS>ATOM
      1  N        -16.4580   -1.1420  -11.8050 N.3    43  ILE43      -0.1245
      2  CA       -16.2860   -1.3710  -13.2380 C.3    43  ILE43       0.1561
      3  C        -16.8770   -2.7380  -13.5520 C.2    43  ILE43       0.2260
      4  O        -16.6960   -3.6890  -12.7780 O.2    43  ILE43      -0.2867
      5  CB       -14.8010   -1.3640  -13.6630 C.3    43  ILE43       0.0252
      6  CG1      -14.2150    0.0340  -13.5310 C.3    43  ILE43       0.0019
      7  CG2      -14.6420   -1.8900  -15.1120 C.3    43  ILE43       0.0019
      8  CD1      -12.7200    0.0880  -13.7670 C.3    43  ILE43       0.0001
      9  N        -10.8870   -7.7710   -7.9630 N.3    62  VAL62      -0.1245
     10  CA       -10.8710   -7.7820   -9.4250 C.3    62  VAL62       0.1561
     11  C        -11.1690   -9.1980   -9.9070 C.2    62  VAL62       0.2260
     12  O        -10.5300  -10.1570   -9.4570 O.2    62  VAL62      -0.2867
     13  CB        -9.5190   -7.3080   -9.9840 C.3    62  VAL62       0.0252
     14  CG1       -9.5790   -7.2290  -11.4990 C.3    62  VAL62       0.0019
     15  CG2       -9.1440   -5.9750   -9.3930 C.3    62  VAL62       0.0019
     16  N        -12.5350  -11.6450  -13.5930 N.3    64  ARG64      -0.1245
     17  CA       -12.6250  -11.6230  -15.0490 C.3    64  ARG64       0.1563
     18  C        -13.1670  -12.9440  -15.5680 C.2    64  ARG64       0.2260
     19  O        -12.7990  -14.0130  -15.0740 O.2    64  ARG64      -0.2867
     20  CB       -11.2690  -11.3260  -15.7110 C.3    64  ARG64       0.0307
     21  CG       -11.2840  -11.2870  -17.2320 C.3    64  ARG64       0.0489
     22  CD        -9.9430  -10.8850  -17.8280 C.3    64  ARG64       0.2205
     23  NE        -9.7620  -11.5440  -19.1370 N.pl3  64  ARG64      -0.0865
     24  CZ       -10.0110  -10.8760  -20.2720 C.cat  64  ARG64       0.5346
     25  NH1      -10.3370   -9.5890  -20.2450 N.pl3  64  ARG64       0.1354
     26  NH2       -9.9320  -11.5250  -21.4020 N.pl3  64  ARG64       0.1354
     27  N         -9.1250  -12.4680   -9.6520 N.3    75  LEU75      -0.1231
     28  CA        -7.7560  -12.1480  -10.0490 C.3    75  LEU75       0.1693
     29  C         -6.9150  -11.6550   -8.8760 C.2    75  LEU75       0.2591
     30  O         -5.8840  -12.2550   -8.5600 O.2    75  LEU75      -0.2718
     31  CB        -7.7450  -11.1300  -11.1970 C.3    75  LEU75       0.0284
     32  CG        -8.4880  -11.5660  -12.4580 C.3    75  LEU75       0.0019
     33  CD1       -8.3360  -10.5080  -13.5260 C.3    75  LEU75       0.0001
     34  CD2       -7.9970  -12.9110  -12.9660 C.3    75  LEU75       0.0001
     35  N         -7.3330  -10.5800   -8.2120 N.am   76  ARG76      -0.1980
     36  CA        -6.5040  -10.0130   -7.1570 C.3    76  ARG76       0.1597
     37  C         -7.3080   -8.9930   -6.3610 C.2    76  ARG76       0.2287
     38  O         -8.3980   -8.5760   -6.7640 O.2    76  ARG76      -0.2864
     39  CB        -5.2690   -9.3300   -7.7440 C.3    76  ARG76       0.0334
     40  CG        -5.5680   -7.9660   -8.3720 C.3    76  ARG76       0.0492
     41  CD        -4.4020   -7.4600   -9.1790 C.3    76  ARG76       0.2205
     42  NE        -4.2460   -8.2010  -10.4260 N.pl3  76  ARG76      -0.0865
     43  CZ        -3.3160   -9.1160  -10.6760 C.cat  76  ARG76       0.5346
     44  NH1       -2.4080   -9.4430   -9.7640 N.pl3  76  ARG76       0.1354
     45  NH2       -3.3000   -9.7120  -11.8590 N.pl3  76  ARG76       0.1354
     46  N         -6.8720   -5.1190   -4.5670 N.3    78  LEU78      -0.1245
     47  CA        -6.1090   -3.8870   -4.5720 C.3    78  LEU78       0.1561
     48  C         -6.5410   -3.0410   -3.3850 C.2    78  LEU78       0.2260
     49  O         -7.6860   -3.1220   -2.9280 O.2    78  LEU78      -0.2867
     50  CB        -6.3740   -3.0690   -5.8350 C.3    78  LEU78       0.0270
     51  CG        -6.0730   -3.6900   -7.1780 C.3    78  LEU78       0.0019
     52  CD1       -6.5450   -2.6600   -8.2170 C.3    78  LEU78       0.0001
     53  CD2       -4.6110   -4.0080   -7.3330 C.3    78  LEU78       0.0001
     54  N         -6.3570    1.4370  -11.0700 N.3    84  PHE84      -0.1227
     55  CA        -6.9140    0.5240  -12.0590 C.3    84  PHE84       0.1736
     56  C         -7.7420    1.3220  -13.0640 C.2    84  PHE84       0.2596
     57  O         -8.0280    2.5050  -12.8690 O.2    84  PHE84      -0.2718
     58  CB        -7.7820   -0.5570  -11.3880 C.3    84  PHE84       0.0547
     59  CG        -8.9470   -0.0030  -10.5820 C.ar   84  PHE84      -0.0202
     60  CD1      -10.1600    0.2490  -11.1890 C.ar   84  PHE84      -0.0042
     61  CD2       -8.8160    0.2710   -9.2320 C.ar   84  PHE84      -0.0042
     62  CE1      -11.2190    0.7560  -10.4760 C.ar   84  PHE84      -0.0003
     63  CE2       -9.8850    0.7760   -8.4980 C.ar   84  PHE84      -0.0003
     64  CZ       -11.0860    1.0220   -9.1300 C.ar   84  PHE84      -0.0000
     65  N         -8.1220    0.6630  -14.1530 N.am   85  GLY85      -0.1942
     66  CA        -8.9200    1.2900  -15.1890 C.3    85  GLY85       0.2014
     67  C         -8.1270    1.8290  -16.3520 C.2    85  GLY85       0.2639
     68  O         -8.7000    2.4960  -17.2230 O.2    85  GLY85      -0.2714
     69  N         -6.8400    1.5160  -16.4320 N.am   86  GLU86      -0.1963
     70  CA        -6.0160    2.0800  -17.4900 C.3    86  GLU86       0.1733
     71  C         -6.1860    1.3740  -18.8320 C.2    86  GLU86       0.2616
     72  O         -5.9060    1.9780  -19.8670 O.2    86  GLU86      -0.2715
     73  CB        -4.5280    2.0870  -17.0820 C.3    86  GLU86       0.0429
     74  CG        -3.7480    0.7720  -17.2820 C.3    86  GLU86       0.1163
     75  CD        -4.1010   -0.3180  -16.2780 C.2    86  GLU86       0.3649
     76  OE1       -4.8540   -0.0670  -15.3180 O.co2  86  GLU86      -0.2457
     77  OE2       -3.5960   -1.4550  -16.4240 O.co2  86  GLU86      -0.2457
     78  N         -6.6080    0.1110  -18.8550 N.am   87  LYS87      -0.1963
     79  CA        -6.6140   -0.6060  -20.1300 C.3    87  LYS87       0.1728
     80  C         -7.6050    0.0110  -21.1150 C.2    87  LYS87       0.2616
     81  O         -7.3040    0.1400  -22.3100 O.2    87  LYS87      -0.2715
     82  CB        -6.8800   -2.0950  -19.9070 C.3    87  LYS87       0.0311
     83  CG        -5.8000   -2.7450  -19.0530 C.3    87  LYS87       0.0038
     84  CD        -6.0540   -4.2330  -18.8600 C.3    87  LYS87       0.0206
     85  CE        -5.6870   -5.0030  -20.1070 C.3    87  LYS87       0.1093
     86  NZ        -5.7010   -6.4860  -19.8620 N.3    87  LYS87      -0.1314
     87  N         -8.7850    0.4070  -20.6410 N.am   88  ALA88      -0.1977
     88  CA        -9.7410    1.0740  -21.5170 C.3    88  ALA88       0.1597
     89  C         -9.2560    2.4370  -22.0010 C.2    88  ALA88       0.2287
     90  O         -9.8620    3.0030  -22.9170 O.2    88  ALA88      -0.2864
     91  CB       -11.0810    1.2370  -20.8170 C.3    88  ALA88       0.0319
     92  N        -12.6570   -0.6930  -24.1860 N.3    94  VAL94      -0.1231
     93  CA       -13.4440   -1.7090  -23.4990 C.3    94  VAL94       0.1692
     94  C        -12.8020   -2.0830  -22.1620 C.2    94  VAL94       0.2592
     95  O        -11.5740   -2.1810  -22.0410 O.2    94  VAL94      -0.2718
     96  CB       -13.6290   -2.9370  -24.4040 C.3    94  VAL94       0.0266
     97  CG1      -12.3160   -3.7070  -24.5740 C.3    94  VAL94       0.0020
     98  CG2      -14.7270   -3.8320  -23.8510 C.3    94  VAL94       0.0020
     99  N        -13.6480   -2.2910  -21.1490 N.am   95  ARG95      -0.1966
    100  CA       -13.2110   -2.7550  -19.8390 C.3    95  ARG95       0.1729
    101  C        -12.9730   -4.2570  -19.9040 C.2    95  ARG95       0.2617
    102  O        -13.8150   -5.0020  -20.4140 O.2    95  ARG95      -0.2715
    103  CB       -14.2920   -2.4560  -18.8070 C.3    95  ARG95       0.0348
    104  CG       -14.5500   -0.9810  -18.5880 C.3    95  ARG95       0.0492
    105  CD       -13.3300   -0.2600  -18.0260 C.3    95  ARG95       0.2205
    106  NE       -13.7250    1.0580  -17.5280 N.pl3  95  ARG95      -0.0865
    107  CZ       -12.8680    2.0170  -17.1930 C.cat  95  ARG95       0.5346
    108  NH1      -11.5690    1.8000  -17.2950 N.pl3  95  ARG95       0.1354
    109  NH2      -13.3100    3.1860  -16.7590 N.pl3  95  ARG95       0.1354
    110  N        -11.8410   -4.6960  -19.3820 N.am   96  THR96      -0.1937
    111  CA       -11.3980   -6.0710  -19.5370 C.3    96  THR96       0.2028
    112  C        -11.5890   -6.9040  -18.2770 C.2    96  THR96       0.2642
    113  O        -11.2260   -8.0830  -18.2770 O.2    96  THR96      -0.2714
    114  CB        -9.9260   -6.0900  -19.9660 C.3    96  THR96       0.1808
    115  OG1       -9.0990   -5.5180  -18.9460 O.3    96  THR96      -0.2208
    116  CG2       -9.7450   -5.3070  -21.2320 C.3    96  THR96       0.0379
    117  N        -12.1410   -6.3290  -17.2080 N.am   97  ALA97      -0.1977
    118  CA       -12.3350   -7.0380  -15.9520 C.3    97  ALA97       0.1597
    119  C        -13.3450   -6.2720  -15.1140 C.2    97  ALA97       0.2287
    120  O        -13.6200   -5.0920  -15.3600 O.2    97  ALA97      -0.2864
    121  CB       -11.0130   -7.1970  -15.1910 C.3    97  ALA97       0.0319
    122  N        -14.3150   -4.7520  -11.3730 N.3    99  VAL99      -0.1245
    123  CA       -13.7130   -4.2490  -10.1440 C.3    99  VAL99       0.1561
    124  C        -14.8500   -3.9680   -9.1760 C.2    99  VAL99       0.2260
    125  O        -15.7540   -3.1920   -9.4900 O.2    99  VAL99      -0.2867
    126  CB       -12.8800   -2.9820  -10.3950 C.3    99  VAL99       0.0252
    127  CG1      -12.2060   -2.5420   -9.1120 C.3    99  VAL99       0.0019
    128  CG2      -11.8430   -3.2270  -11.4870 C.3    99  VAL99       0.0019
    129  N         -0.3300   -7.8280  -16.6090 N.3   130  TYR130     -0.1241
    130  CA        -0.8660   -8.7100  -15.5810 C.3   130  TYR130      0.1605
    131  C         -0.6270  -10.1700  -15.9510 C.2   130  TYR130      0.2264
    132  O         -0.6960  -11.0510  -15.0960 O.2   130  TYR130     -0.2867
    133  CB        -2.3630   -8.4560  -15.3960 C.3   130  TYR130      0.0534
    134  CG        -2.7130   -7.0110  -15.1050 C.ar  130  TYR130     -0.0201
    135  CD1       -2.7440   -6.5350  -13.8030 C.ar  130  TYR130     -0.0009
    136  CD2       -3.0140   -6.1290  -16.1330 C.ar  130  TYR130     -0.0009
    137  CE1       -3.0650   -5.2180  -13.5290 C.ar  130  TYR130      0.0417
    138  CE2       -3.3380   -4.8070  -15.8670 C.ar  130  TYR130      0.0417
    139  CZ        -3.3630   -4.3660  -14.5660 C.ar  130  TYR130      0.1957
    140  OH        -3.6800   -3.0620  -14.2930 O.3   130  TYR130     -0.2866
@<TRIPOS>BOND
     1    97    96    1
     2    96    98    1
     3    96    93    1
     4    92    93    1
     5    93    94    1
     6    90    89    2
     7    81    80    2
     8    94    95    2
     9    94    99   am
    10    89    88    1
    11    88    91    1
    12    88    87    1
    13    26    24    1
    14   116   114    1
    15    99   100    1
    16    80    87   am
    17    80    79    1
    18   102   101    2
    19    24    25    1
    20    24    23    2
    21    79    82    1
    22    79    78    1
    23    85    86    1
    24    85    84    1
    25   114   111    1
    26   114   115    1
    27    82    83    1
    28   101   100    1
    29   101   110   am
    30    72    71    2
    31   100   103    1
    32   111   110    1
    33   111   112    1
    34    23    22    1
    35    83    84    1
    36    78    71   am
    37    71    70    1
    38   103   104    1
    39   104   105    1
    40   112   113    2
    41   112   117   am
    42   105   106    1
    43    22    21    1
    44   106   107    2
    45    70    73    1
    46    70    69    1
    47   108   107    1
    48    74    73    1
    49    74    75    1
    50    21    20    1
    51    68    67    2
    52   117   118    1
    53   107   109    1
    54   129   130    1
    55    69    67   am
    56    77    75   ar
    57    67    66    1
    58    75    76   ar
    59   136   138   ar
    60   136   134   ar
    61   118   121    1
    62   118   119    1
    63   131   130    1
    64   131   132    2
    65   138   139   ar
    66    20    17    1
    67   130   133    1
    68    18    19    2
    69    18    17    1
    70   133   134    1
    71   120   119    2
    72    66    65    1
    73     7     5    1
    74   134   135   ar
    75    17    16    1
    76   139   140    1
    77   139   137   ar
    78    65    56   am
    79   135   137   ar
    80     8     6    1
    81     5     6    1
    82     5     2    1
    83     3     2    1
    84     3     4    2
    85    33    32    1
    86     2     1    1
    87    56    57    2
    88    56    55    1
    89    34    32    1
    90    32    31    1
    91    55    58    1
    92    55    54    1
    93    45    43    1
    94    14    13    1
    95   128   126    1
    96    58    59    1
    97   122   123    1
    98    31    28    1
    99    60    59   ar
   100    60    62   ar
   101    43    42    2
   102    43    44    1
   103    59    61   ar
   104    62    64   ar
   105    42    41    1
   106   126   123    1
   107   126   127    1
   108   123   124    1
   109    28    27    1
   110    28    29    1
   111    13    10    1
   112    13    15    1
   113    11    12    2
   114    11    10    1
   115   125   124    2
   116    10     9    1
   117    61    63   ar
   118    41    40    1
   119    64    63   ar
   120    29    30    2
   121    29    35   am
   122    40    39    1
   123    52    51    1
   124    35    36    1
   125    39    36    1
   126    53    51    1
   127    51    50    1
   128    36    37    1
   129    38    37    2
   130    50    47    1
   131    47    46    1
   132    47    48    1
   133    48    49    2
