@<TRIPOS>MOLECULE
tmp/5jazA00.pdb
 183 175 0 0 0
SMALL
GASTEIGER

@<TRIPOS>ATOM
      1  N         12.0820   17.2730   23.4130 N.3   129  LYS129     -0.1245
      2  CA        11.6180   18.6660   23.3660 C.3   129  LYS129      0.1561
      3  C         11.9760   19.4660   24.6210 C.2   129  LYS129      0.2260
      4  O         12.2110   20.6850   24.5380 O.2   129  LYS129     -0.2867
      5  CB        10.1030   18.7310   23.1090 C.3   129  LYS129      0.0271
      6  CG         9.2190   18.3870   24.3110 C.3   129  LYS129      0.0035
      7  CD         7.7870   18.0950   23.8900 C.3   129  LYS129      0.0206
      8  CE         7.6740   16.7030   23.2950 C.3   129  LYS129      0.1093
      9  NZ         6.3900   16.5290   22.5970 N.3   129  LYS129     -0.1314
     10  N         10.5350   15.2180   16.8530 N.3   155  ASP155     -0.1225
     11  CA         9.1900   15.4680   17.4020 C.3   155  ASP155      0.1805
     12  C          8.2340   15.6330   16.2120 C.2   155  ASP155      0.2598
     13  O          8.5620   16.3500   15.2650 O.2   155  ASP155     -0.2718
     14  CB         9.2380   16.7080   18.3220 C.3   155  ASP155      0.1424
     15  CG         8.0370   16.8390   19.2660 C.2   155  ASP155      0.3668
     16  OD1        7.0860   16.0280   19.2050 O.co2 155  ASP155     -0.2456
     17  OD2        8.0540   17.8030   20.0900 O.co2 155  ASP155     -0.2456
     18  N          7.0900   14.9340   16.2260 N.am  156  SER156     -0.1938
     19  CA         6.3040   14.7100   14.9920 C.3   156  SER156      0.2055
     20  C          5.8870   15.9910   14.2650 C.2   156  SER156      0.2642
     21  O          5.9530   16.0600   13.0410 O.2   156  SER156     -0.2714
     22  CB         5.0710   13.8120   15.2500 C.3   156  SER156      0.2130
     23  OG         4.1130   14.4380   16.0830 O.3   156  SER156     -0.2179
     24  N          5.5030   17.0100   15.0250 N.am  157  GLU157     -0.1976
     25  CA         5.0190   18.2700   14.4510 C.3   157  GLU157      0.1602
     26  C          6.1790   19.0680   13.8310 C.2   157  GLU157      0.2287
     27  O          6.0200   19.7220   12.8000 O.2   157  GLU157     -0.2864
     28  CB         4.3190   19.1420   15.5060 C.3   157  GLU157      0.0415
     29  CG         3.1360   18.4750   16.2140 C.3   157  GLU157      0.1163
     30  CD         3.5460   17.5340   17.3290 C.2   157  GLU157      0.3649
     31  OE1        4.7630   17.4000   17.5820 O.co2 157  GLU157     -0.2457
     32  OE2        2.6450   16.9260   17.9410 O.co2 157  GLU157     -0.2457
     33  N         -0.2740   21.5760   15.0060 N.3   192  CYS192     -0.1221
     34  CA        -1.4460   20.7200   15.1940 C.3   192  CYS192      0.1808
     35  C         -1.3510   19.9550   16.5160 C.2   192  CYS192      0.2602
     36  O         -0.2720   19.4650   16.8770 O.2   192  CYS192     -0.2717
     37  CB        -1.6030   19.7510   14.0230 C.3   192  CYS192      0.0970
     38  SG        -2.1420   20.5800   12.5160 S.3   192  CYS192     -0.0800
     39  N         -2.4810   19.8640   17.2170 N.am  193  SER193     -0.1938
     40  CA        -2.6080   19.1370   18.4830 C.3   193  SER193      0.2055
     41  C         -3.7510   18.1510   18.3900 C.2   193  SER193      0.2644
     42  O         -4.7840   18.4610   17.7980 O.2   193  SER193     -0.2714
     43  CB        -2.9350   20.0930   19.6220 C.3   193  SER193      0.2130
     44  OG        -3.1130   19.3740   20.8370 O.3   193  SER193     -0.2179
     45  N         -3.5960   16.9920   19.0190 N.am  194  SER194     -0.1935
     46  CA        -4.6990   16.0400   19.1360 C.3   194  SER194      0.2055
     47  C         -5.8210   16.6290   19.9900 C.2   194  SER194      0.2644
     48  O         -6.9820   16.2640   19.8190 O.2   194  SER194     -0.2714
     49  CB        -4.2350   14.6970   19.7290 C.3   194  SER194      0.2130
     50  OG        -4.1980   14.7240   21.1520 O.3   194  SER194     -0.2179
     51  N         -5.4680   17.5230   20.9170 N.am  195  GLY195     -0.1939
     52  CA        -6.4110   18.0990   21.8690 C.3   195  GLY195      0.2014
     53  C         -6.5330   17.3050   23.1650 C.2   195  GLY195      0.2639
     54  O         -7.0370   17.8320   24.1550 O.2   195  GLY195     -0.2714
     55  N         -6.0780   16.0530   23.1790 N.am  196  GLY196     -0.1954
     56  CA        -6.1450   15.2280   24.3830 C.3   196  GLY196      0.1869
     57  C         -7.5600   14.7690   24.6960 C.2   196  GLY196      0.2309
     58  O         -8.4880   15.0180   23.9340 O.2   196  GLY196     -0.2863
     59  N         -4.2630    7.3260   21.9860 N.3   220  TRP220     -0.1227
     60  CA        -2.8760    7.1690   21.5440 C.3   220  TRP220      0.1737
     61  C         -2.0550    6.6180   22.6980 C.2   220  TRP220      0.2595
     62  O         -1.9890    7.2450   23.7530 O.2   220  TRP220     -0.2718
     63  CB        -2.3130    8.5260   21.1020 C.3   220  TRP220      0.0564
     64  CG        -3.2200    9.2350   20.1490 C.ar  220  TRP220      0.0003
     65  CD1       -3.8460   10.4320   20.3430 C.ar  220  TRP220      0.0946
     66  CD2       -3.6480    8.7580   18.8710 C.ar  220  TRP220      0.0152
     67  NE1       -4.6220   10.7420   19.2490 N.ar  220  TRP220     -0.2442
     68  CE2       -4.5180    9.7300   18.3310 C.ar  220  TRP220      0.0810
     69  CE3       -3.3720    7.6050   18.1240 C.ar  220  TRP220      0.0012
     70  CZ2       -5.1190    9.5840   17.0770 C.ar  220  TRP220      0.0191
     71  CZ3       -3.9730    7.4580   16.8800 C.ar  220  TRP220      0.0001
     72  CH2       -4.8340    8.4460   16.3670 C.ar  220  TRP220      0.0015
     73  N         -1.4460    5.4470   22.5060 N.am  221  LYS221     -0.1966
     74  CA        -0.6120    4.8270   23.5450 C.3   221  LYS221      0.1728
     75  C          0.7660    5.5020   23.5720 C.2   221  LYS221      0.2616
     76  O          1.5390    5.3710   22.6250 O.2   221  LYS221     -0.2715
     77  CB        -0.4870    3.3140   23.3030 C.3   221  LYS221      0.0311
     78  CG         0.4250    2.5530   24.2610 C.3   221  LYS221      0.0038
     79  CD        -0.0710    2.5790   25.7010 C.3   221  LYS221      0.0206
     80  CE         1.0100    2.1230   26.6730 C.3   221  LYS221      0.1093
     81  NZ         2.0080    3.1940   26.9660 N.3   221  LYS221     -0.1314
     82  N          1.0490    6.2380   24.6490 N.am  222  MET222     -0.1977
     83  CA         2.3150    6.9630   24.8320 C.3   222  MET222      0.1605
     84  C          2.7450    6.8820   26.2950 C.2   222  MET222      0.2287
     85  O          1.9750    6.4180   27.1400 O.2   222  MET222     -0.2864
     86  CB         2.1400    8.4380   24.4580 C.3   222  MET222      0.0413
     87  CG         1.4170    8.6800   23.1460 C.3   222  MET222      0.0598
     88  SD         1.3310   10.4290   22.7280 S.3   222  MET222     -0.1393
     89  CE         0.1280   11.0260   23.9090 C.3   222  MET222      0.0692
     90  N          4.2160   12.4380   28.8900 N.3   226  ILE226     -0.1245
     91  CA         3.6600   13.1100   27.7130 C.3   226  ILE226      0.1561
     92  C          2.1340   12.9800   27.6430 C.2   226  ILE226      0.2260
     93  O          1.4660   13.9050   27.1770 O.2   226  ILE226     -0.2867
     94  CB         4.3370   12.6760   26.3860 C.3   226  ILE226      0.0252
     95  CG1        3.9230   13.6100   25.2280 C.3   226  ILE226      0.0019
     96  CG2        4.0280   11.2330   26.0200 C.3   226  ILE226      0.0019
     97  CD1        4.8170   13.5150   24.0040 C.3   226  ILE226      0.0001
     98  N         -0.2840   16.0560   27.2640 N.3   230  SER230     -0.1217
     99  CA        -1.3120   16.1250   26.2270 C.3   230  SER230      0.1889
    100  C         -2.6720   16.4620   26.8380 C.2   230  SER230      0.2288
    101  O         -3.4530   17.2190   26.2630 O.2   230  SER230     -0.2866
    102  CB        -1.3790   14.7960   25.4450 C.3   230  SER230      0.2089
    103  OG        -2.4790   14.7430   24.5410 O.3   230  SER230     -0.2183
    104  N         -2.6520   20.1270   27.6150 N.3   233  MET233     -0.1245
    105  CA        -2.0870   20.8500   26.4550 C.3   233  MET233      0.1570
    106  C         -0.7470   21.5430   26.7270 C.2   233  MET233      0.2261
    107  O         -0.2580   22.2990   25.8710 O.2   233  MET233     -0.2867
    108  CB        -3.1040   21.7840   25.7790 C.3   233  MET233      0.0387
    109  CG        -4.3400   21.0500   25.2980 C.3   233  MET233      0.0595
    110  SD        -5.3740   21.9440   24.1320 S.3   233  MET233     -0.1393
    111  CE        -4.3220   21.9420   22.6790 C.3   233  MET233      0.0692
    112  N          1.8700   19.8910   26.5680 N.3   235  ASN235     -0.1225
    113  CA         2.7020   19.3080   25.5190 C.3   235  ASN235      0.1785
    114  C          2.8050   20.2850   24.3620 C.2   235  ASN235      0.2597
    115  O          3.9110   20.5960   23.9160 O.2   235  ASN235     -0.2718
    116  CB         2.1650   17.9770   25.0200 C.3   235  ASN235      0.1169
    117  CG         3.1230   17.3040   24.0600 C.2   235  ASN235      0.2627
    118  OD1        4.3000   17.1240   24.3870 O.2   235  ASN235     -0.2716
    119  ND2        2.6400   16.9450   22.8730 N.am  235  ASN235     -0.0877
    120  N          1.6700   20.8010   23.8960 N.am  236  LYS236     -0.1980
    121  CA         1.6980   21.7980   22.8240 C.3   236  LYS236      0.1596
    122  C          2.3700   23.1040   23.2450 C.2   236  LYS236      0.2287
    123  O          3.0680   23.7280   22.4430 O.2   236  LYS236     -0.2864
    124  CB         0.3050   22.0580   22.2460 C.3   236  LYS236      0.0298
    125  CG         0.2810   22.2830   20.7400 C.3   236  LYS236      0.0038
    126  CD         0.8960   21.1540   19.9100 C.3   236  LYS236      0.0206
    127  CE         0.5840   19.7430   20.4220 C.3   236  LYS236      0.1093
    128  NZ         1.0170   18.6890   19.4570 N.3   236  LYS236     -0.1314
    129  N          5.8960   22.5800   22.8440 N.3   239  GLU239     -0.1245
    130  CA         6.1530   22.5270   21.4020 C.3   239  GLU239      0.1567
    131  C          6.1110   23.8870   20.6920 C.2   239  GLU239      0.2260
    132  O          6.7670   24.0630   19.6670 O.2   239  GLU239     -0.2867
    133  CB         5.2200   21.5130   20.7420 C.3   239  GLU239      0.0388
    134  CG         5.5370   20.0810   21.1700 C.3   239  GLU239      0.1160
    135  CD         4.6310   19.0500   20.5420 C.2   239  GLU239      0.3649
    136  OE1        3.6380   19.4160   19.8820 O.co2 239  GLU239     -0.2457
    137  OE2        4.9180   17.8560   20.7200 O.co2 239  GLU239     -0.2457
    138  N         -5.3100   13.5980   13.8430 N.3   262  CYS262     -0.1235
    139  CA        -3.8610   13.3900   13.8870 C.3   262  CYS262      0.1677
    140  C         -3.3030   12.8080   12.5790 C.2   262  CYS262      0.2270
    141  O         -2.4170   11.9730   12.5940 O.2   262  CYS262     -0.2867
    142  CB        -3.4490   12.5310   15.0860 C.3   262  CYS262      0.0956
    143  SG        -3.8980   13.2330   16.6810 S.3   262  CYS262     -0.0801
    144  N          0.1380   16.7140   10.4160 N.3   265  HIS265     -0.1241
    145  CA         1.0130   16.7940   11.5990 C.3   265  HIS265      0.1621
    146  C          1.4680   18.1790   11.9510 C.2   265  HIS265      0.2264
    147  O          1.8300   18.4080   13.0940 O.2   265  HIS265     -0.2867
    148  CB         2.1480   15.8030   11.4760 C.3   265  HIS265      0.0745
    149  CG         1.6490   14.4060   11.5070 C.ar  265  HIS265      0.0817
    150  ND1        1.0160   13.8820   12.6150 N.ar  265  HIS265     -0.2268
    151  CD2        1.5450   13.4740   10.5370 C.ar  265  HIS265      0.1154
    152  CE1        0.5940   12.6620   12.3360 C.ar  265  HIS265      0.1986
    153  NE2        0.8950   12.3950   11.0810 N.ar  265  HIS265     -0.2212
    154  N         -0.7050    8.4610   12.3970 N.2   282  PRO282     -0.2571
    155  CA         0.1510    8.6480   13.5800 C.3   282  PRO282      0.2026
    156  C          1.1260    7.4660   13.7430 C.2   282  PRO282      0.2683
    157  O          0.7030    6.3290   13.9620 O.2   282  PRO282     -0.2709
    158  CB        -0.8440    8.7350   14.7470 C.2   282  PRO282      0.0085
    159  CG        -2.2100    8.6410   14.1790 C.2   282  PRO282      0.0180
    160  CD        -2.1440    8.4580   12.7030 C.2   282  PRO282      0.0938
    161  N          2.4160    7.7250   13.5570 N.am  283  ASP283     -0.1953
    162  CA         3.4400    6.6790   13.5000 C.3   283  ASP283      0.1840
    163  C          4.7820    7.3820   13.5330 C.2   283  ASP283      0.2621
    164  O          5.1090    8.1140   12.6050 O.2   283  ASP283     -0.2715
    165  CB         3.2870    5.8590   12.1900 C.3   283  ASP283      0.1450
    166  CG         4.2740    4.6830   12.0700 C.2   283  ASP283      0.3671
    167  OD1        5.3170    4.6460   12.7420 O.co2 283  ASP283     -0.2456
    168  OD2        3.9960    3.7640   11.2520 O.co2 283  ASP283     -0.2456
    169  N          5.5710    7.1430   14.5770 N.am  284  MET284     -0.1977
    170  CA         6.8720    7.8190   14.7110 C.3   284  MET284      0.1605
    171  C          7.9230    7.3850   13.6920 C.2   284  MET284      0.2287
    172  O          8.9560    8.0410   13.5700 O.2   284  MET284     -0.2864
    173  CB         7.4320    7.6860   16.1340 C.3   284  MET284      0.0413
    174  CG         6.7400    8.5600   17.1640 C.3   284  MET284      0.0598
    175  SD         6.5850   10.3140   16.7660 S.3   284  MET284     -0.1393
    176  CE         8.2780   10.8860   16.6310 C.3   284  MET284      0.0692
    177  N          8.7560   10.4130   11.0220 N.3   287  PRO287     -0.2116
    178  CA         9.6800   11.4550   11.5110 C.3   287  PRO287      0.1372
    179  C         11.0900   10.9540   11.8150 C.2   287  PRO287      0.2244
    180  O         12.0610   11.6520   11.5400 O.2   287  PRO287     -0.2868
    181  CB         9.0220   11.9470   12.7970 C.3   287  PRO287      0.0268
    182  CG         7.5900   11.6380   12.6460 C.3   287  PRO287      0.0207
    183  CD         7.4640   10.4540   11.7260 C.3   287  PRO287      0.0892
@<TRIPOS>BOND
     1   144   145    1
     2   151   153   ar
     3   151   149   ar
     4   177   178    1
     5   177   183    1
     6   153   152   ar
     7   168   166   ar
     8   148   149    1
     9   148   145    1
    10   149   150   ar
    11   178   179    1
    12   178   181    1
    13   180   179    2
    14   145   146    1
    15   183   182    1
    16   146   147    2
    17   166   165    1
    18   166   167   ar
    19   165   162    1
    20   152   150   ar
    21   154   160    2
    22   154   155    1
    23    38    37    1
    24   140   141    2
    25   140   139    1
    26   164   163    2
    27   182   181    1
    28   160   159    1
    29    27    26    2
    30    21    20    2
    31   162   163    1
    32   162   161    1
    33   163   169   am
    34   161   156   am
    35   172   171    2
    36   155   156    1
    37   155   158    1
    38   171   170    1
    39   156   157    2
    40    26    25    1
    41   138   139    1
    42   139   142    1
    43    37    34    1
    44   159   158    2
    45    20    19    1
    46    20    24   am
    47    25    24    1
    48    25    28    1
    49   169   170    1
    50   170   173    1
    51    19    22    1
    52    19    18    1
    53    33    34    1
    54   142   143    1
    55    34    35    1
    56    22    23    1
    57    13    12    2
    58    28    29    1
    59   173   174    1
    60    12    18   am
    61    12    11    1
    62    29    30    1
    63    72    71   ar
    64    72    70   ar
    65    35    36    2
    66    35    39   am
    67   176   175    1
    68   175   174    1
    69    10    11    1
    70    71    69   ar
    71    70    68   ar
    72    39    40    1
    73    30    31   ar
    74    30    32   ar
    75    11    14    1
    76    42    41    2
    77    69    66   ar
    78    14    15    1
    79    68    66   ar
    80    68    67   ar
    81    41    40    1
    82    41    45   am
    83    40    43    1
    84    66    64   ar
    85    45    46    1
    86    46    49    1
    87    46    47    1
    88    16    15   ar
    89    67    65   ar
    90    15    17   ar
    91   128   127    1
    92    43    44    1
    93   132   131    2
    94    49    50    1
    95    48    47    2
    96   136   135   ar
    97   126   127    1
    98   126   125    1
    99    47    51   am
   100    64    65   ar
   101    64    63    1
   102   135   137   ar
   103   135   134    1
   104   131   130    1
   105   125   124    1
   106   133   134    1
   107   133   130    1
   108    51    52    1
   109    63    60    1
   110   130   129    1
   111    60    59    1
   112    60    61    1
   113    52    53    1
   114   124   121    1
   115   123   122    2
   116    73    61   am
   117    73    74    1
   118     9     8    1
   119    76    75    2
   120   111   110    1
   121    61    62    2
   122    88    87    1
   123    88    89    1
   124   121   122    1
   125   121   120    1
   126   119   117   am
   127     5     2    1
   128     5     6    1
   129    87    86    1
   130    53    55   am
   131    53    54    2
   132    55    56    1
   133     8     7    1
   134    77    74    1
   135    77    78    1
   136     2     1    1
   137     2     3    1
   138    74    75    1
   139    75    82   am
   140     7     6    1
   141   120   114   am
   142   115   114    2
   143    58    57    2
   144    97    95    1
   145   117   118    2
   146   117   116    1
   147   110   109    1
   148    78    79    1
   149   114   113    1
   150    56    57    1
   151    86    83    1
   152     4     3    2
   153   103   102    1
   154    82    83    1
   155    83    84    1
   156   116   113    1
   157    95    94    1
   158   109   108    1
   159   102    99    1
   160   113   112    1
   161    79    80    1
   162   108   105    1
   163   107   106    2
   164    96    94    1
   165    99   100    1
   166    99    98    1
   167   101   100    2
   168    84    85    2
   169    94    91    1
   170   105   106    1
   171   105   104    1
   172    80    81    1
   173    93    92    2
   174    92    91    1
   175    91    90    1
