@<TRIPOS>MOLECULE
tmp/5jb2A00.pdb
 184 176 0 0 0
SMALL
GASTEIGER

@<TRIPOS>ATOM
      1  N         -7.0290  -16.5970  242.8890 N.3     1  SER1       -0.1202
      2  CA        -7.2030  -15.1240  243.0740 C.3     1  SER1        0.2020
      3  C         -6.5690  -14.2880  241.9710 C.2     1  SER1        0.2619
      4  O         -5.8680  -13.3020  242.2450 O.2     1  SER1       -0.2717
      5  CB        -6.6020  -14.5840  244.4060 C.3     1  SER1        0.2103
      6  OG        -5.2110  -14.7930  244.5190 O.3     1  SER1       -0.2182
      7  N         -6.8230  -14.6740  240.7210 N.am    2  GLU2       -0.1965
      8  CA        -6.2560  -13.9660  239.5730 C.3     2  GLU2        0.1733
      9  C         -7.0290  -12.6590  239.3530 C.2     2  GLU2        0.2616
     10  O         -8.2270  -12.5930  239.6430 O.2     2  GLU2       -0.2715
     11  CB        -6.3000  -14.8560  238.3130 C.3     2  GLU2        0.0429
     12  CG        -5.1100  -14.6890  237.3780 C.3     2  GLU2        0.1163
     13  CD        -3.7630  -15.0840  238.0010 C.2     2  GLU2        0.3649
     14  OE1       -3.1600  -14.2780  238.7530 O.co2   2  GLU2       -0.2457
     15  OE2       -3.2850  -16.2080  237.7240 O.co2   2  GLU2       -0.2457
     16  N         -6.3500  -11.6380  238.8330 N.am    3  LEU3       -0.1963
     17  CA        -6.9630  -10.3180  238.6120 C.3     3  LEU3        0.1728
     18  C         -8.2240  -10.3940  237.7490 C.2     3  LEU3        0.2616
     19  O         -8.2400  -11.1030  236.7440 O.2     3  LEU3       -0.2715
     20  CB        -5.9760   -9.3640  237.9430 C.3     3  LEU3        0.0311
     21  CG        -4.7580   -8.9530  238.7830 C.3     3  LEU3        0.0022
     22  CD1       -3.7390   -8.2780  237.8910 C.3     3  LEU3        0.0001
     23  CD2       -5.1240   -8.0210  239.9280 C.3     3  LEU3        0.0001
     24  N         -9.2720   -9.6840  238.1690 N.am    4  HIS4       -0.1973
     25  CA       -10.5020   -9.5460  237.3810 C.3     4  HIS4        0.1656
     26  C        -10.2480   -8.6470  236.1930 C.2     4  HIS4        0.2291
     27  O         -9.3480   -7.8020  236.2150 O.2     4  HIS4       -0.2864
     28  CB       -11.6510   -8.9440  238.2010 C.3     4  HIS4        0.0771
     29  CG       -12.0200   -9.7500  239.4030 C.ar    4  HIS4        0.0820
     30  ND1      -12.4290  -11.0620  239.3190 N.ar    4  HIS4       -0.2267
     31  CD2      -12.0320   -9.4360  240.7210 C.ar    4  HIS4        0.1154
     32  CE1      -12.6770  -11.5240  240.5340 C.ar    4  HIS4        0.1986
     33  NE2      -12.4410  -10.5570  241.4040 N.ar    4  HIS4       -0.2212
     34  N         -9.9250   -4.9620  236.9480 N.3     7  GLN7       -0.1245
     35  CA        -8.6470   -4.6350  237.6060 C.3     7  GLN7        0.1566
     36  C         -7.5060   -4.4410  236.6080 C.2     7  GLN7        0.2260
     37  O         -6.7540   -3.4670  236.7160 O.2     7  GLN7       -0.2867
     38  CB        -8.2500   -5.7000  238.6390 C.3     7  GLN7        0.0367
     39  CG        -9.0520   -5.6410  239.9300 C.3     7  GLN7        0.0905
     40  CD        -8.8130   -6.8520  240.8200 C.2     7  GLN7        0.2608
     41  OE1       -8.9650   -7.9920  240.3830 O.2     7  GLN7       -0.2717
     42  NE2       -8.4720   -6.6120  242.0800 N.am    7  GLN7       -0.0878
     43  N        -15.6820    0.7190  246.4220 N.3    26  THR26      -0.1203
     44  CA       -15.2450    0.1780  247.7050 C.3    26  THR26       0.1994
     45  C        -15.3110   -1.3280  247.6410 C.2    26  THR26       0.2618
     46  O        -16.3360   -1.8830  247.2370 O.2    26  THR26      -0.2717
     47  CB       -16.1380    0.6400  248.8620 C.3    26  THR26       0.1784
     48  OG1      -17.4920    0.2840  248.5870 O.3    26  THR26      -0.2211
     49  CG2      -16.0270    2.1500  249.0670 C.3    26  THR26       0.0376
     50  N        -14.2190   -1.9860  248.0260 N.am   27  GLY27      -0.1942
     51  CA       -14.1540   -3.4520  248.0330 C.3    27  GLY27       0.2014
     52  C        -13.9120   -4.1230  246.6830 C.2    27  GLY27       0.2639
     53  O        -13.9750   -5.3430  246.5940 O.2    27  GLY27      -0.2714
     54  N        -13.6130   -3.3520  245.6420 N.am   28  ALA28      -0.1963
     55  CA       -13.4440   -3.9040  244.2970 C.3    28  ALA28       0.1728
     56  C        -12.1030   -4.5860  244.0900 C.2    28  ALA28       0.2617
     57  O        -11.9590   -5.3930  243.1800 O.2    28  ALA28      -0.2715
     58  CB       -13.6180   -2.8150  243.2580 C.3    28  ALA28       0.0334
     59  N        -11.1200   -4.2370  244.9110 N.am   29  GLY29      -0.1940
     60  CA        -9.7960   -4.8190  244.8380 C.3    29  GLY29       0.2014
     61  C         -8.7280   -3.8940  244.2920 C.2    29  GLY29       0.2639
     62  O         -7.8840   -4.3320  243.5270 O.2    29  GLY29      -0.2714
     63  N         -8.7270   -2.6260  244.7010 N.am   30  LYS30      -0.1963
     64  CA        -7.6850   -1.6930  244.2480 C.3    30  LYS30       0.1728
     65  C         -6.3020   -2.1010  244.7550 C.2    30  LYS30       0.2617
     66  O         -5.3170   -1.8560  244.0770 O.2    30  LYS30      -0.2715
     67  CB        -8.0010   -0.2430  244.6500 C.3    30  LYS30       0.0311
     68  CG        -9.2300    0.3480  243.9660 C.3    30  LYS30       0.0038
     69  CD        -9.6140    1.7220  244.4970 C.3    30  LYS30       0.0206
     70  CE       -10.2080    1.7090  245.8930 C.3    30  LYS30       0.1093
     71  NZ       -11.5090    1.0000  245.9280 N.3    30  LYS30      -0.1314
     72  N         -6.2230   -2.7520  245.9180 N.am   31  THR31      -0.1937
     73  CA        -4.9320   -3.0800  246.4990 C.3    31  THR31       0.2028
     74  C         -4.2030   -4.1490  245.6740 C.2    31  THR31       0.2642
     75  O         -3.0100   -3.9720  245.3460 O.2    31  THR31      -0.2714
     76  CB        -5.0400   -3.4870  247.9760 C.3    31  THR31       0.1808
     77  OG1       -6.0340   -2.6920  248.6220 O.3    31  THR31      -0.2208
     78  CG2       -3.6960   -3.2670  248.6900 C.3    31  THR31       0.0379
     79  N         -4.9120   -5.2190  245.3040 N.am   32  ARG32      -0.1977
     80  CA        -4.3180   -6.2600  244.4540 C.3    32  ARG32       0.1597
     81  C         -3.9100   -5.7600  243.0780 C.2    32  ARG32       0.2287
     82  O         -2.9420   -6.2450  242.5160 O.2    32  ARG32      -0.2864
     83  CB        -5.2310   -7.4730  244.2920 C.3    32  ARG32       0.0334
     84  CG        -4.4720   -8.6750  243.7290 C.3    32  ARG32       0.0492
     85  CD        -5.2300   -9.9610  243.8850 C.3    32  ARG32       0.2205
     86  NE        -5.5280  -10.2570  245.2840 N.pl3  32  ARG32      -0.0865
     87  CZ        -6.2460  -11.3010  245.6940 C.cat  32  ARG32       0.5346
     88  NH1       -6.7400  -12.1770  244.8240 N.pl3  32  ARG32       0.1354
     89  NH2       -6.4690  -11.4690  246.9940 N.pl3  32  ARG32       0.1354
     90  N         -2.4370   -4.5870  257.3290 N.3    62  GLN62      -0.1231
     91  CA        -3.4600   -5.2230  256.4980 C.3    62  GLN62       0.1698
     92  C         -2.9340   -5.3840  255.0840 C.2    62  GLN62       0.2592
     93  O         -3.0160   -6.4740  254.5280 O.2    62  GLN62      -0.2718
     94  CB        -4.7890   -4.4530  256.4850 C.3    62  GLN62       0.0381
     95  CG        -5.9240   -5.1960  255.7840 C.3    62  GLN62       0.0905
     96  CD        -7.1890   -4.3710  255.6620 C.2    62  GLN62       0.2608
     97  OE1       -8.0030   -4.3210  256.5760 O.2    62  GLN62      -0.2717
     98  NE2       -7.3660   -3.7330  254.5200 N.am   62  GLN62      -0.0878
     99  N         -2.3690   -4.3140  254.5190 N.am   63  HIS63      -0.1976
    100  CA        -1.9030   -4.3540  253.1410 C.3    63  HIS63       0.1656
    101  C         -0.7080   -5.2910  252.9540 C.2    63  HIS63       0.2291
    102  O         -0.5750   -5.9190  251.8990 O.2    63  HIS63      -0.2864
    103  CB        -1.5760   -2.9440  252.6060 C.3    63  HIS63       0.0771
    104  CG        -2.7780   -2.0900  252.3450 C.ar   63  HIS63       0.0820
    105  ND1       -4.0640   -2.5920  252.2700 N.ar   63  HIS63      -0.2267
    106  CD2       -2.8780   -0.7610  252.0880 C.ar   63  HIS63       0.1154
    107  CE1       -4.9030   -1.6000  252.0220 C.ar   63  HIS63       0.1986
    108  NE2       -4.2090   -0.4830  251.8990 N.ar   63  HIS63      -0.2212
    109  N         -2.1930   -9.1580  253.6350 N.3    66  LYS66      -0.1231
    110  CA        -3.2350   -9.6400  252.7120 C.3    66  LYS66       0.1693
    111  C         -2.8690   -9.5150  251.2440 C.2    66  LYS66       0.2591
    112  O         -3.4360  -10.2380  250.4220 O.2    66  LYS66      -0.2718
    113  CB        -4.5680   -8.9130  252.9320 C.3    66  LYS66       0.0285
    114  CG        -5.1130   -9.0010  254.3440 C.3    66  LYS66       0.0035
    115  CD        -5.3280  -10.4340  254.8230 C.3    66  LYS66       0.0206
    116  CE        -6.0330  -10.4420  256.1820 C.3    66  LYS66       0.1093
    117  NZ        -5.6030  -11.5740  257.0460 N.3    66  LYS66      -0.1314
    118  N         -1.9780   -8.5800  250.8990 N.am   67  GLU67      -0.1979
    119  CA        -1.6670   -8.3330  249.4920 C.3    67  GLU67       0.1602
    120  C         -0.1760   -8.3150  249.1620 C.2    67  GLU67       0.2287
    121  O          0.2900   -9.1610  248.4080 O.2    67  GLU67      -0.2864
    122  CB        -2.3390   -7.0350  249.0320 C.3    67  GLU67       0.0415
    123  CG        -3.8700   -7.0480  249.1250 C.3    67  GLU67       0.1163
    124  CD        -4.5410   -8.0260  248.1650 C.2    67  GLU67       0.3649
    125  OE1       -3.8660   -8.6300  247.3020 O.co2  67  GLU67      -0.2457
    126  OE2       -5.7680   -8.1930  248.2650 O.co2  67  GLU67      -0.2457
    127  N         -2.6730    5.3500  248.8000 N.3   131  ASP131     -0.1225
    128  CA        -3.9590    4.7010  249.0890 C.3   131  ASP131      0.1805
    129  C         -4.9220    5.7720  249.5890 C.2   131  ASP131      0.2597
    130  O         -4.4850    6.7460  250.1910 O.2   131  ASP131     -0.2718
    131  CB        -3.7610    3.6140  250.1180 C.3   131  ASP131      0.1424
    132  CG        -4.9190    2.6450  250.1910 C.2   131  ASP131      0.3668
    133  OD1       -5.4740    2.2530  249.1350 O.co2 131  ASP131     -0.2456
    134  OD2       -5.2600    2.2540  251.3200 O.co2 131  ASP131     -0.2456
    135  N         -6.2200    5.6210  249.3050 N.am  132  GLU132     -0.1979
    136  CA        -7.2370    6.5980  249.6900 C.3   132  GLU132      0.1602
    137  C         -6.7520    7.9990  249.3130 C.2   132  GLU132      0.2287
    138  O         -6.6550    8.9050  250.1480 O.2   132  GLU132     -0.2864
    139  CB        -7.5550    6.5030  251.1850 C.3   132  GLU132      0.0415
    140  CG        -7.8110    5.1120  251.7490 C.3   132  GLU132      0.1163
    141  CD        -9.0830    4.4450  251.2180 C.2   132  GLU132      0.3649
    142  OE1       -9.8400    5.0700  250.4570 O.co2 132  GLU132     -0.2457
    143  OE2       -9.3410    3.2890  251.5820 O.co2 132  GLU132     -0.2457
    144  N        -10.8320    1.6630  254.0680 N.3   439  GLY439     -0.1225
    145  CA        -9.7150    0.7290  253.9030 C.3   439  GLY439      0.1811
    146  C         -9.8270   -0.6250  254.5760 C.2   439  GLY439      0.2280
    147  O         -9.4190   -1.6340  254.0040 O.2   439  GLY439     -0.2866
    148  N        -10.7340   -4.1350  255.5690 N.3   441  ASP441     -0.1239
    149  CA       -11.3470   -5.2310  254.8110 C.3   441  ASP441      0.1674
    150  C        -11.7060   -6.4410  255.6920 C.2   441  ASP441      0.2266
    151  O        -10.8380   -7.2110  256.0950 O.2   441  ASP441     -0.2867
    152  CB       -10.4090   -5.6960  253.6970 C.3   441  ASP441      0.1410
    153  CG       -11.0580   -6.7270  252.7950 C.2   441  ASP441      0.3668
    154  OD1      -12.0520   -6.3830  252.1170 O.co2 441  ASP441     -0.2456
    155  OD2      -10.5890   -7.8760  252.7650 O.co2 441  ASP441     -0.2456
    156  N        -14.1940   -9.3830  254.8800 N.3   443  PRO443     -0.2116
    157  CA       -15.0910  -10.0060  253.8970 C.3   443  PRO443      0.1372
    158  C        -16.4600  -10.4270  254.4360 C.2   443  PRO443      0.2244
    159  O        -17.4630  -10.2710  253.7440 O.2   443  PRO443     -0.2868
    160  CB       -14.2980  -11.2280  253.4570 C.3   443  PRO443      0.0268
    161  CG       -12.8830  -10.7650  253.5120 C.3   443  PRO443      0.0207
    162  CD       -12.8130   -9.8940  254.7370 C.3   443  PRO443      0.0892
    163  N        -17.5150   -0.8150  254.3050 N.3   466  ARG466     -0.1245
    164  CA       -16.9570   -1.8180  255.2140 C.3   466  ARG466      0.1563
    165  C        -17.7900   -3.0890  255.2310 C.2   466  ARG466      0.2260
    166  O        -17.2610   -4.1510  255.5170 O.2   466  ARG466     -0.2867
    167  CB       -16.8280   -1.2910  256.6550 C.3   466  ARG466      0.0307
    168  CG       -15.8700   -0.1250  256.9150 C.3   466  ARG466      0.0489
    169  CD       -14.6190   -0.1350  256.0540 C.3   466  ARG466      0.2205
    170  NE       -14.8450    0.5980  254.8100 N.pl3 466  ARG466     -0.0865
    171  CZ       -14.1540    0.4550  253.6810 C.cat 466  ARG466      0.5346
    172  NH1      -13.1520   -0.4190  253.5670 N.pl3 466  ARG466      0.1354
    173  NH2      -14.4760    1.2040  252.6380 N.pl3 466  ARG466      0.1354
    174  N        -18.6390   -5.7630  253.4220 N.3   468  ARG468     -0.1245
    175  CA       -18.1710   -6.4220  252.1950 C.3   468  ARG468      0.1563
    176  C        -19.0630   -7.5660  251.7450 C.2   468  ARG468      0.2260
    177  O        -19.0060   -7.9370  250.5860 O.2   468  ARG468     -0.2867
    178  CB       -16.7660   -7.0160  252.3760 C.3   468  ARG468      0.0307
    179  CG       -15.7040   -6.0650  252.8990 C.3   468  ARG468      0.0489
    180  CD       -15.5460   -4.8110  252.0430 C.3   468  ARG468      0.2205
    181  NE       -14.1300   -4.4930  251.8240 N.pl3 468  ARG468     -0.0865
    182  CZ       -13.6430   -3.3080  251.4450 C.cat 468  ARG468      0.5346
    183  NH1      -14.4430   -2.2570  251.2360 N.pl3 468  ARG468      0.1354
    184  NH2      -12.3290   -3.1730  251.2760 N.pl3 468  ARG468      0.1354
@<TRIPOS>BOND
     1    26    27    2
     2    26    25    1
     3    36    37    2
     4    36    35    1
     5    19    18    2
     6    34    35    1
     7    12    13    1
     8    12    11    1
     9    25    24    1
    10    25    28    1
    11    35    38    1
    12    15    13   ar
    13    18    24   am
    14    18    17    1
    15    22    21    1
    16    20    17    1
    17    20    21    1
    18    13    14   ar
    19    28    29    1
    20    11     8    1
    21    17    16    1
    22    38    39    1
    23    21    23    1
    24    16     9   am
    25    30    29   ar
    26    30    32   ar
    27     9     8    1
    28     9    10    2
    29    29    31   ar
    30     8     7    1
    31    39    40    1
    32    41    40    2
    33    32    33   ar
    34     7     3   am
    35    31    33   ar
    36    40    42   am
    37     3     4    2
    38     3     2    1
    39    82    81    2
    40     1     2    1
    41     2     5    1
    42    81    80    1
    43    57    56    2
    44    58    55    1
    45    62    61    2
    46    84    85    1
    47    84    83    1
    48    85    86    1
    49    68    69    1
    50    68    67    1
    51    66    65    2
    52    56    55    1
    53    56    59   am
    54    64    67    1
    55    64    63    1
    56    64    65    1
    57    83    80    1
    58    61    63   am
    59    61    60    1
    60    55    54    1
    61     5     6    1
    62    80    79    1
    63    69    70    1
    64    65    72   am
    65    88    87    1
    66    60    59    1
    67    86    87    2
    68    79    74   am
    69    75    74    2
    70    54    52   am
    71    74    73    1
    72    87    89    1
    73    70    71    1
    74    72    73    1
    75    43    44    1
    76    73    76    1
    77    53    52    2
    78    52    51    1
    79    46    45    2
    80   125   124   ar
    81    45    44    1
    82    45    50   am
    83    44    47    1
    84    76    77    1
    85    76    78    1
    86    50    51    1
    87   124   126   ar
    88   124   123    1
    89   121   120    2
    90    48    47    1
    91   127   128    1
    92    47    49    1
    93   122   123    1
    94   122   119    1
    95   128   129    1
    96   128   131    1
    97   133   132   ar
    98   120   119    1
    99   135   129   am
   100   135   136    1
   101   137   136    1
   102   137   138    2
   103   119   118    1
   104   129   130    2
   105   136   139    1
   106   131   132    1
   107   132   134   ar
   108   112   111    2
   109   142   141   ar
   110   177   176    2
   111   118   111   am
   112   139   140    1
   113   141   143   ar
   114   141   140    1
   115   183   182    1
   116   111   110    1
   117   184   182    1
   118   182   181    2
   119   176   175    1
   120   181   180    1
   121   108   107   ar
   122   108   106   ar
   123   102   101    2
   124   107   105   ar
   125   180   179    1
   126   106   104   ar
   127   154   153   ar
   128   175   178    1
   129   175   174    1
   130   105   104   ar
   131   104   103    1
   132   178   179    1
   133   103   100    1
   134   173   171    1
   135   110   113    1
   136   110   109    1
   137   155   153   ar
   138   153   152    1
   139   113   114    1
   140   101   100    1
   141   100    99    1
   142   160   161    1
   143   160   157    1
   144   161   162    1
   145   172   171    1
   146   171   170    2
   147   152   149    1
   148   159   158    2
   149   157   158    1
   150   157   156    1
   151   145   144    1
   152   145   146    1
   153   147   146    2
   154   163   164    1
   155   114   115    1
   156    99    92   am
   157    98    96   am
   158    93    92    2
   159   162   156    1
   160   170   169    1
   161   149   148    1
   162   149   150    1
   163   115   116    1
   164    92    91    1
   165   164   165    1
   166   164   167    1
   167   165   166    2
   168    96    95    1
   169    96    97    2
   170   150   151    2
   171    95    94    1
   172   169   168    1
   173   116   117    1
   174    94    91    1
   175    91    90    1
   176   167   168    1
