@<TRIPOS>MOLECULE
tmp/5jbbB00.pdb
 189 188 0 0 0
SMALL
GASTEIGER

@<TRIPOS>ATOM
      1  N         15.2230  -12.9670   -5.7360 N.3    25  PHE25      -0.1227
      2  CA        14.0820  -13.5680   -5.0460 C.3    25  PHE25       0.1736
      3  C         13.0850  -14.2870   -5.9970 C.2    25  PHE25       0.2595
      4  O         12.2510  -15.0680   -5.5270 O.2    25  PHE25      -0.2718
      5  CB        13.3300  -12.5240   -4.1770 C.3    25  PHE25       0.0547
      6  CG        12.5890  -11.4720   -4.9360 C.ar   25  PHE25      -0.0202
      7  CD1       11.2460  -11.6570   -5.2770 C.ar   25  PHE25      -0.0042
      8  CD2       13.1980  -10.2610   -5.2840 C.ar   25  PHE25      -0.0042
      9  CE1       10.5470  -10.6590   -5.9820 C.ar   25  PHE25      -0.0003
     10  CE2       12.5220   -9.2600   -5.9700 C.ar   25  PHE25      -0.0003
     11  CZ        11.1700   -9.4620   -6.3290 C.ar   25  PHE25      -0.0000
     12  N         13.1590  -13.9810   -7.2910 N.am   26  CYS26      -0.1970
     13  CA        12.2180  -14.5840   -8.2800 C.3    26  CYS26       0.1712
     14  C         12.8650  -14.4570   -9.6090 C.2    26  CYS26       0.2296
     15  O         13.8430  -13.6920   -9.7700 O.2    26  CYS26      -0.2864
     16  CB        10.8120  -13.9010   -8.3240 C.3    26  CYS26       0.0983
     17  SG         9.6610  -14.5210   -7.0440 S.3    26  CYS26      -0.0798
     18  N          2.6680  -13.5840   -7.3590 N.3    41  HIS41      -0.1241
     19  CA         3.0260  -13.7080   -5.9300 C.3    41  HIS41       0.1621
     20  C          4.4430  -13.1670   -5.6020 C.2    41  HIS41       0.2264
     21  O          4.7610  -12.9500   -4.4450 O.2    41  HIS41      -0.2867
     22  CB         2.8590  -15.1800   -5.4560 C.3    41  HIS41       0.0745
     23  CG         4.0490  -16.0860   -5.6750 C.ar   41  HIS41       0.0817
     24  ND1        4.0430  -17.1020   -6.6150 N.ar   41  HIS41      -0.2268
     25  CD2        5.2120  -16.2170   -4.9990 C.ar   41  HIS41       0.1154
     26  CE1        5.1880  -17.7630   -6.5630 C.ar   41  HIS41       0.1986
     27  NE2        5.9160  -17.2610   -5.5850 N.ar   41  HIS41      -0.2212
     28  N         -3.1700  -19.2130   -5.3500 N.3    86  TYR86      -0.1241
     29  CA        -2.1970  -19.0410   -6.4820 C.3    86  TYR86       0.1605
     30  C         -2.8690  -19.1170   -7.8650 C.2    86  TYR86       0.2264
     31  O         -2.2080  -19.1850   -8.8930 O.2    86  TYR86      -0.2867
     32  CB        -1.0140  -20.0280   -6.3870 C.3    86  TYR86       0.0534
     33  CG        -0.2040  -19.7020   -5.1800 C.ar   86  TYR86      -0.0201
     34  CD1        0.6400  -18.6050   -5.1800 C.ar   86  TYR86      -0.0009
     35  CD2       -0.3770  -20.4100   -4.0010 C.ar   86  TYR86      -0.0009
     36  CE1        1.3310  -18.2340   -4.0180 C.ar   86  TYR86       0.0417
     37  CE2        0.3290  -20.0680   -2.8410 C.ar   86  TYR86       0.0417
     38  CZ         1.1630  -18.9880   -2.8540 C.ar   86  TYR86       0.1957
     39  OH         1.8430  -18.6410   -1.7100 O.3    86  TYR86      -0.2866
     40  N         16.3300  -22.2590   -5.0840 N.3   132  ARG132     -0.1245
     41  CA        16.9720  -23.2380   -4.2070 C.3   132  ARG132      0.1563
     42  C         17.3540  -24.4950   -4.9580 C.2   132  ARG132      0.2260
     43  O         16.6190  -24.9520   -5.8200 O.2   132  ARG132     -0.2867
     44  CB        16.0250  -23.6050   -3.0620 C.3   132  ARG132      0.0307
     45  CG        15.7850  -22.4780   -2.1050 C.3   132  ARG132      0.0489
     46  CD        15.2730  -23.0730   -0.7830 C.3   132  ARG132      0.2205
     47  NE        15.0640  -22.0500    0.2400 N.pl3 132  ARG132     -0.0865
     48  CZ        13.9650  -21.9920    0.9730 C.cat 132  ARG132      0.5346
     49  NH1       13.0040  -22.8890    0.7640 N.pl3 132  ARG132      0.1354
     50  NH2       13.8160  -21.0370    1.8830 N.pl3 132  ARG132      0.1354
     51  N         15.5460  -28.4860   -1.4460 N.3   135  HIS135     -0.1241
     52  CA        14.4220  -28.0260   -0.6370 C.3   135  HIS135      0.1621
     53  C         14.9300  -27.4880    0.7380 C.2   135  HIS135      0.2264
     54  O         15.6860  -28.1720    1.4470 O.2   135  HIS135     -0.2867
     55  CB        13.4210  -29.1690   -0.4670 C.3   135  HIS135      0.0745
     56  CG        12.3040  -28.8600    0.4750 C.ar  135  HIS135      0.0817
     57  ND1       11.6810  -27.6290    0.5090 N.ar  135  HIS135     -0.2268
     58  CD2       11.7370  -29.6000    1.4590 C.ar  135  HIS135      0.1154
     59  CE1       10.7540  -27.6360    1.4510 C.ar  135  HIS135      0.1986
     60  NE2       10.7710  -28.8180    2.0450 N.ar  135  HIS135     -0.2212
     61  N         -4.4270  -29.5940   -2.3260 N.3   162  PHE162     -0.1241
     62  CA        -4.7230  -28.2320   -2.7350 C.3   162  PHE162      0.1605
     63  C         -5.4110  -28.2380   -4.1160 C.2   162  PHE162      0.2264
     64  O         -5.3280  -29.2010   -4.8790 O.2   162  PHE162     -0.2867
     65  CB        -3.4210  -27.4000   -2.7580 C.3   162  PHE162      0.0534
     66  CG        -2.8030  -27.1960   -1.3900 C.ar  162  PHE162     -0.0203
     67  CD1       -3.4360  -26.4050   -0.4190 C.ar  162  PHE162     -0.0042
     68  CD2       -1.5820  -27.7770   -1.0760 C.ar  162  PHE162     -0.0042
     69  CE1       -2.8630  -26.2070    0.8140 C.ar  162  PHE162     -0.0003
     70  CE2       -1.0110  -27.5840    0.1720 C.ar  162  PHE162     -0.0003
     71  CZ        -1.6530  -26.7910    1.1200 C.ar  162  PHE162     -0.0000
     72  N         13.0100  -30.7260   -9.7520 N.3   179  ASP179     -0.1225
     73  CA        11.8150  -29.8620   -9.6490 C.3   179  ASP179      0.1805
     74  C         12.2770  -28.3940   -9.6510 C.2   179  ASP179      0.2598
     75  O         13.4290  -28.1270   -9.4240 O.2   179  ASP179     -0.2718
     76  CB        11.0920  -30.1950   -8.3400 C.3   179  ASP179      0.1424
     77  CG         9.6930  -29.5910   -8.2160 C.2   179  ASP179      0.3668
     78  OD1        9.1350  -28.9640   -9.1380 O.co2 179  ASP179     -0.2456
     79  OD2        9.1260  -29.7750   -7.1230 O.co2 179  ASP179     -0.2456
     80  N         11.3690  -27.4470   -9.8920 N.am  180  SER180     -0.1938
     81  CA        11.6440  -26.0510   -9.5050 C.3   180  SER180      0.2055
     82  C         11.3730  -25.9140   -8.0120 C.2   180  SER180      0.2643
     83  O         10.9250  -26.8910   -7.3430 O.2   180  SER180     -0.2714
     84  CB        10.7720  -25.0880  -10.3680 C.3   180  SER180      0.2130
     85  OG         9.4060  -25.5160  -10.3440 O.3   180  SER180     -0.2179
     86  N         11.6460  -24.7320   -7.4470 N.am  181  CYS181     -0.1953
     87  CA        11.6420  -24.5630   -6.0030 C.3   181  CYS181      0.1843
     88  C         11.5240  -23.0800   -5.6240 C.2   181  CYS181      0.2625
     89  O         11.3600  -22.2260   -6.5100 O.2   181  CYS181     -0.2714
     90  CB        12.9320  -25.2060   -5.4180 C.3   181  CYS181      0.0997
     91  SG        12.8230  -25.6820   -3.6450 S.3   181  CYS181     -0.0797
     92  N         11.5510  -22.7820   -4.3160 N.am  182  GLN182     -0.1963
     93  CA        11.4610  -21.3710   -3.9000 C.3   182  GLN182      0.1733
     94  C         12.5780  -20.5890   -4.5880 C.2   182  GLN182      0.2616
     95  O         13.6650  -21.1400   -4.7900 O.2   182  GLN182     -0.2715
     96  CB        11.6010  -21.1960   -2.3870 C.3   182  GLN182      0.0408
     97  CG        10.2770  -21.3450   -1.6840 C.3   182  GLN182      0.0908
     98  CD         9.7340  -22.7350   -1.8170 C.2   182  GLN182      0.2608
     99  OE1       10.4830  -23.7040   -1.6790 O.2   182  GLN182     -0.2717
    100  NE2        8.4370  -22.8520   -2.1020 N.am  182  GLN182     -0.0878
    101  N         12.2990  -19.3470   -4.9870 N.am  183  GLY183     -0.1955
    102  CA        13.2510  -18.5150   -5.7100 C.3   183  GLY183      0.1869
    103  C         13.1250  -18.6360   -7.2210 C.2   183  GLY183      0.2309
    104  O         13.5390  -17.7560   -7.9600 O.2   183  GLY183     -0.2863
    105  N         10.1150  -18.9490   -8.7420 N.3   185  SER185     -0.1217
    106  CA         8.8360  -18.4010   -9.1640 C.3   185  SER185      0.1889
    107  C          8.9980  -17.2950  -10.2020 C.2   185  SER185      0.2288
    108  O          9.8660  -16.4650  -10.1280 O.2   185  SER185     -0.2866
    109  CB         8.0570  -17.8660   -7.9780 C.3   185  SER185      0.2089
    110  OG         7.5790  -18.9680   -7.2280 O.3   185  SER185     -0.2183
    111  N          6.6560  -20.6650  -13.4420 N.3   203  VAL203     -0.1231
    112  CA         6.8270  -21.3340  -12.1290 C.3   203  VAL203      0.1692
    113  C          5.9730  -20.6450  -11.0510 C.2   203  VAL203      0.2593
    114  O          6.0590  -19.4310  -10.8630 O.2   203  VAL203     -0.2718
    115  CB         8.3290  -21.3010  -11.6930 C.3   203  VAL203      0.0266
    116  CG1        8.5460  -21.8980  -10.2700 C.3   203  VAL203      0.0020
    117  CG2        9.1660  -22.0300  -12.6720 C.3   203  VAL203      0.0020
    118  N          5.0950  -21.4060  -10.3890 N.am  204  SER204     -0.1938
    119  CA         4.1130  -20.8090   -9.4330 C.3   204  SER204      0.2055
    120  C          4.1440  -21.3620   -8.0060 C.2   204  SER204      0.2643
    121  O          4.4040  -20.6110   -7.0430 O.2   204  SER204     -0.2714
    122  CB         2.6560  -20.9700   -9.9920 C.3   204  SER204      0.2130
    123  OG         1.7360  -20.3850   -9.0790 O.3   204  SER204     -0.2179
    124  N          3.9360  -22.6650   -7.8180 N.am  205  TRP205     -0.1959
    125  CA         3.9340  -23.1980   -6.4460 C.3   205  TRP205      0.1771
    126  C          4.1230  -24.7270   -6.3780 C.2   205  TRP205      0.2620
    127  O          4.2210  -25.3770   -7.4160 O.2   205  TRP205     -0.2715
    128  CB         2.6390  -22.7890   -5.7460 C.3   205  TRP205      0.0590
    129  CG         1.3720  -23.3620   -6.3340 C.ar  205  TRP205      0.0006
    130  CD1        0.6400  -22.8750   -7.3830 C.ar  205  TRP205      0.0946
    131  CD2        0.6650  -24.5260   -5.8490 C.ar  205  TRP205      0.0152
    132  NE1       -0.4980  -23.6630   -7.5890 N.ar  205  TRP205     -0.2442
    133  CE2       -0.4800  -24.6970   -6.6870 C.ar  205  TRP205      0.0810
    134  CE3        0.9290  -25.4730   -4.8470 C.ar  205  TRP205      0.0012
    135  CZ2       -1.3900  -25.7610   -6.5250 C.ar  205  TRP205      0.0191
    136  CZ3        0.0130  -26.5570   -4.6900 C.ar  205  TRP205      0.0001
    137  CH2       -1.1240  -26.6710   -5.5190 C.ar  205  TRP205      0.0015
    138  N          4.2210  -25.2600   -5.1740 N.am  206  GLY206     -0.1940
    139  CA         4.3400  -26.7050   -4.9780 C.3   206  GLY206      0.2014
    140  C          4.3170  -26.9610   -3.4750 C.2   206  GLY206      0.2639
    141  O          4.1780  -26.0420   -2.6730 O.2   206  GLY206     -0.2714
    142  N          4.3840  -28.2380   -3.1250 N.am  207  GLU207     -0.1963
    143  CA         4.4930  -28.6720   -1.7270 C.3   207  GLU207      0.1733
    144  C          5.9010  -29.2060   -1.4790 C.2   207  GLU207      0.2616
    145  O          6.2380  -30.2680   -1.9860 O.2   207  GLU207     -0.2715
    146  CB         3.4570  -29.7490   -1.4440 C.3   207  GLU207      0.0429
    147  CG         1.9940  -29.2730   -1.5580 C.3   207  GLU207      0.1163
    148  CD         1.0260  -30.3690   -1.2680 C.2   207  GLU207      0.3649
    149  OE1        0.4510  -30.8750   -2.2410 O.co2 207  GLU207     -0.2457
    150  OE2        0.8460  -30.7240   -0.0830 O.co2 207  GLU207     -0.2457
    151  N          6.7140  -28.4590   -0.7360 N.am  208  GLU208     -0.1963
    152  CA         8.1520  -28.7050   -0.6910 C.3   208  GLU208      0.1733
    153  C          8.6900  -28.6770   -2.1300 C.2   208  GLU208      0.2616
    154  O          8.0890  -28.0550   -3.0080 O.2   208  GLU208     -0.2715
    155  CB         8.4510  -30.0190    0.0310 C.3   208  GLU208      0.0429
    156  CG         7.8650  -29.9770    1.4410 C.3   208  GLU208      0.1163
    157  CD         8.2130  -31.1760    2.2840 C.2   208  GLU208      0.3649
    158  OE1        9.1650  -31.0800    3.0860 O.co2 208  GLU208     -0.2457
    159  OE2        7.5150  -32.2030    2.1550 O.co2 208  GLU208     -0.2457
    160  N          9.8230  -29.3200   -2.3680 N.am  209  CYS209     -0.1968
    161  CA        10.4100  -29.3570   -3.7120 C.3   209  CYS209      0.1712
    162  C         10.9440  -30.7570   -3.9180 C.2   209  CYS209      0.2296
    163  O         11.5370  -31.3200   -2.9900 O.2   209  CYS209     -0.2864
    164  CB        11.5590  -28.3310   -3.8730 C.3   209  CYS209      0.0983
    165  SG        10.9940  -26.6210   -3.4570 S.3   209  CYS209     -0.0798
    166  N          4.3560  -32.7540   -7.5510 N.3   215  TYR215     -0.1227
    167  CA         4.7770  -32.1790   -8.8410 C.3   215  TYR215      0.1736
    168  C          4.8850  -30.6520   -8.6980 C.2   215  TYR215      0.2596
    169  O          4.3190  -30.0910   -7.7850 O.2   215  TYR215     -0.2718
    170  CB         3.7740  -32.5430   -9.9540 C.3   215  TYR215      0.0548
    171  CG         3.6880  -34.0270  -10.1370 C.ar  215  TYR215     -0.0200
    172  CD1        4.6630  -34.6960  -10.8220 C.ar  215  TYR215     -0.0009
    173  CD2        2.6710  -34.7180   -9.5700 C.ar  215  TYR215     -0.0009
    174  CE1        4.6340  -36.0410  -10.9640 C.ar  215  TYR215      0.0417
    175  CE2        2.6240  -36.1030   -9.6590 C.ar  215  TYR215      0.0417
    176  CZ         3.6040  -36.7410  -10.3600 C.ar  215  TYR215      0.1957
    177  OH         3.4990  -38.1160  -10.4600 O.3   215  TYR215     -0.2866
    178  N          5.6330  -30.0100   -9.5880 N.am  216  GLY216     -0.1942
    179  CA         5.6340  -28.5380   -9.6170 C.3   216  GLY216      0.2014
    180  C          4.3720  -28.1090  -10.3000 C.2   216  GLY216      0.2638
    181  O          3.9400  -28.7190  -11.2690 O.2   216  GLY216     -0.2714
    182  N          3.7900  -27.0260   -9.7810 N.am  217  ILE217     -0.1977
    183  CA         2.5900  -26.4460  -10.3350 C.3   217  ILE217      0.1596
    184  C          2.9370  -25.1250  -11.0150 C.2   217  ILE217      0.2287
    185  O          3.6540  -24.2800  -10.4560 O.2   217  ILE217     -0.2864
    186  CB         1.5440  -26.1790   -9.2550 C.3   217  ILE217      0.0276
    187  CG1        1.4550  -27.3360   -8.2520 C.3   217  ILE217      0.0022
    188  CG2        0.2040  -25.8990   -9.9070 C.3   217  ILE217      0.0022
    189  CD1        1.0820  -28.6650   -8.9010 C.3   217  ILE217      0.0001
@<TRIPOS>BOND
     1   111   112    1
     2   117   115    1
     3   112   115    1
     4   112   113    1
     5   115   116    1
     6   181   180    2
     7   113   114    2
     8   113   118   am
     9   184   185    2
    10   184   183    1
    11   174   172   ar
    12   174   176   ar
    13   172   171   ar
    14   177   176    1
    15   118   119    1
    16    84    85    1
    17    84    81    1
    18   176   175   ar
    19   183   182    1
    20   183   186    1
    21   180   182   am
    22   180   179    1
    23   107   108    2
    24   107   106    1
    25   171   170    1
    26   171   173   ar
    27   122   119    1
    28   122   123    1
    29   170   167    1
    30   188   186    1
    31    80    74   am
    32    80    81    1
    33    15    14    2
    34    72    73    1
    35   175   173   ar
    36    74    73    1
    37    74    75    2
    38    73    76    1
    39   179   178    1
    40    14    13    1
    41   178   168   am
    42    81    82    1
    43   119   120    1
    44   186   187    1
    45   106   105    1
    46   106   109    1
    47    78    77   ar
    48   189   187    1
    49    31    30    2
    50   167   168    1
    51   167   166    1
    52   168   169    2
    53    76    77    1
    54    16    13    1
    55    16    17    1
    56    13    12    1
    57    77    79   ar
    58    82    86   am
    59    82    83    2
    60   120   124   am
    61   120   121    2
    62   109   110    1
    63   104   103    2
    64    30    29    1
    65   124   125    1
    66   132   130   ar
    67   132   133   ar
    68    86    87    1
    69   127   126    2
    70   130   129   ar
    71    18    19    1
    72    12     3   am
    73   103   102    1
    74   133   135   ar
    75   133   131   ar
    76    24    26   ar
    77    24    23   ar
    78    26    27   ar
    79   135   137   ar
    80    89    88    2
    81    29    32    1
    82    29    28    1
    83   125   126    1
    84   125   128    1
    85    32    33    1
    86   126   138   am
    87   129   131   ar
    88   129   128    1
    89    11     9   ar
    90    11    10   ar
    91    87    88    1
    92    87    90    1
    93     3     4    2
    94     3     2    1
    95     9     7   ar
    96    10     8   ar
    97    19    20    1
    98    19    22    1
    99   131   134   ar
   100    43    42    2
   101     1     2    1
   102   102   101    1
   103    23    22    1
   104    23    25   ar
   105    88    92   am
   106    20    21    2
   107    27    25   ar
   108   137   136   ar
   109    90    91    1
   110     8     6   ar
   111     7     6   ar
   112    34    33   ar
   113    34    36   ar
   114    33    35   ar
   115   138   139    1
   116    40    41    1
   117     2     5    1
   118   101    94   am
   119   139   140    1
   120    42    41    1
   121     6     5    1
   122    64    63    2
   123   134   136   ar
   124    95    94    2
   125    94    93    1
   126    92    93    1
   127    41    44    1
   128    63    62    1
   129    36    38   ar
   130    35    37   ar
   131   162   161    1
   132   162   163    2
   133    93    96    1
   134   164   161    1
   135   164   165    1
   136   161   160    1
   137    91   165    1
   138   140   142   am
   139   140   141    2
   140   142   143    1
   141    44    45    1
   142   154   153    2
   143    38    37   ar
   144    38    39    1
   145    65    62    1
   146    65    66    1
   147    62    61    1
   148    96    97    1
   149   160   153   am
   150   149   148   ar
   151   153   152    1
   152    45    46    1
   153   100    98   am
   154   145   144    2
   155    98    97    1
   156    98    99    2
   157   143   144    1
   158   143   146    1
   159   147   146    1
   160   147   148    1
   161   144   151   am
   162    51    52    1
   163    66    68   ar
   164    66    67   ar
   165   148   150   ar
   166    68    70   ar
   167    46    47    1
   168   151   152    1
   169   152   155    1
   170    52    55    1
   171    52    53    1
   172    55    56    1
   173    67    69   ar
   174   155   156    1
   175    70    71   ar
   176    47    48    2
   177    56    57   ar
   178    56    58   ar
   179    57    59   ar
   180    53    54    2
   181    49    48    1
   182    69    71   ar
   183    48    50    1
   184   156   157    1
   185    59    60   ar
   186    58    60   ar
   187   159   157   ar
   188   157   158   ar
