@<TRIPOS>MOLECULE
tmp/5jbeA04.pdb
 138 129 0 0 0
SMALL
GASTEIGER

@<TRIPOS>ATOM
      1  N        338.4860  -17.7100  294.4190 N.3   158  SER158     -0.1202
      2  CA       339.7470  -18.4250  294.2950 C.3   158  SER158      0.2020
      3  C        340.7420  -17.7420  293.3470 C.2   158  SER158      0.2619
      4  O        341.9460  -17.9320  293.4720 O.2   158  SER158     -0.2717
      5  CB       339.4960  -19.8510  293.8140 C.3   158  SER158      0.2103
      6  OG       339.1200  -19.8580  292.4510 O.3   158  SER158     -0.2182
      7  N        340.2360  -16.9700  292.3900 N.am  159  GLY159     -0.1942
      8  CA       341.0790  -16.2800  291.4320 C.3   159  GLY159      0.2014
      9  C        341.5580  -17.1700  290.3050 C.2   159  GLY159      0.2639
     10  O        342.3890  -16.7360  289.4840 O.2   159  GLY159     -0.2714
     11  N        341.0650  -18.4110  290.2660 N.am  160  THR160     -0.1950
     12  CA       341.2570  -19.2990  289.1210 C.3   160  THR160      0.1897
     13  C        339.8910  -19.7550  288.6560 C.2   160  THR160      0.2313
     14  O        338.9080  -19.6460  289.3870 O.2   160  THR160     -0.2863
     15  CB       342.0500  -20.5540  289.4960 C.3   160  THR160      0.1794
     16  OG1      341.3830  -21.2230  290.5710 O.3   160  THR160     -0.2208
     17  CG2      343.4340  -20.1910  289.9180 C.3   160  THR160      0.0378
     18  N        344.0310  -27.8050  287.9080 N.3   211  LEU211     -0.1231
     19  CA       343.8160  -26.5760  288.6830 C.3   211  LEU211      0.1693
     20  C        344.0580  -25.3610  287.7940 C.2   211  LEU211      0.2591
     21  O        343.1000  -24.7370  287.3160 O.2   211  LEU211     -0.2718
     22  CB       344.7460  -26.5060  289.9020 C.3   211  LEU211      0.0284
     23  CG       344.6130  -27.5230  291.0100 C.3   211  LEU211      0.0019
     24  CD1      345.5150  -27.0730  292.1620 C.3   211  LEU211      0.0001
     25  CD2      343.1590  -27.6380  291.4780 C.3   211  LEU211      0.0001
     26  N        345.3260  -25.0440  287.5450 N.am  212  VAL212     -0.1980
     27  CA       345.7120  -23.8880  286.7380 C.3   212  VAL212      0.1595
     28  C        347.1440  -24.1360  286.2150 C.2   212  VAL212      0.2287
     29  O        347.8690  -24.9220  286.8000 O.2   212  VAL212     -0.2864
     30  CB       345.6440  -22.5790  287.5570 C.3   212  VAL212      0.0276
     31  CG1      346.7100  -22.5440  288.6410 C.3   212  VAL212      0.0022
     32  CG2      345.7410  -21.3520  286.6670 C.3   212  VAL212      0.0022
     33  N        352.5140  -29.4470  297.8350 N.3   255  ASP255     -0.1239
     34  CA       351.5110  -28.6470  297.1360 C.3   255  ASP255      0.1674
     35  C        350.5790  -29.5030  296.2750 C.2   255  ASP255      0.2266
     36  O        351.0160  -30.4340  295.5760 O.2   255  ASP255     -0.2867
     37  CB       352.1720  -27.5690  296.2650 C.3   255  ASP255      0.1410
     38  CG       351.1660  -26.6130  295.6260 C.2   255  ASP255      0.3668
     39  OD1      350.4260  -25.9110  296.3520 O.co2 255  ASP255     -0.2456
     40  OD2      351.1070  -26.5660  294.3720 O.co2 255  ASP255     -0.2456
     41  N        346.3120  -19.0310  300.9230 N.3   365  ASP365     -0.1239
     42  CA       345.1540  -19.1220  300.0110 C.3   365  ASP365      0.1674
     43  C        343.8560  -18.5960  300.6390 C.2   365  ASP365      0.2266
     44  O        343.0510  -17.9720  299.9510 O.2   365  ASP365     -0.2867
     45  CB       344.9280  -20.5600  299.5470 C.3   365  ASP365      0.1410
     46  CG       345.9450  -21.0070  298.5130 C.2   365  ASP365      0.3668
     47  OD1      346.3910  -20.1720  297.7090 O.co2 365  ASP365     -0.2456
     48  OD2      346.2990  -22.1990  298.5030 O.co2 365  ASP365     -0.2456
     49  N        343.8990  -14.8870  300.5470 N.3   368  LYS368     -0.1245
     50  CA       343.6050  -14.5530  299.1360 C.3   368  LYS368      0.1561
     51  C        342.1080  -14.5780  298.8070 C.2   368  LYS368      0.2260
     52  O        341.6130  -13.6470  298.1640 O.2   368  LYS368     -0.2867
     53  CB       344.3760  -15.4910  298.1760 C.3   368  LYS368      0.0271
     54  CG       344.0220  -15.3730  296.6840 C.3   368  LYS368      0.0035
     55  CD       344.4010  -16.6060  295.8560 C.3   368  LYS368      0.0206
     56  CE       343.6260  -17.8430  296.2810 C.3   368  LYS368      0.1093
     57  NZ       343.7740  -18.9550  295.3070 N.3   368  LYS368     -0.1314
     58  N        351.0740  -14.5170  299.7720 N.3   630  LEU630     -0.1245
     59  CA       351.0090  -14.2220  298.3390 C.3   630  LEU630      0.1561
     60  C        351.2080  -12.7300  298.0860 C.2   630  LEU630      0.2260
     61  O        351.7310  -12.3430  297.0410 O.2   630  LEU630     -0.2867
     62  CB       349.6460  -14.6510  297.7500 C.3   630  LEU630      0.0270
     63  CG       349.3140  -16.1470  297.6990 C.3   630  LEU630      0.0019
     64  CD1      347.9350  -16.4070  297.1340 C.3   630  LEU630      0.0001
     65  CD2      350.3440  -16.8860  296.8620 C.3   630  LEU630      0.0001
     66  N        353.6350  -13.2980  286.4700 N.3   673  SER673     -0.1202
     67  CA       352.6550  -13.9600  287.3310 C.3   673  SER673      0.2020
     68  C        351.9990  -12.9560  288.2710 C.2   673  SER673      0.2619
     69  O        352.5760  -11.9180  288.6130 O.2   673  SER673     -0.2717
     70  CB       353.2990  -15.0930  288.1520 C.3   673  SER673      0.2103
     71  OG       354.2500  -14.6020  289.0840 O.3   673  SER673     -0.2182
     72  N        350.8050  -13.3050  288.7260 N.am  674  ARG674     -0.1965
     73  CA       350.0110  -12.4140  289.5490 C.3   674  ARG674      0.1729
     74  C        350.7200  -11.9850  290.8300 C.2   674  ARG674      0.2616
     75  O        350.6810  -10.8100  291.1870 O.2   674  ARG674     -0.2715
     76  CB       348.6720  -13.0870  289.8800 C.3   674  ARG674      0.0348
     77  CG       347.7200  -12.2190  290.6910 C.3   674  ARG674      0.0492
     78  CD       346.3200  -12.7850  290.6350 C.3   674  ARG674      0.2205
     79  NE       345.7620  -12.6590  289.2910 N.pl3 674  ARG674     -0.0865
     80  CZ       344.5910  -13.1470  288.9090 C.cat 674  ARG674      0.5346
     81  NH1      343.8180  -13.8200  289.7580 N.pl3 674  ARG674      0.1354
     82  NH2      344.1840  -12.9620  287.6630 N.pl3 674  ARG674      0.1354
     83  N        351.3540  -12.9330  291.5170 N.am  675  TYR675     -0.1974
     84  CA       351.9550  -12.6740  292.8270 C.3   675  TYR675      0.1639
     85  C        353.4920  -12.8190  292.9210 C.2   675  TYR675      0.2290
     86  O        354.0850  -12.3520  293.9050 O.2   675  TYR675     -0.2864
     87  CB       351.2980  -13.5730  293.8800 C.3   675  TYR675      0.0560
     88  CG       349.7670  -13.4780  293.9570 C.ar  675  TYR675     -0.0198
     89  CD1      349.1320  -12.3100  294.3670 C.ar  675  TYR675     -0.0009
     90  CD2      348.9640  -14.5740  293.6390 C.ar  675  TYR675     -0.0009
     91  CE1      347.7380  -12.2340  294.4640 C.ar  675  TYR675      0.0417
     92  CE2      347.5730  -14.5060  293.7340 C.ar  675  TYR675      0.0417
     93  CZ       346.9610  -13.3370  294.1340 C.ar  675  TYR675      0.1957
     94  OH       345.5840  -13.2970  294.2250 O.3   675  TYR675     -0.2866
     95  N        355.1320  -15.4380  293.6090 N.3   677  GLU677     -0.1245
     96  CA       355.2710  -16.1910  294.8660 C.3   677  GLU677      0.1567
     97  C        356.0970  -17.4950  294.7740 C.2   677  GLU677      0.2260
     98  O        356.6090  -17.9560  295.7930 O.2   677  GLU677     -0.2867
     99  CB       353.8750  -16.4560  295.4950 C.3   677  GLU677      0.0388
    100  CG       353.1070  -17.6730  294.9680 C.3   677  GLU677      0.1160
    101  CD       352.7860  -17.6400  293.4710 C.2   677  GLU677      0.3649
    102  OE1      352.5240  -16.5620  292.9090 O.co2 677  GLU677     -0.2457
    103  OE2      352.7970  -18.7120  292.8400 O.co2 677  GLU677     -0.2457
    104  N        354.7980  -20.5950  293.0890 N.3   679  TYR679     -0.1227
    105  CA       353.9760  -21.6730  292.4860 C.3   679  TYR679      0.1736
    106  C        353.8960  -21.5410  290.9590 C.2   679  TYR679      0.2596
    107  O        353.7570  -22.5510  290.2620 O.2   679  TYR679     -0.2718
    108  CB       352.5350  -21.7730  293.0590 C.3   679  TYR679      0.0548
    109  CG       352.4460  -22.0170  294.5610 C.ar  679  TYR679     -0.0200
    110  CD1      352.8630  -23.2250  295.1080 C.ar  679  TYR679     -0.0009
    111  CD2      351.9240  -21.0570  295.4120 C.ar  679  TYR679     -0.0009
    112  CE1      352.7660  -23.4700  296.4550 C.ar  679  TYR679      0.0417
    113  CE2      351.8340  -21.2860  296.7810 C.ar  679  TYR679      0.0417
    114  CZ       352.2500  -22.4980  297.2950 C.ar  679  TYR679      0.1957
    115  OH       352.1610  -22.7510  298.6360 O.3   679  TYR679     -0.2866
    116  N        353.9490  -20.3090  290.4490 N.am  680  SER680     -0.1952
    117  CA       354.0710  -20.0720  288.9890 C.3   680  SER680      0.1924
    118  C        355.5480  -19.9290  288.6310 C.2   680  SER680      0.2314
    119  O        356.0650  -18.8110  288.5670 O.2   680  SER680     -0.2863
    120  CB       353.3190  -18.8040  288.5580 C.3   680  SER680      0.2116
    121  OG       351.9430  -19.0480  288.4220 O.3   680  SER680     -0.2180
    122  N        351.9260  -28.2560  288.5010 N.3   724  GLN724     -0.1245
    123  CA       351.9890  -27.4050  287.3200 C.3   724  GLN724      0.1566
    124  C        353.2760  -26.6030  287.2390 C.2   724  GLN724      0.2260
    125  O        353.9310  -26.3620  288.2600 O.2   724  GLN724     -0.2867
    126  CB       350.7950  -26.4390  287.2440 C.3   724  GLN724      0.0367
    127  CG       350.8880  -25.1500  288.0650 C.3   724  GLN724      0.0905
    128  CD       350.6890  -25.3650  289.5650 C.2   724  GLN724      0.2608
    129  OE1      349.8490  -26.1470  289.9880 O.2   724  GLN724     -0.2717
    130  NE2      351.4550  -24.6500  290.3660 N.am  724  GLN724     -0.0878
    131  N        354.2490  -22.7660  285.1820 N.3   726  ILE726     -0.1245
    132  CA       353.6280  -21.6230  284.5030 C.3   726  ILE726      0.1561
    133  C        354.7140  -20.6490  284.0550 C.2   726  ILE726      0.2260
    134  O        355.5750  -20.2680  284.8620 O.2   726  ILE726     -0.2867
    135  CB       352.6240  -20.8810  285.4210 C.3   726  ILE726      0.0252
    136  CG1      351.4260  -21.7860  285.7140 C.3   726  ILE726      0.0019
    137  CG2      352.1050  -19.5880  284.7770 C.3   726  ILE726      0.0019
    138  CD1      350.4750  -21.2570  286.7680 C.3   726  ILE726      0.0001
@<TRIPOS>BOND
     1   133   132    1
     2   133   134    2
     3   132   131    1
     4   132   135    1
     5   137   135    1
     6   135   136    1
     7   136   138    1
     8    28    27    1
     9    28    29    2
    10    66    67    1
    11    32    30    1
    12    27    26    1
    13    27    30    1
    14   124   123    1
    15   124   125    2
    16   126   123    1
    17   126   127    1
    18    21    20    2
    19   123   122    1
    20    67    70    1
    21    67    68    1
    22    26    20   am
    23    30    31    1
    24    82    80    1
    25    20    19    1
    26    18    19    1
    27   127   128    1
    28    70    71    1
    29    68    69    2
    30    68    72   am
    31   121   120    1
    32   120   117    1
    33   119   118    2
    34   118   117    1
    35    13    12    1
    36    13    14    2
    37    19    22    1
    38    72    73    1
    39    80    79    2
    40    80    81    1
    41   117   116    1
    42    12    15    1
    43    12    11    1
    44    79    78    1
    45    10     9    2
    46    15    17    1
    47    15    16    1
    48    73    76    1
    49    73    74    1
    50   128   129    2
    51   128   130   am
    52    76    77    1
    53    22    23    1
    54   107   106    2
    55    11     9   am
    56     9     8    1
    57   116   106   am
    58    78    77    1
    59    74    75    2
    60    74    83   am
    61   106   105    1
    62    23    25    1
    63    23    24    1
    64     8     7    1
    65    83    84    1
    66     7     3   am
    67     6     5    1
    68   105   108    1
    69   105   104    1
    70    84    85    1
    71    84    87    1
    72   103   101   ar
    73   102   101   ar
    74    85    86    2
    75   108   109    1
    76     3     4    2
    77     3     2    1
    78   101   100    1
    79    95    96    1
    80    90    92   ar
    81    90    88   ar
    82    92    93   ar
    83     5     2    1
    84    87    88    1
    85    88    89   ar
    86    93    94    1
    87    93    91   ar
    88     2     1    1
    89    89    91   ar
    90    40    38   ar
    91   109   110   ar
    92   109   111   ar
    93    97    96    1
    94    97    98    2
    95    96    99    1
    96   100    99    1
    97   110   112   ar
    98    57    56    1
    99   111   113   ar
   100    36    35    2
   101    38    37    1
   102    38    39   ar
   103    55    56    1
   104    55    54    1
   105    37    34    1
   106    35    34    1
   107   112   114   ar
   108    54    53    1
   109   113   114   ar
   110    65    63    1
   111    61    60    2
   112    64    63    1
   113    34    33    1
   114   114   115    1
   115    63    62    1
   116    47    46   ar
   117    62    59    1
   118    60    59    1
   119    52    51    2
   120    53    50    1
   121    59    58    1
   122    48    46   ar
   123    46    45    1
   124    51    50    1
   125    50    49    1
   126    45    42    1
   127    44    43    2
   128    42    43    1
   129    42    41    1
