@<TRIPOS>MOLECULE
tmp/5jbeA02.pdb
 106 100 0 0 0
SMALL
GASTEIGER

@<TRIPOS>ATOM
      1  N        341.0650  -18.4110  290.2660 N.3   160  THR160     -0.1218
      2  CA       341.2570  -19.2990  289.1210 C.3   160  THR160      0.1862
      3  C        339.8910  -19.7550  288.6560 C.2   160  THR160      0.2287
      4  O        338.9080  -19.6460  289.3870 O.2   160  THR160     -0.2866
      5  CB       342.0500  -20.5540  289.4960 C.3   160  THR160      0.1770
      6  OG1      341.3830  -21.2230  290.5710 O.3   160  THR160     -0.2211
      7  CG2      343.4340  -20.1910  289.9180 C.3   160  THR160      0.0375
      8  N        345.3260  -25.0440  287.5450 N.3   212  VAL212     -0.1231
      9  CA       345.7120  -23.8880  286.7380 C.3   212  VAL212      0.1692
     10  C        347.1440  -24.1360  286.2150 C.2   212  VAL212      0.2592
     11  O        347.8690  -24.9220  286.8000 O.2   212  VAL212     -0.2718
     12  CB       345.6440  -22.5790  287.5570 C.3   212  VAL212      0.0266
     13  CG1      346.7100  -22.5440  288.6410 C.3   212  VAL212      0.0020
     14  CG2      345.7410  -21.3520  286.6670 C.3   212  VAL212      0.0020
     15  N        347.4830  -23.5140  285.0870 N.am  213  GLY213     -0.1957
     16  CA       348.8030  -23.6240  284.4770 C.3   213  GLY213      0.1869
     17  C        348.9570  -24.8050  283.5410 C.2   213  GLY213      0.2309
     18  O        347.9750  -25.3970  283.1220 O.2   213  GLY213     -0.2863
     19  N        357.8000  -16.8920  287.3600 N.3   670  PHE670     -0.1241
     20  CA       357.3740  -16.2460  286.1150 C.3   670  PHE670      0.1605
     21  C        357.1120  -14.7690  286.4340 C.2   670  PHE670      0.2264
     22  O        356.2710  -14.4460  287.3030 O.2   670  PHE670     -0.2867
     23  CB       356.1210  -16.9320  285.5760 C.3   670  PHE670      0.0534
     24  CG       355.5460  -16.3010  284.3330 C.ar  670  PHE670     -0.0203
     25  CD1      356.3590  -15.9070  283.2730 C.ar  670  PHE670     -0.0042
     26  CD2      354.1740  -16.1380  284.2150 C.ar  670  PHE670     -0.0042
     27  CE1      355.8050  -15.3490  282.1300 C.ar  670  PHE670     -0.0003
     28  CE2      353.6200  -15.5830  283.0810 C.ar  670  PHE670     -0.0003
     29  CZ       354.4300  -15.1850  282.0370 C.ar  670  PHE670     -0.0000
     30  N        355.7070  -12.2320  284.9860 N.3   672  ARG672     -0.1231
     31  CA       354.3600  -11.7000  284.7340 C.3   672  ARG672      0.1694
     32  C        353.2660  -12.3690  285.5860 C.2   672  ARG672      0.2593
     33  O        352.0870  -12.0560  285.4210 O.2   672  ARG672     -0.2718
     34  CB       354.0090  -11.8620  283.2430 C.3   672  ARG672      0.0321
     35  CG       354.3780  -10.7030  282.3320 C.3   672  ARG672      0.0489
     36  CD       353.1180  -10.0700  281.7500 C.3   672  ARG672      0.2205
     37  NE       352.3990  -10.8840  280.7390 N.pl3 672  ARG672     -0.0865
     38  CZ       351.1260  -11.3160  280.8220 C.cat 672  ARG672      0.5346
     39  NH1      350.3370  -11.0650  281.8820 N.pl3 672  ARG672      0.1354
     40  NH2      350.6190  -12.0320  279.8140 N.pl3 672  ARG672      0.1354
     41  N        353.6350  -13.2980  286.4700 N.am  673  SER673     -0.1938
     42  CA       352.6550  -13.9600  287.3310 C.3   673  SER673      0.2055
     43  C        351.9990  -12.9560  288.2710 C.2   673  SER673      0.2642
     44  O        352.5760  -11.9180  288.6130 O.2   673  SER673     -0.2714
     45  CB       353.2990  -15.0930  288.1520 C.3   673  SER673      0.2130
     46  OG       354.2500  -14.6020  289.0840 O.3   673  SER673     -0.2179
     47  N        350.8050  -13.3050  288.7260 N.am  674  ARG674     -0.1977
     48  CA       350.0110  -12.4140  289.5490 C.3   674  ARG674      0.1597
     49  C        350.7200  -11.9850  290.8300 C.2   674  ARG674      0.2287
     50  O        350.6810  -10.8100  291.1870 O.2   674  ARG674     -0.2864
     51  CB       348.6720  -13.0870  289.8800 C.3   674  ARG674      0.0334
     52  CG       347.7200  -12.2190  290.6910 C.3   674  ARG674      0.0492
     53  CD       346.3200  -12.7850  290.6350 C.3   674  ARG674      0.2205
     54  NE       345.7620  -12.6590  289.2910 N.pl3 674  ARG674     -0.0865
     55  CZ       344.5910  -13.1470  288.9090 C.cat 674  ARG674      0.5346
     56  NH1      343.8180  -13.8200  289.7580 N.pl3 674  ARG674      0.1354
     57  NH2      344.1840  -12.9620  287.6630 N.pl3 674  ARG674      0.1354
     58  N        353.9490  -20.3090  290.4490 N.3   680  SER680     -0.1217
     59  CA       354.0710  -20.0720  288.9890 C.3   680  SER680      0.1889
     60  C        355.5480  -19.9290  288.6310 C.2   680  SER680      0.2288
     61  O        356.0650  -18.8110  288.5670 O.2   680  SER680     -0.2866
     62  CB       353.3190  -18.8040  288.5580 C.3   680  SER680      0.2089
     63  OG       351.9430  -19.0480  288.4220 O.3   680  SER680     -0.2183
     64  N        354.2490  -22.7660  285.1820 N.3   726  ILE726     -0.1231
     65  CA       353.6280  -21.6230  284.5030 C.3   726  ILE726      0.1692
     66  C        354.7140  -20.6490  284.0550 C.2   726  ILE726      0.2592
     67  O        355.5750  -20.2680  284.8620 O.2   726  ILE726     -0.2718
     68  CB       352.6240  -20.8810  285.4210 C.3   726  ILE726      0.0266
     69  CG1      351.4260  -21.7860  285.7140 C.3   726  ILE726      0.0019
     70  CG2      352.1050  -19.5880  284.7770 C.3   726  ILE726      0.0020
     71  CD1      350.4750  -21.2570  286.7680 C.3   726  ILE726      0.0001
     72  N        354.6320  -20.2440  282.7860 N.am  727  GLY727     -0.1957
     73  CA       355.4870  -19.2280  282.2010 C.3   727  GLY727      0.1869
     74  C        356.4860  -19.7350  281.1610 C.2   727  GLY727      0.2309
     75  O        357.4840  -19.0800  280.9100 O.2   727  GLY727     -0.2863
     76  N        345.4380  -24.8080  281.4880 N.3   817  SER817     -0.1202
     77  CA       344.4010  -23.7940  281.5630 C.3   817  SER817      0.2020
     78  C        344.5150  -22.8750  280.3520 C.2   817  SER817      0.2619
     79  O        345.5940  -22.7410  279.7600 O.2   817  SER817     -0.2717
     80  CB       344.5070  -22.9670  282.8420 C.3   817  SER817      0.2103
     81  OG       345.8040  -22.4360  283.0250 O.3   817  SER817     -0.2182
     82  N        343.4170  -22.2210  280.0040 N.am  818  LEU818     -0.1965
     83  CA       343.3400  -21.4430  278.7620 C.3   818  LEU818      0.1728
     84  C        344.3950  -20.3390  278.7370 C.2   818  LEU818      0.2616
     85  O        344.5180  -19.5990  279.6910 O.2   818  LEU818     -0.2715
     86  CB       341.9250  -20.8530  278.5800 C.3   818  LEU818      0.0311
     87  CG       340.7390  -21.8150  278.5800 C.3   818  LEU818      0.0022
     88  CD1      339.4500  -21.0600  278.2800 C.3   818  LEU818      0.0001
     89  CD2      340.9130  -22.9720  277.6050 C.3   818  LEU818      0.0001
     90  N        345.1680  -20.2380  277.6490 N.am  819  GLN819     -0.1963
     91  CA       346.3650  -19.3600  277.6380 C.3   819  GLN819      0.1733
     92  C        346.1420  -17.9770  277.0450 C.2   819  GLN819      0.2616
     93  O        347.1010  -17.2220  276.8710 O.2   819  GLN819     -0.2715
     94  CB       347.5420  -20.0490  276.9370 C.3   819  GLN819      0.0408
     95  CG       347.9740  -21.3320  277.6290 C.3   819  GLN819      0.0908
     96  CD       349.3510  -21.7960  277.2060 C.2   819  GLN819      0.2608
     97  OE1      349.9820  -21.2120  276.3190 O.2   819  GLN819     -0.2717
     98  NE2      349.8470  -22.8380  277.8710 N.am  819  GLN819     -0.0878
     99  N        344.8860  -17.6560  276.7450 N.am  820  ASN820     -0.1972
    100  CA       344.4920  -16.3600  276.1860 C.3   820  ASN820      0.1688
    101  C        345.1780  -16.0020  274.8450 C.2   820  ASN820      0.2292
    102  O        345.4780  -14.8390  274.6060 O.2   820  ASN820     -0.2864
    103  CB       344.7070  -15.2380  277.2160 C.3   820  ASN820      0.1181
    104  CG       343.9870  -15.4910  278.5200 C.2   820  ASN820      0.2629
    105  OD1      344.5930  -15.4650  279.5810 O.2   820  ASN820     -0.2716
    106  ND2      342.6930  -15.7390  278.4500 N.am  820  ASN820     -0.0877
@<TRIPOS>BOND
     1   102   101    2
     2   101   100    1
     3   100    99    1
     4   100   103    1
     5    97    96    2
     6    99    92   am
     7    93    92    2
     8    94    95    1
     9    94    91    1
    10    92    91    1
    11    96    95    1
    12    96    98   am
    13   103   104    1
    14    89    87    1
    15    91    90    1
    16    90    84   am
    17    88    87    1
    18   106   104   am
    19   104   105    2
    20    87    86    1
    21    86    83    1
    22    84    83    1
    23    84    85    2
    24    83    82    1
    25    79    78    2
    26    40    38    1
    27    82    78   am
    28    78    77    1
    29    37    38    2
    30    37    36    1
    31    38    39    1
    32    75    74    2
    33    74    73    1
    34    76    77    1
    35    77    80    1
    36    36    35    1
    37    29    27   ar
    38    29    28   ar
    39    27    25   ar
    40    73    72    1
    41    35    34    1
    42    72    66   am
    43    80    81    1
    44    28    26   ar
    45    18    17    2
    46    34    31    1
    47    25    24   ar
    48    17    16    1
    49    66    65    1
    50    66    67    2
    51    26    24   ar
    52    24    23    1
    53    16    15    1
    54    65    64    1
    55    65    68    1
    56    31    30    1
    57    31    32    1
    58    70    68    1
    59    15    10   am
    60    33    32    2
    61    68    69    1
    62    23    20    1
    63    32    41   am
    64    69    71    1
    65    20    21    1
    66    20    19    1
    67    10     9    1
    68    10    11    2
    69    21    22    2
    70    41    42    1
    71    14    12    1
    72     9     8    1
    73     9    12    1
    74    42    45    1
    75    42    43    1
    76    12    13    1
    77    57    55    1
    78    45    46    1
    79    43    44    2
    80    43    47   am
    81    63    62    1
    82    62    59    1
    83    61    60    2
    84    60    59    1
    85     3     2    1
    86     3     4    2
    87    47    48    1
    88    55    54    2
    89    55    56    1
    90    59    58    1
    91     2     5    1
    92     2     1    1
    93    54    53    1
    94     5     7    1
    95     5     6    1
    96    48    51    1
    97    48    49    1
    98    51    52    1
    99    53    52    1
   100    49    50    2
