@<TRIPOS>MOLECULE
tmp/5jbeA03.pdb
 119 112 0 0 0
SMALL
GASTEIGER

@<TRIPOS>ATOM
      1  N        338.4860  -17.7100  294.4190 N.3   158  SER158     -0.1202
      2  CA       339.7470  -18.4250  294.2950 C.3   158  SER158      0.2020
      3  C        340.7420  -17.7420  293.3470 C.2   158  SER158      0.2619
      4  O        341.9460  -17.9320  293.4720 O.2   158  SER158     -0.2717
      5  CB       339.4960  -19.8510  293.8140 C.3   158  SER158      0.2103
      6  OG       339.1200  -19.8580  292.4510 O.3   158  SER158     -0.2182
      7  N        340.2360  -16.9700  292.3900 N.am  159  GLY159     -0.1942
      8  CA       341.0790  -16.2800  291.4320 C.3   159  GLY159      0.2014
      9  C        341.5580  -17.1700  290.3050 C.2   159  GLY159      0.2639
     10  O        342.3890  -16.7360  289.4840 O.2   159  GLY159     -0.2714
     11  N        341.0650  -18.4110  290.2660 N.am  160  THR160     -0.1950
     12  CA       341.2570  -19.2990  289.1210 C.3   160  THR160      0.1897
     13  C        339.8910  -19.7550  288.6560 C.2   160  THR160      0.2313
     14  O        338.9080  -19.6460  289.3870 O.2   160  THR160     -0.2863
     15  CB       342.0500  -20.5540  289.4960 C.3   160  THR160      0.1794
     16  OG1      341.3830  -21.2230  290.5710 O.3   160  THR160     -0.2208
     17  CG2      343.4340  -20.1910  289.9180 C.3   160  THR160      0.0378
     18  N        345.3260  -25.0440  287.5450 N.3   212  VAL212     -0.1245
     19  CA       345.7120  -23.8880  286.7380 C.3   212  VAL212      0.1561
     20  C        347.1440  -24.1360  286.2150 C.2   212  VAL212      0.2260
     21  O        347.8690  -24.9220  286.8000 O.2   212  VAL212     -0.2867
     22  CB       345.6440  -22.5790  287.5570 C.3   212  VAL212      0.0252
     23  CG1      346.7100  -22.5440  288.6410 C.3   212  VAL212      0.0019
     24  CG2      345.7410  -21.3520  286.6670 C.3   212  VAL212      0.0019
     25  N        343.8990  -14.8870  300.5470 N.3   368  LYS368     -0.1245
     26  CA       343.6050  -14.5530  299.1360 C.3   368  LYS368      0.1561
     27  C        342.1080  -14.5780  298.8070 C.2   368  LYS368      0.2260
     28  O        341.6130  -13.6470  298.1640 O.2   368  LYS368     -0.2867
     29  CB       344.3760  -15.4910  298.1760 C.3   368  LYS368      0.0271
     30  CG       344.0220  -15.3730  296.6840 C.3   368  LYS368      0.0035
     31  CD       344.4010  -16.6060  295.8560 C.3   368  LYS368      0.0206
     32  CE       343.6260  -17.8430  296.2810 C.3   368  LYS368      0.1093
     33  NZ       343.7740  -18.9550  295.3070 N.3   368  LYS368     -0.1314
     34  N        338.7000  -11.6600  287.7440 N.3   386  MET386     -0.1230
     35  CA       339.6720  -12.6240  288.2850 C.3   386  MET386      0.1702
     36  C        340.5890  -13.2450  287.2050 C.2   386  MET386      0.2592
     37  O        341.5370  -13.9580  287.5340 O.2   386  MET386     -0.2718
     38  CB       338.9580  -13.7200  289.0830 C.3   386  MET386      0.0401
     39  CG       338.3660  -13.2460  290.4040 C.3   386  MET386      0.0596
     40  SD       339.6300  -12.7950  291.6150 S.3   386  MET386     -0.1393
     41  CE       339.5160  -11.0040  291.6130 C.3   386  MET386      0.0692
     42  N        340.2910  -13.0000  285.9310 N.am  387  GLY387     -0.1957
     43  CA       341.1930  -13.3730  284.8180 C.3   387  GLY387      0.1869
     44  C        341.9740  -12.1820  284.2770 C.2   387  GLY387      0.2309
     45  O        342.6430  -11.4690  285.0350 O.2   387  GLY387     -0.2863
     46  N        357.8000  -16.8920  287.3600 N.3   670  PHE670     -0.1241
     47  CA       357.3740  -16.2460  286.1150 C.3   670  PHE670      0.1605
     48  C        357.1120  -14.7690  286.4340 C.2   670  PHE670      0.2264
     49  O        356.2710  -14.4460  287.3030 O.2   670  PHE670     -0.2867
     50  CB       356.1210  -16.9320  285.5760 C.3   670  PHE670      0.0534
     51  CG       355.5460  -16.3010  284.3330 C.ar  670  PHE670     -0.0203
     52  CD1      356.3590  -15.9070  283.2730 C.ar  670  PHE670     -0.0042
     53  CD2      354.1740  -16.1380  284.2150 C.ar  670  PHE670     -0.0042
     54  CE1      355.8050  -15.3490  282.1300 C.ar  670  PHE670     -0.0003
     55  CE2      353.6200  -15.5830  283.0810 C.ar  670  PHE670     -0.0003
     56  CZ       354.4300  -15.1850  282.0370 C.ar  670  PHE670     -0.0000
     57  N        355.7070  -12.2320  284.9860 N.3   672  ARG672     -0.1231
     58  CA       354.3600  -11.7000  284.7340 C.3   672  ARG672      0.1694
     59  C        353.2660  -12.3690  285.5860 C.2   672  ARG672      0.2593
     60  O        352.0870  -12.0560  285.4210 O.2   672  ARG672     -0.2718
     61  CB       354.0090  -11.8620  283.2430 C.3   672  ARG672      0.0321
     62  CG       354.3780  -10.7030  282.3320 C.3   672  ARG672      0.0489
     63  CD       353.1180  -10.0700  281.7500 C.3   672  ARG672      0.2205
     64  NE       352.3990  -10.8840  280.7390 N.pl3 672  ARG672     -0.0865
     65  CZ       351.1260  -11.3160  280.8220 C.cat 672  ARG672      0.5346
     66  NH1      350.3370  -11.0650  281.8820 N.pl3 672  ARG672      0.1354
     67  NH2      350.6190  -12.0320  279.8140 N.pl3 672  ARG672      0.1354
     68  N        353.6350  -13.2980  286.4700 N.am  673  SER673     -0.1938
     69  CA       352.6550  -13.9600  287.3310 C.3   673  SER673      0.2055
     70  C        351.9990  -12.9560  288.2710 C.2   673  SER673      0.2643
     71  O        352.5760  -11.9180  288.6130 O.2   673  SER673     -0.2714
     72  CB       353.2990  -15.0930  288.1520 C.3   673  SER673      0.2130
     73  OG       354.2500  -14.6020  289.0840 O.3   673  SER673     -0.2179
     74  N        350.8050  -13.3050  288.7260 N.am  674  ARG674     -0.1963
     75  CA       350.0110  -12.4140  289.5490 C.3   674  ARG674      0.1729
     76  C        350.7200  -11.9850  290.8300 C.2   674  ARG674      0.2616
     77  O        350.6810  -10.8100  291.1870 O.2   674  ARG674     -0.2715
     78  CB       348.6720  -13.0870  289.8800 C.3   674  ARG674      0.0348
     79  CG       347.7200  -12.2190  290.6910 C.3   674  ARG674      0.0492
     80  CD       346.3200  -12.7850  290.6350 C.3   674  ARG674      0.2205
     81  NE       345.7620  -12.6590  289.2910 N.pl3 674  ARG674     -0.0865
     82  CZ       344.5910  -13.1470  288.9090 C.cat 674  ARG674      0.5346
     83  NH1      343.8180  -13.8200  289.7580 N.pl3 674  ARG674      0.1354
     84  NH2      344.1840  -12.9620  287.6630 N.pl3 674  ARG674      0.1354
     85  N        351.3540  -12.9330  291.5170 N.am  675  TYR675     -0.1974
     86  CA       351.9550  -12.6740  292.8270 C.3   675  TYR675      0.1639
     87  C        353.4920  -12.8190  292.9210 C.2   675  TYR675      0.2290
     88  O        354.0850  -12.3520  293.9050 O.2   675  TYR675     -0.2864
     89  CB       351.2980  -13.5730  293.8800 C.3   675  TYR675      0.0560
     90  CG       349.7670  -13.4780  293.9570 C.ar  675  TYR675     -0.0198
     91  CD1      349.1320  -12.3100  294.3670 C.ar  675  TYR675     -0.0009
     92  CD2      348.9640  -14.5740  293.6390 C.ar  675  TYR675     -0.0009
     93  CE1      347.7380  -12.2340  294.4640 C.ar  675  TYR675      0.0417
     94  CE2      347.5730  -14.5060  293.7340 C.ar  675  TYR675      0.0417
     95  CZ       346.9610  -13.3370  294.1340 C.ar  675  TYR675      0.1957
     96  OH       345.5840  -13.2970  294.2250 O.3   675  TYR675     -0.2866
     97  N        355.1320  -15.4380  293.6090 N.3   677  GLU677     -0.1245
     98  CA       355.2710  -16.1910  294.8660 C.3   677  GLU677      0.1567
     99  C        356.0970  -17.4950  294.7740 C.2   677  GLU677      0.2260
    100  O        356.6090  -17.9560  295.7930 O.2   677  GLU677     -0.2867
    101  CB       353.8750  -16.4560  295.4950 C.3   677  GLU677      0.0388
    102  CG       353.1070  -17.6730  294.9680 C.3   677  GLU677      0.1160
    103  CD       352.7860  -17.6400  293.4710 C.2   677  GLU677      0.3649
    104  OE1      352.5240  -16.5620  292.9090 O.co2 677  GLU677     -0.2457
    105  OE2      352.7970  -18.7120  292.8400 O.co2 677  GLU677     -0.2457
    106  N        353.9490  -20.3090  290.4490 N.3   680  SER680     -0.1217
    107  CA       354.0710  -20.0720  288.9890 C.3   680  SER680      0.1889
    108  C        355.5480  -19.9290  288.6310 C.2   680  SER680      0.2288
    109  O        356.0650  -18.8110  288.5670 O.2   680  SER680     -0.2866
    110  CB       353.3190  -18.8040  288.5580 C.3   680  SER680      0.2089
    111  OG       351.9430  -19.0480  288.4220 O.3   680  SER680     -0.2183
    112  N        354.2490  -22.7660  285.1820 N.3   726  ILE726     -0.1245
    113  CA       353.6280  -21.6230  284.5030 C.3   726  ILE726      0.1561
    114  C        354.7140  -20.6490  284.0550 C.2   726  ILE726      0.2260
    115  O        355.5750  -20.2680  284.8620 O.2   726  ILE726     -0.2867
    116  CB       352.6240  -20.8810  285.4210 C.3   726  ILE726      0.0252
    117  CG1      351.4260  -21.7860  285.7140 C.3   726  ILE726      0.0019
    118  CG2      352.1050  -19.5880  284.7770 C.3   726  ILE726      0.0019
    119  CD1      350.4750  -21.2570  286.7680 C.3   726  ILE726      0.0001
@<TRIPOS>BOND
     1    67    65    1
     2    64    65    2
     3    64    63    1
     4    65    66    1
     5    63    62    1
     6    56    54   ar
     7    56    55   ar
     8    54    52   ar
     9    62    61    1
    10    55    53   ar
    11    61    58    1
    12    52    51   ar
    13   114   113    1
    14   114   115    2
    15    53    51   ar
    16    44    43    1
    17    44    45    2
    18    51    50    1
    19   113   112    1
    20   113   116    1
    21    58    57    1
    22    58    59    1
    23   118   116    1
    24    43    42    1
    25    60    59    2
    26   116   117    1
    27    50    47    1
    28    59    68   am
    29   117   119    1
    30    42    36   am
    31    47    48    1
    32    47    46    1
    33    20    19    1
    34    20    21    2
    35    48    49    2
    36    68    69    1
    37    24    22    1
    38    19    18    1
    39    19    22    1
    40    36    37    2
    41    36    35    1
    42    69    72    1
    43    69    70    1
    44    22    23    1
    45    84    82    1
    46    34    35    1
    47    72    73    1
    48    70    71    2
    49    70    74   am
    50    35    38    1
    51   111   110    1
    52   110   107    1
    53   109   108    2
    54   108   107    1
    55    13    12    1
    56    13    14    2
    57    74    75    1
    58    82    81    2
    59    82    83    1
    60   107   106    1
    61    38    39    1
    62    12    15    1
    63    12    11    1
    64    81    80    1
    65    10     9    2
    66    15    17    1
    67    15    16    1
    68    75    78    1
    69    75    76    1
    70    78    79    1
    71    11     9   am
    72     9     8    1
    73    39    40    1
    74    80    79    1
    75    76    77    2
    76    76    85   am
    77     8     7    1
    78    85    86    1
    79    41    40    1
    80     7     3   am
    81     6     5    1
    82    86    87    1
    83    86    89    1
    84   105   103   ar
    85   104   103   ar
    86    87    88    2
    87     3     4    2
    88     3     2    1
    89   103   102    1
    90    97    98    1
    91    92    94   ar
    92    92    90   ar
    93    94    95   ar
    94     5     2    1
    95    89    90    1
    96    90    91   ar
    97    95    96    1
    98    95    93   ar
    99     2     1    1
   100    91    93   ar
   101    99    98    1
   102    99   100    2
   103    98   101    1
   104   102   101    1
   105    33    32    1
   106    31    32    1
   107    31    30    1
   108    30    29    1
   109    28    27    2
   110    29    26    1
   111    27    26    1
   112    26    25    1
