@<TRIPOS>MOLECULE
tmp/5jbfA02.pdb
 84 83 0 0 0
SMALL
GASTEIGER

@<TRIPOS>ATOM
      1  N         41.0190   52.6750   20.7930 N.3   634  GLU634     -0.1231
      2  CA        42.3940   52.5120   20.3230 C.3   634  GLU634      0.1684
      3  C         43.3180   53.2570   21.2950 C.2   634  GLU634      0.2434
      4  O         42.9840   54.3550   21.7500 O.2   634  GLU634     -0.2733
      5  CB        42.5510   53.0610   18.8980 C.3   634  GLU634      0.0402
      6  CG        41.7260   52.3570   17.8130 C.3   634  GLU634      0.1161
      7  CD        42.1440   50.9120   17.5160 C.2   634  GLU634      0.3649
      8  OE1       43.1940   50.4260   17.9900 O.co2 634  GLU634     -0.2457
      9  OE2       41.4180   50.2410   16.7670 O.co2 634  GLU634     -0.2457
     10  N         44.4700   52.6600   21.6420 N.am  635  PRO635     -0.2718
     11  CA        45.3780   53.3940   22.5180 C.3   635  PRO635      0.1535
     12  C         45.9420   54.6390   21.8510 C.2   635  PRO635      0.2599
     13  O         46.0600   54.6820   20.6100 O.2   635  PRO635     -0.2715
     14  CB        46.4760   52.3760   22.8460 C.3   635  PRO635      0.0310
     15  CG        46.3790   51.3340   21.7720 C.3   635  PRO635      0.0237
     16  CD        44.9460   51.2930   21.3750 C.3   635  PRO635      0.0939
     17  N         46.2400   55.6460   22.6760 N.am  636  THR636     -0.1937
     18  CA        46.8760   56.8970   22.2280 C.3   636  THR636      0.2028
     19  C         48.3990   56.9230   22.4180 C.2   636  THR636      0.2643
     20  O         49.0370   57.8910   22.0190 O.2   636  THR636     -0.2714
     21  CB        46.2930   58.1100   22.9730 C.3   636  THR636      0.1808
     22  OG1       46.1670   57.7940   24.3680 O.3   636  THR636     -0.2208
     23  CG2       44.9420   58.4790   22.4120 C.3   636  THR636      0.0379
     24  N         48.9730   55.8810   23.0240 N.am  637  SER637     -0.1935
     25  CA        50.4190   55.8070   23.2640 C.3   637  SER637      0.2055
     26  C         50.8310   54.3770   23.6140 C.2   637  SER637      0.2642
     27  O         49.9720   53.5260   23.8540 O.2   637  SER637     -0.2714
     28  CB        50.8290   56.7410   24.4060 C.3   637  SER637      0.2130
     29  OG        50.3780   56.2320   25.6490 O.3   637  SER637     -0.2179
     30  N         52.1460   54.1400   23.6800 N.am  638  VAL638     -0.1977
     31  CA        52.6800   52.8270   24.0600 C.3   638  VAL638      0.1596
     32  C         52.2770   52.5170   25.5120 C.2   638  VAL638      0.2287
     33  O         51.8660   51.4010   25.8130 O.2   638  VAL638     -0.2864
     34  CB        54.2280   52.7210   23.8480 C.3   638  VAL638      0.0276
     35  CG1       54.7730   51.3830   24.3500 C.3   638  VAL638      0.0022
     36  CG2       54.5820   52.8850   22.3700 C.3   638  VAL638      0.0022
     37  N         48.7020   51.0340   25.7990 N.3   641  HIS641     -0.1241
     38  CA        48.4700   49.6970   25.2580 C.3   641  HIS641      0.1621
     39  C         47.9360   48.8370   26.3920 C.2   641  HIS641      0.2264
     40  O         48.5500   48.7720   27.4590 O.2   641  HIS641     -0.2867
     41  CB        49.7770   49.0560   24.7610 C.3   641  HIS641      0.0745
     42  CG        50.2710   49.5820   23.4530 C.ar  641  HIS641      0.0817
     43  ND1       51.3140   48.9930   22.7740 N.ar  641  HIS641     -0.2268
     44  CD2       49.8710   50.6250   22.6940 C.ar  641  HIS641      0.1154
     45  CE1       51.5530   49.6620   21.6630 C.ar  641  HIS641      0.1986
     46  NE2       50.6790   50.6480   21.5820 N.ar  641  HIS641     -0.2212
     47  N         43.8410   42.6570   13.5240 N.3   669  PRO669     -0.2116
     48  CA        42.4500   42.9030   13.2040 C.3   669  PRO669      0.1372
     49  C         42.2980   43.4370   11.8090 C.2   669  PRO669      0.2244
     50  O         43.1440   44.1730   11.3410 O.2   669  PRO669     -0.2868
     51  CB        42.0520   43.9730   14.2280 C.3   669  PRO669      0.0268
     52  CG        43.3190   44.7220   14.5030 C.3   669  PRO669      0.0207
     53  CD        44.4170   43.7080   14.4030 C.3   669  PRO669      0.0892
     54  N         37.4510   46.4910   15.8160 N.3   676  ASN676     -0.1240
     55  CA        38.9300   46.2920   15.8590 C.3   676  ASN676      0.1653
     56  C         39.3700   45.4230   17.0460 C.2   676  ASN676      0.2266
     57  O         40.5200   45.4930   17.5080 O.2   676  ASN676     -0.2867
     58  CB        39.6790   47.6400   15.7810 C.3   676  ASN676      0.1155
     59  CG        39.9600   48.0440   14.3530 C.2   676  ASN676      0.2627
     60  OD1       41.0520   47.8210   13.8560 O.2   676  ASN676     -0.2716
     61  ND2       38.9600   48.5660   13.6580 N.am  676  ASN676     -0.0877
     62  N         51.0480   47.5670   16.0430 N.3   693  PRO693     -0.2102
     63  CA        50.3790   46.8660   17.1490 C.3   693  PRO693      0.1504
     64  C         48.8870   46.6510   16.8660 C.2   693  PRO693      0.2576
     65  O         48.2970   47.4100   16.1030 O.2   693  PRO693     -0.2718
     66  CB        50.5930   47.7970   18.3540 C.3   693  PRO693      0.0282
     67  CG        50.8410   49.1430   17.7590 C.3   693  PRO693      0.0208
     68  CD        51.4850   48.9240   16.4170 C.3   693  PRO693      0.0893
     69  N         48.3080   45.6080   17.4640 N.am  694  THR694     -0.1939
     70  CA        46.8460   45.4330   17.4630 C.3   694  THR694      0.2028
     71  C         46.2710   46.5190   18.3560 C.2   694  THR694      0.2642
     72  O         46.9920   47.4120   18.7730 O.2   694  THR694     -0.2714
     73  CB        46.4260   44.0460   17.9800 C.3   694  THR694      0.1808
     74  OG1       46.7730   43.9260   19.3690 O.3   694  THR694     -0.2208
     75  CG2       47.0830   42.9270   17.1700 C.3   694  THR694      0.0379
     76  N         44.9740   46.4650   18.6380 N.am  695  LYS695     -0.1977
     77  CA        44.3840   47.3680   19.6130 C.3   695  LYS695      0.1596
     78  C         45.1040   47.2540   20.9400 C.2   695  LYS695      0.2287
     79  O         45.3610   48.2530   21.5820 O.2   695  LYS695     -0.2864
     80  CB        42.8770   47.0960   19.8140 C.3   695  LYS695      0.0298
     81  CG        42.1940   48.1230   20.6950 C.3   695  LYS695      0.0038
     82  CD        40.7580   47.7490   21.0850 C.3   695  LYS695      0.0206
     83  CE        39.7680   48.0530   19.9890 C.3   695  LYS695      0.1093
     84  NZ        38.3690   47.8070   20.4260 N.3   695  LYS695     -0.1314
@<TRIPOS>BOND
     1    50    49    2
     2    49    48    1
     3    48    47    1
     4    48    51    1
     5    47    53    1
     6    61    59   am
     7    60    59    2
     8    51    52    1
     9    59    58    1
    10    53    52    1
    11    58    55    1
    12    54    55    1
    13    55    56    1
    14    62    68    1
    15    62    63    1
    16    65    64    2
    17    68    67    1
    18     9     7   ar
    19    64    63    1
    20    64    69   am
    21    56    57    2
    22    63    66    1
    23    75    73    1
    24    70    69    1
    25    70    73    1
    26    70    71    1
    27     7     6    1
    28     7     8   ar
    29    67    66    1
    30     6     5    1
    31    73    74    1
    32    71    76   am
    33    71    72    2
    34    76    77    1
    35     5     2    1
    36    77    80    1
    37    77    78    1
    38    80    81    1
    39    83    84    1
    40    83    82    1
    41     2     1    1
    42     2     3    1
    43    13    12    2
    44    81    82    1
    45    78    79    2
    46     3    10   am
    47     3     4    2
    48    16    10    1
    49    16    15    1
    50    46    45   ar
    51    46    44   ar
    52    10    11    1
    53    45    43   ar
    54    15    14    1
    55    12    11    1
    56    12    17   am
    57    20    19    2
    58    18    19    1
    59    18    17    1
    60    18    21    1
    61    36    34    1
    62    23    21    1
    63    19    24   am
    64    11    14    1
    65    44    42   ar
    66    43    42   ar
    67    21    22    1
    68    24    25    1
    69    25    26    1
    70    25    28    1
    71    42    41    1
    72    26    30   am
    73    26    27    2
    74    30    31    1
    75    34    31    1
    76    34    35    1
    77    31    32    1
    78    28    29    1
    79    41    38    1
    80    38    37    1
    81    38    39    1
    82    32    33    2
    83    39    40    2
