@<TRIPOS>MOLECULE
tmp/5jbfB03.pdb
 103 94 0 0 0
SMALL
GASTEIGER

@<TRIPOS>ATOM
      1  N         11.3700   18.2500   58.3580 N.3   198  GLN198     -0.1245
      2  CA        10.5910   17.2600   59.1080 C.3   198  GLN198      0.1566
      3  C         11.2260   16.8420   60.4220 C.2   198  GLN198      0.2260
      4  O         10.5420   16.7880   61.4560 O.2   198  GLN198     -0.2867
      5  CB        10.3390   16.0090   58.2430 C.3   198  GLN198      0.0367
      6  CG         9.3240   15.0490   58.8720 C.3   198  GLN198      0.0905
      7  CD         9.0240   13.8700   58.0010 C.2   198  GLN198      0.2608
      8  OE1        9.6580   13.6960   56.9720 O.2   198  GLN198     -0.2717
      9  NE2        8.0520   13.0540   58.3960 N.am  198  GLN198     -0.0878
     10  N          3.8600   11.0250   55.1710 N.3   266  ASP266     -0.1239
     11  CA         4.3640    9.6530   55.3130 C.3   266  ASP266      0.1674
     12  C          3.2470    8.6950   55.7120 C.2   266  ASP266      0.2266
     13  O          3.1080    7.5940   55.1720 O.2   266  ASP266     -0.2867
     14  CB         5.4490    9.5730   56.3830 C.3   266  ASP266      0.1410
     15  CG         6.7310   10.2840   56.0010 C.2   266  ASP266      0.3668
     16  OD1        7.0230   10.4850   54.7960 O.co2 266  ASP266     -0.2456
     17  OD2        7.4830   10.6290   56.9470 O.co2 266  ASP266     -0.2456
     18  N          0.5790    8.0170   52.9610 N.3   269  GLY269     -0.1210
     19  CA         1.1540    7.0480   52.0360 C.3   269  GLY269      0.1956
     20  C          1.1760    5.6390   52.6170 C.2   269  GLY269      0.2611
     21  O          0.8960    4.6640   51.9020 O.2   269  GLY269     -0.2717
     22  N          1.5160    5.5280   53.9100 N.am  270  GLN270     -0.1979
     23  CA         1.5910    4.2300   54.5700 C.3   270  GLN270      0.1601
     24  C          0.2150    3.5640   54.6150 C.2   270  GLN270      0.2287
     25  O          0.0920    2.3750   54.3120 O.2   270  GLN270     -0.2864
     26  CB         2.1760    4.3710   55.9920 C.3   270  GLN270      0.0394
     27  CG         2.4040    3.0550   56.7250 C.3   270  GLN270      0.0908
     28  CD         2.8360    3.2450   58.1740 C.2   270  GLN270      0.2608
     29  OE1        3.0430    4.3600   58.6300 O.2   270  GLN270     -0.2717
     30  NE2        2.8970    2.1580   58.9160 N.am  270  GLN270     -0.0878
     31  N         -0.8760    2.3870   51.1070 N.3   273  ASN273     -0.1240
     32  CA        -0.1610    1.1690   50.7600 C.3   273  ASN273      0.1653
     33  C         -0.6370   -0.0580   51.5180 C.2   273  ASN273      0.2266
     34  O         -0.7290   -1.1430   50.9390 O.2   273  ASN273     -0.2867
     35  CB         1.3540    1.3390   50.9550 C.3   273  ASN273      0.1155
     36  CG         2.1300    0.1380   50.4450 C.2   273  ASN273      0.2627
     37  OD1        1.8880   -0.3400   49.3360 O.2   273  ASN273     -0.2716
     38  ND2        3.0410   -0.3700   51.2550 N.am  273  ASN273     -0.0877
     39  N          2.7730    0.5150   46.6770 N.3   279  LYS279     -0.1245
     40  CA         4.2270    0.5270   46.5350 C.3   279  LYS279      0.1561
     41  C          4.7090   -0.6630   45.7090 C.2   279  LYS279      0.2260
     42  O          4.3340   -1.7950   45.9830 O.2   279  LYS279     -0.2867
     43  CB         4.8870    0.4880   47.9040 C.3   279  LYS279      0.0271
     44  CG         6.3790    0.7690   47.8760 C.3   279  LYS279      0.0035
     45  CD         6.9370    0.9020   49.2990 C.3   279  LYS279      0.0206
     46  CE         8.4550    1.0460   49.3350 C.3   279  LYS279      0.1093
     47  NZ         8.9220    1.4110   50.7140 N.3   279  LYS279     -0.1314
     48  N         13.1670   11.0240   47.9100 N.3   305  GLU305     -0.1231
     49  CA        13.7910   10.3020   48.9970 C.3   305  GLU305      0.1699
     50  C         12.8120    9.3940   49.7450 C.2   305  GLU305      0.2592
     51  O         13.2220    8.4010   50.3180 O.2   305  GLU305     -0.2718
     52  CB        14.4030   11.2690   50.0050 C.3   305  GLU305      0.0402
     53  CG        15.6120   12.0480   49.4940 C.3   305  GLU305      0.1161
     54  CD        16.0790   13.1050   50.4950 C.2   305  GLU305      0.3649
     55  OE1       15.4410   13.2700   51.5770 O.co2 305  GLU305     -0.2457
     56  OE2       17.0720   13.7870   50.1990 O.co2 305  GLU305     -0.2457
     57  N         11.5290    9.7500   49.7590 N.am  306  LYS306     -0.1980
     58  CA        10.4590    8.9200   50.3530 C.3   306  LYS306      0.1596
     59  C          9.8300    7.8890   49.3820 C.2   306  LYS306      0.2287
     60  O          8.8650    7.2180   49.7400 O.2   306  LYS306     -0.2864
     61  CB         9.3560    9.8330   50.9200 C.3   306  LYS306      0.0298
     62  CG         9.8420   10.7510   52.0260 C.3   306  LYS306      0.0038
     63  CD         8.8170   11.8150   52.3820 C.3   306  LYS306      0.0206
     64  CE         9.2490   12.6000   53.6230 C.3   306  LYS306      0.1093
     65  NZ         9.3800   11.8040   54.8700 N.3   306  LYS306     -0.1314
     66  N          5.3350    8.8710   47.5440 N.3   309  PRO309     -0.2116
     67  CA         3.9860    8.5070   47.9410 C.3   309  PRO309      0.1372
     68  C          2.8830    9.4480   47.4150 C.2   309  PRO309      0.2244
     69  O          1.6970    9.0760   47.4090 O.2   309  PRO309     -0.2868
     70  CB         4.0410    8.5490   49.4580 C.3   309  PRO309      0.0268
     71  CG         5.1540    9.5050   49.7770 C.3   309  PRO309      0.0207
     72  CD         6.1670    9.2860   48.6830 C.3   309  PRO309      0.0892
     73  N          6.4500    4.3190   44.5450 N.3   612  THR612     -0.1218
     74  CA         4.9980    4.2600   44.4920 C.3   612  THR612      0.1862
     75  C          4.6260    4.9130   43.1700 C.2   612  THR612      0.2287
     76  O          4.3690    4.2220   42.1770 O.2   612  THR612     -0.2866
     77  CB         4.4010    4.9010   45.7640 C.3   612  THR612      0.1770
     78  OG1        4.8010    4.1110   46.8750 O.3   612  THR612     -0.2211
     79  CG2        2.8790    4.9750   45.7230 C.3   612  THR612      0.0375
     80  N          4.6380    2.4240   63.9380 N.3   790  THR790     -0.1203
     81  CA         5.6660    3.1260   63.1690 C.3   790  THR790      0.1994
     82  C          5.9170    4.4890   63.8090 C.2   790  THR790      0.2617
     83  O          5.0230    5.3370   63.8800 O.2   790  THR790     -0.2717
     84  CB         5.2290    3.3090   61.7060 C.3   790  THR790      0.1784
     85  OG1        5.0290    2.0210   61.1310 O.3   790  THR790     -0.2211
     86  CG2        6.2810    4.0880   60.8790 C.3   790  THR790      0.0376
     87  N          7.1510    4.6930   64.2570 N.am  791  LYS791     -0.1979
     88  CA         7.5440    5.9380   64.9120 C.3   791  LYS791      0.1596
     89  C          7.6940    7.0480   63.8790 C.2   791  LYS791      0.2287
     90  O          8.4440    6.9110   62.9630 O.2   791  LYS791     -0.2864
     91  CB         8.8460    5.7360   65.6740 C.3   791  LYS791      0.0298
     92  CG         8.6930    4.7360   66.7850 C.3   791  LYS791      0.0038
     93  CD         9.9390    4.6110   67.6350 C.3   791  LYS791      0.0206
     94  CE         9.5390    3.9310   68.9560 C.3   791  LYS791      0.1093
     95  NZ         9.4320    2.4600   68.7580 N.3   791  LYS791     -0.1314
     96  N          8.7850   10.6350   62.1730 N.3   793  ILE793     -0.1245
     97  CA        10.0990   11.2720   62.1070 C.3   793  ILE793      0.1561
     98  C         10.1510   12.4490   63.0720 C.2   793  ILE793      0.2260
     99  O         11.0290   12.5170   63.9170 O.2   793  ILE793     -0.2867
    100  CB        10.4340   11.7830   60.6770 C.3   793  ILE793      0.0252
    101  CG1       10.4680   10.6470   59.6350 C.3   793  ILE793      0.0019
    102  CG2       11.7550   12.5780   60.6560 C.3   793  ILE793      0.0019
    103  CD1       11.7630    9.8920   59.5290 C.3   793  ILE793      0.0001
@<TRIPOS>BOND
     1    76    75    2
     2    75    74    1
     3    74    73    1
     4    74    77    1
     5    41    42    2
     6    41    40    1
     7    79    77    1
     8    77    78    1
     9    40    39    1
    10    40    43    1
    11    69    68    2
    12    68    67    1
    13    66    67    1
    14    66    72    1
    15    44    43    1
    16    44    45    1
    17    48    49    1
    18    67    70    1
    19    72    71    1
    20    49    50    1
    21    49    52    1
    22    45    46    1
    23    46    47    1
    24    37    36    2
    25    59    60    2
    26    59    58    1
    27    70    71    1
    28    53    52    1
    29    53    54    1
    30    50    57   am
    31    50    51    2
    32    57    58    1
    33    56    54   ar
    34    58    61    1
    35    36    35    1
    36    36    38   am
    37    54    55   ar
    38    32    35    1
    39    32    31    1
    40    32    33    1
    41    61    62    1
    42    34    33    2
    43    21    20    2
    44    62    63    1
    45    19    20    1
    46    19    18    1
    47    63    64    1
    48    20    22   am
    49    64    65    1
    50    22    23    1
    51    25    24    2
    52    23    24    1
    53    23    26    1
    54    16    15   ar
    55    10    11    1
    56    13    12    2
    57    11    12    1
    58    11    14    1
    59    26    27    1
    60    15    14    1
    61    15    17   ar
    62    27    28    1
    63     8     7    2
    64     7     9   am
    65     7     6    1
    66    28    29    2
    67    28    30   am
    68     5     6    1
    69     5     2    1
    70     1     2    1
    71     2     3    1
    72   103   101    1
    73   101   100    1
    74     3     4    2
    75   102   100    1
    76   100    97    1
    77    86    84    1
    78    85    84    1
    79    84    81    1
    80    97    96    1
    81    97    98    1
    82    90    89    2
    83    98    99    2
    84    81    82    1
    85    81    80    1
    86    82    83    2
    87    82    87   am
    88    89    88    1
    89    87    88    1
    90    88    91    1
    91    91    92    1
    92    92    93    1
    93    93    94    1
    94    95    94    1
