@<TRIPOS>MOLECULE
tmp/5jbiA00.pdb
 195 187 0 0 0
SMALL
GASTEIGER

@<TRIPOS>ATOM
      1  N         12.3590   16.9430   23.4200 N.3   129  LYS129     -0.1245
      2  CA        11.8740   18.3320   23.3230 C.3   129  LYS129      0.1561
      3  C         12.2070   19.1770   24.5450 C.2   129  LYS129      0.2260
      4  O         12.4370   20.3810   24.4210 O.2   129  LYS129     -0.2867
      5  CB        10.3550   18.4000   23.0320 C.3   129  LYS129      0.0271
      6  CG         9.4050   18.2320   24.2210 C.3   129  LYS129      0.0035
      7  CD         7.9680   17.9630   23.7660 C.3   129  LYS129      0.0206
      8  CE         7.7880   16.5130   23.3280 C.3   129  LYS129      0.1093
      9  NZ         6.5720   16.2740   22.5160 N.3   129  LYS129     -0.1314
     10  N         10.5840   15.0870   16.8700 N.3   155  ASP155     -0.1225
     11  CA         9.2110   15.3630   17.3600 C.3   155  ASP155      0.1805
     12  C          8.2920   15.5050   16.1140 C.2   155  ASP155      0.2598
     13  O          8.6580   16.2050   15.1520 O.2   155  ASP155     -0.2718
     14  CB         9.2300   16.6350   18.2370 C.3   155  ASP155      0.1424
     15  CG         8.0710   16.7200   19.2310 C.2   155  ASP155      0.3668
     16  OD1        7.1280   15.8990   19.1390 O.co2 155  ASP155     -0.2456
     17  OD2        8.1110   17.6250   20.1220 O.co2 155  ASP155     -0.2456
     18  N          7.1510   14.8040   16.0970 N.am  156  SER156     -0.1938
     19  CA         6.3670   14.6380   14.8620 C.3   156  SER156      0.2055
     20  C          5.9120   15.9450   14.2040 C.2   156  SER156      0.2642
     21  O          5.9160   16.0560   12.9790 O.2   156  SER156     -0.2714
     22  CB         5.1570   13.7320   15.0750 C.3   156  SER156      0.2130
     23  OG         4.2300   14.2690   16.0050 O.3   156  SER156     -0.2179
     24  N          5.5300   16.9270   15.0150 N.am  157  GLU157     -0.1976
     25  CA         5.0280   18.1870   14.4870 C.3   157  GLU157      0.1602
     26  C          6.1860   18.9540   13.8700 C.2   157  GLU157      0.2287
     27  O          6.0350   19.6050   12.8660 O.2   157  GLU157     -0.2864
     28  CB         4.3900   19.0450   15.5820 C.3   157  GLU157      0.0415
     29  CG         3.2310   18.3610   16.2980 C.3   157  GLU157      0.1163
     30  CD         3.6700   17.4190   17.4040 C.2   157  GLU157      0.3649
     31  OE1        4.8970   17.3080   17.6390 O.co2 157  GLU157     -0.2457
     32  OE2        2.7880   16.8140   18.0540 O.co2 157  GLU157     -0.2457
     33  N         -0.1820   21.3240   15.0050 N.3   192  CYS192     -0.1221
     34  CA        -1.3390   20.4490   15.1940 C.3   192  CYS192      0.1808
     35  C         -1.2680   19.6970   16.5140 C.2   192  CYS192      0.2602
     36  O         -0.1930   19.2670   16.9310 O.2   192  CYS192     -0.2717
     37  CB        -1.4660   19.4640   14.0340 C.3   192  CYS192      0.0970
     38  SG        -2.1470   20.2700   12.5800 S.3   192  CYS192     -0.0800
     39  N         -2.4250   19.5500   17.1610 N.am  193  SER193     -0.1938
     40  CA        -2.5570   18.8380   18.4330 C.3   193  SER193      0.2055
     41  C         -3.7170   17.8590   18.3440 C.2   193  SER193      0.2644
     42  O         -4.7440   18.1780   17.7500 O.2   193  SER193     -0.2714
     43  CB        -2.8330   19.8240   19.5600 C.3   193  SER193      0.2130
     44  OG        -3.0210   19.1570   20.7990 O.3   193  SER193     -0.2179
     45  N         -3.5440   16.6730   18.9230 N.am  194  SER194     -0.1935
     46  CA        -4.6300   15.7160   19.0800 C.3   194  SER194      0.2055
     47  C         -5.7290   16.3140   19.9630 C.2   194  SER194      0.2644
     48  O         -6.9010   15.9770   19.7900 O.2   194  SER194     -0.2714
     49  CB        -4.1430   14.3880   19.6900 C.3   194  SER194      0.2130
     50  OG        -4.0330   14.4500   21.1110 O.3   194  SER194     -0.2179
     51  N         -5.3330   17.1690   20.9070 N.am  195  GLY195     -0.1939
     52  CA        -6.2400   17.7400   21.8970 C.3   195  GLY195      0.2014
     53  C         -6.3400   16.9430   23.2000 C.2   195  GLY195      0.2639
     54  O         -6.8680   17.4560   24.1840 O.2   195  GLY195     -0.2714
     55  N         -5.8460   15.7080   23.2090 N.am  196  GLY196     -0.1954
     56  CA        -5.9030   14.8590   24.3920 C.3   196  GLY196      0.1869
     57  C         -7.3230   14.3970   24.6910 C.2   196  GLY196      0.2309
     58  O         -8.2370   14.6000   23.8800 O.2   196  GLY196     -0.2863
     59  N         -5.7430    8.1640   23.1700 N.3   219  LYS219     -0.1231
     60  CA        -5.8390    7.9330   21.7250 C.3   219  LYS219      0.1693
     61  C         -4.5930    7.1520   21.3080 C.2   219  LYS219      0.2592
     62  O         -4.6990    6.0580   20.7380 O.2   219  LYS219     -0.2718
     63  CB        -5.9460    9.2550   20.9500 C.3   219  LYS219      0.0285
     64  CG        -6.0320    9.0980   19.4310 C.3   219  LYS219      0.0035
     65  CD        -4.6980    9.3400   18.7280 C.3   219  LYS219      0.0206
     66  CE        -4.6490    8.6740   17.3590 C.3   219  LYS219      0.1093
     67  NZ        -5.8130    9.0320   16.4980 N.3   219  LYS219     -0.1314
     68  N         -3.4240    7.7180   21.6240 N.am  220  TRP220     -0.1976
     69  CA        -2.1330    7.0930   21.3430 C.3   220  TRP220      0.1640
     70  C         -1.5050    6.5350   22.6150 C.2   220  TRP220      0.2290
     71  O         -1.4900    7.2100   23.6530 O.2   220  TRP220     -0.2864
     72  CB        -1.1770    8.1070   20.7140 C.3   220  TRP220      0.0576
     73  CG        -0.0350    7.4640   19.9880 C.ar  220  TRP220      0.0006
     74  CD1        1.2910    7.5020   20.3280 C.ar  220  TRP220      0.0946
     75  CD2       -0.1200    6.6850   18.7900 C.ar  220  TRP220      0.0152
     76  NE1        2.0350    6.7990   19.4060 N.ar  220  TRP220     -0.2442
     77  CE2        1.1940    6.2860   18.4550 C.ar  220  TRP220      0.0810
     78  CE3       -1.1810    6.2910   17.9620 C.ar  220  TRP220      0.0012
     79  CZ2        1.4750    5.5040   17.3290 C.ar  220  TRP220      0.0191
     80  CZ3       -0.9000    5.5110   16.8410 C.ar  220  TRP220      0.0001
     81  CH2        0.4200    5.1280   16.5370 C.ar  220  TRP220      0.0015
     82  N          1.4850    5.9100   24.7550 N.3   222  MET222     -0.1245
     83  CA         2.8250    6.4840   24.9590 C.3   222  MET222      0.1570
     84  C          3.1230    6.5690   26.4610 C.2   222  MET222      0.2261
     85  O          2.2700    6.2090   27.2780 O.2   222  MET222     -0.2867
     86  CB         2.9320    7.8530   24.2600 C.3   222  MET222      0.0387
     87  CG         1.7480    8.7920   24.4680 C.3   222  MET222      0.0595
     88  SD         1.7850   10.2500   23.3950 S.3   222  MET222     -0.1393
     89  CE         0.3600   11.1450   24.0140 C.3   222  MET222      0.0692
     90  N          4.4700   12.1910   29.0540 N.3   226  ILE226     -0.1245
     91  CA         3.8870   12.8340   27.8650 C.3   226  ILE226      0.1561
     92  C          2.3590   12.6590   27.7860 C.2   226  ILE226      0.2260
     93  O          1.6710   13.5250   27.2490 O.2   226  ILE226     -0.2867
     94  CB         4.5800   12.4330   26.5290 C.3   226  ILE226      0.0252
     95  CG1        4.0880   13.3270   25.3700 C.3   226  ILE226      0.0019
     96  CG2        4.3500   10.9740   26.1690 C.3   226  ILE226      0.0019
     97  CD1        4.9390   13.2410   24.1220 C.3   226  ILE226      0.0001
     98  N         -0.1030   15.6930   27.3980 N.3   230  SER230     -0.1217
     99  CA        -1.1100   15.7310   26.3270 C.3   230  SER230      0.1889
    100  C         -2.4790   16.1170   26.8830 C.2   230  SER230      0.2288
    101  O         -3.2420   16.8660   26.2530 O.2   230  SER230     -0.2866
    102  CB        -1.1670   14.3810   25.5950 C.3   230  SER230      0.2089
    103  OG        -2.2230   14.3420   24.6480 O.3   230  SER230     -0.2183
    104  N         -2.4480   19.7360   27.7050 N.3   233  MET233     -0.1245
    105  CA        -1.9120   20.4760   26.5420 C.3   233  MET233      0.1570
    106  C         -0.5760   21.2030   26.8070 C.2   233  MET233      0.2261
    107  O         -0.1130   21.9890   25.9600 O.2   233  MET233     -0.2867
    108  CB        -2.9550   21.4040   25.8970 C.3   233  MET233      0.0387
    109  CG        -4.1920   20.6820   25.3780 C.3   233  MET233      0.0595
    110  SD        -5.1750   21.6180   24.1840 S.3   233  MET233     -0.1393
    111  CE        -4.0780   21.6180   22.7620 C.3   233  MET233      0.0692
    112  N          2.0570   19.6170   26.6200 N.3   235  ASN235     -0.1225
    113  CA         2.8660   19.0620   25.5440 C.3   235  ASN235      0.1785
    114  C          2.9610   20.0720   24.4080 C.2   235  ASN235      0.2597
    115  O          4.0610   20.4010   23.9470 O.2   235  ASN235     -0.2718
    116  CB         2.3280   17.7430   25.0130 C.3   235  ASN235      0.1169
    117  CG         3.3000   17.0710   24.0760 C.2   235  ASN235      0.2627
    118  OD1        4.4800   16.9520   24.3900 O.2   235  ASN235     -0.2716
    119  ND2        2.8200   16.6230   22.9170 N.am  235  ASN235     -0.0877
    120  N          1.8090   20.5540   23.9590 N.am  236  LYS236     -0.1980
    121  CA         1.7850   21.5570   22.8830 C.3   236  LYS236      0.1596
    122  C          2.4650   22.8680   23.2810 C.2   236  LYS236      0.2287
    123  O          3.1500   23.4970   22.4600 O.2   236  LYS236     -0.2864
    124  CB         0.3520   21.8070   22.3820 C.3   236  LYS236      0.0298
    125  CG         0.2290   22.0070   20.8800 C.3   236  LYS236      0.0038
    126  CD         0.8820   20.9310   20.0090 C.3   236  LYS236      0.0206
    127  CE         0.6570   19.5070   20.5250 C.3   236  LYS236      0.1093
    128  NZ         1.0640   18.4990   19.5200 N.3   236  LYS236     -0.1314
    129  N          5.9880   22.3900   22.8670 N.3   239  GLU239     -0.1245
    130  CA         6.2340   22.3390   21.4300 C.3   239  GLU239      0.1567
    131  C          6.1970   23.7130   20.7310 C.2   239  GLU239      0.2260
    132  O          6.8880   23.9040   19.7400 O.2   239  GLU239     -0.2867
    133  CB         5.2830   21.3450   20.7730 C.3   239  GLU239      0.0388
    134  CG         5.6300   19.9120   21.1590 C.3   239  GLU239      0.1160
    135  CD         4.6940   18.8690   20.5870 C.2   239  GLU239      0.3649
    136  OE1        3.7060   19.2540   19.9160 O.co2 239  GLU239     -0.2457
    137  OE2        4.9520   17.6530   20.8250 O.co2 239  GLU239     -0.2457
    138  N         -5.4400   13.3540   13.7740 N.3   262  CYS262     -0.1235
    139  CA        -3.9810   13.1650   13.7850 C.3   262  CYS262      0.1677
    140  C         -3.4420   12.6240   12.4520 C.2   262  CYS262      0.2270
    141  O         -2.5830   11.7630   12.4400 O.2   262  CYS262     -0.2867
    142  CB        -3.5290   12.2720   14.9560 C.3   262  CYS262      0.0956
    143  SG        -4.0190   12.8430   16.6050 S.3   262  CYS262     -0.0801
    144  N         -0.0350   16.5920   10.3510 N.3   265  HIS265     -0.1241
    145  CA         0.8440   16.6590   11.5270 C.3   265  HIS265      0.1621
    146  C          1.3590   18.0460   11.8670 C.2   265  HIS265      0.2264
    147  O          1.8480   18.2490   12.9680 O.2   265  HIS265     -0.2867
    148  CB         1.9690   15.6450   11.3960 C.3   265  HIS265      0.0745
    149  CG         1.4750   14.2390   11.3110 C.ar  265  HIS265      0.0817
    150  ND1        0.5970   13.7110   12.2320 N.ar  265  HIS265     -0.2268
    151  CD2        1.6830   13.2690   10.3920 C.ar  265  HIS265      0.1154
    152  CE1        0.2970   12.4710   11.8880 C.ar  265  HIS265      0.1986
    153  NE2        0.9540   12.1740   10.7840 N.ar  265  HIS265     -0.2212
    154  N         -0.8340    8.4990    8.5350 N.3   281  TYR281     -0.1227
    155  CA        -1.3380    7.8740    9.7650 C.3   281  TYR281      0.1725
    156  C         -0.3890    8.1680   10.9400 C.2   281  TYR281      0.2475
    157  O          0.8230    8.3070   10.7390 O.2   281  TYR281     -0.2730
    158  CB        -1.4500    6.3590    9.6020 C.3   281  TYR281      0.0547
    159  CG        -2.4200    5.9510    8.5280 C.ar  281  TYR281     -0.0200
    160  CD1       -3.7610    6.2910    8.6200 C.ar  281  TYR281     -0.0009
    161  CD2       -1.9890    5.2390    7.4070 C.ar  281  TYR281     -0.0009
    162  CE1       -4.6600    5.9250    7.6220 C.ar  281  TYR281      0.0417
    163  CE2       -2.8800    4.8580    6.4160 C.ar  281  TYR281      0.0417
    164  CZ        -4.2090    5.1980    6.5280 C.ar  281  TYR281      0.1957
    165  OH        -5.0700    4.8200    5.5310 O.3   281  TYR281     -0.2866
    166  N         -0.9250    8.2610   12.1680 N.am  282  PRO282     -0.2492
    167  CA        -0.0110    8.4190   13.3090 C.3   282  PRO282      0.1619
    168  C          0.9780    7.2340   13.4050 C.2   282  PRO282      0.2605
    169  O          0.5580    6.0750   13.4810 O.2   282  PRO282     -0.2715
    170  CB        -0.9490    8.5290   14.5290 C.3   282  PRO282      0.0570
    171  CG        -2.3320    8.3100   14.0440 C.2   282  PRO282     -0.0077
    172  CD        -2.3470    8.2940   12.5490 C.2   282  PRO282      0.0634
    173  N          2.2750    7.5250   13.3070 N.am  283  ASP283     -0.1958
    174  CA         3.3150    6.4960   13.2680 C.3   283  ASP283      0.1840
    175  C          4.6520    7.2070   13.3790 C.2   283  ASP283      0.2621
    176  O          5.0490    7.9090   12.4460 O.2   283  ASP283     -0.2715
    177  CB         3.2530    5.7260   11.9310 C.3   283  ASP283      0.1450
    178  CG         4.2240    4.5540   11.8530 C.2   283  ASP283      0.3671
    179  OD1        5.2390    4.5090   12.5760 O.co2 283  ASP283     -0.2456
    180  OD2        3.9640    3.6490   11.0330 O.co2 283  ASP283     -0.2456
    181  N          5.3650    7.0060   14.4820 N.am  284  MET284     -0.1977
    182  CA         6.6430    7.7050   14.6850 C.3   284  MET284      0.1605
    183  C          7.7660    7.2530   13.7350 C.2   284  MET284      0.2287
    184  O          8.8090    7.9190   13.6630 O.2   284  MET284     -0.2864
    185  CB         7.1010    7.6460   16.1590 C.3   284  MET284      0.0413
    186  CG         6.3860    8.6270   17.0780 C.3   284  MET284      0.0598
    187  SD         6.5080   10.3720   16.5700 S.3   284  MET284     -0.1393
    188  CE         8.2670   10.6920   16.7030 C.3   284  MET284      0.0692
    189  N          8.7010   10.3280   10.9850 N.3   287  PRO287     -0.2116
    190  CA         9.6140   11.3680   11.4940 C.3   287  PRO287      0.1372
    191  C         11.0270   10.8800   11.7780 C.2   287  PRO287      0.2244
    192  O         12.0000   11.5830   11.4540 O.2   287  PRO287     -0.2868
    193  CB         8.9610   11.8390   12.7940 C.3   287  PRO287      0.0268
    194  CG         7.5630   11.3910   12.7430 C.3   287  PRO287      0.0207
    195  CD         7.4100   10.3240   11.6940 C.3   287  PRO287      0.0892
@<TRIPOS>BOND
     1   165   164    1
     2   163   164   ar
     3   163   161   ar
     4   164   162   ar
     5   161   159   ar
     6   162   160   ar
     7   159   160   ar
     8   159   158    1
     9   154   155    1
    10   158   155    1
    11   155   156    1
    12   144   145    1
    13   151   153   ar
    14   151   149   ar
    15   157   156    2
    16   153   152   ar
    17   156   166   am
    18   189   190    1
    19   189   195    1
    20   180   178   ar
    21   149   148    1
    22   149   150   ar
    23   148   145    1
    24   192   191    2
    25   190   191    1
    26   190   193    1
    27   145   146    1
    28   195   194    1
    29   178   177    1
    30   178   179   ar
    31   146   147    2
    32   152   150   ar
    33   177   174    1
    34   166   172    1
    35   166   167    1
    36   141   140    2
    37   176   175    2
    38   140   139    1
    39   172   171    2
    40    38    37    1
    41   194   193    1
    42    27    26    2
    43    21    20    2
    44   174   173    1
    45   174   175    1
    46   173   168   am
    47   167   168    1
    48   167   170    1
    49   175   181   am
    50   168   169    2
    51   184   183    2
    52   183   182    1
    53   138   139    1
    54   139   142    1
    55    26    25    1
    56    37    34    1
    57   171   170    1
    58    20    19    1
    59    20    24   am
    60   181   182    1
    61    25    24    1
    62    25    28    1
    63   182   185    1
    64    19    22    1
    65    19    18    1
    66   142   143    1
    67    33    34    1
    68    22    23    1
    69    13    12    2
    70    34    35    1
    71    28    29    1
    72    18    12   am
    73    12    11    1
    74   185   186    1
    75    29    30    1
    76    67    66    1
    77    35    36    2
    78    35    39   am
    79    81    80   ar
    80    81    79   ar
    81   187   188    1
    82   187   186    1
    83    80    78   ar
    84    10    11    1
    85    39    40    1
    86    79    77   ar
    87    66    65    1
    88    11    14    1
    89    30    31   ar
    90    30    32   ar
    91    42    41    2
    92    78    75   ar
    93    14    15    1
    94    41    40    1
    95    41    45   am
    96    40    43    1
    97    77    75   ar
    98    77    76   ar
    99    65    64    1
   100    75    73   ar
   101    45    46    1
   102    46    49    1
   103    46    47    1
   104    16    15   ar
   105    15    17   ar
   106    76    74   ar
   107    64    63    1
   108   128   127    1
   109    43    44    1
   110    49    50    1
   111   132   131    2
   112    48    47    2
   113   136   135   ar
   114    47    51   am
   115    73    74   ar
   116    73    72    1
   117   126   127    1
   118   126   125    1
   119   135   137   ar
   120   135   134    1
   121    72    69    1
   122   131   130    1
   123    62    61    2
   124   133   134    1
   125   133   130    1
   126   125   124    1
   127    51    52    1
   128    63    60    1
   129    61    68   am
   130    61    60    1
   131    69    68    1
   132    69    70    1
   133   130   129    1
   134    60    59    1
   135    52    53    1
   136   124   121    1
   137   123   122    2
   138     9     8    1
   139    70    71    2
   140   111   110    1
   141   121   122    1
   142   121   120    1
   143   119   117   am
   144     5     2    1
   145     5     6    1
   146    53    55   am
   147    53    54    2
   148    55    56    1
   149     2     1    1
   150     2     3    1
   151     8     7    1
   152    88    89    1
   153    88    87    1
   154     7     6    1
   155    58    57    2
   156   115   114    2
   157   120   114   am
   158   117   118    2
   159   117   116    1
   160    97    95    1
   161   110   109    1
   162    86    87    1
   163    86    83    1
   164    56    57    1
   165   114   113    1
   166     4     3    2
   167   103   102    1
   168    82    83    1
   169    83    84    1
   170   116   113    1
   171    95    94    1
   172   109   108    1
   173   113   112    1
   174   102    99    1
   175   108   105    1
   176   107   106    2
   177    96    94    1
   178   101   100    2
   179    99   100    1
   180    99    98    1
   181    84    85    2
   182    94    91    1
   183   105   106    1
   184   105   104    1
   185    93    92    2
   186    92    91    1
   187    91    90    1
