@<TRIPOS>MOLECULE
tmp/5jbqA00.pdb
 175 168 0 0 0
SMALL
GASTEIGER

@<TRIPOS>ATOM
      1  N        -38.4100   24.8750    9.0040 N.3   214  GLU214     -0.1231
      2  CA       -38.6380   25.9310    8.0150 C.3   214  GLU214      0.1699
      3  C        -39.3940   27.0990    8.6430 C.2   214  GLU214      0.2592
      4  O        -38.7600   28.0780    9.0290 O.2   214  GLU214     -0.2718
      5  CB       -39.3390   25.3680    6.7670 C.3   214  GLU214      0.0402
      6  CG       -38.3220   24.6590    5.8980 C.3   214  GLU214      0.1161
      7  CD       -38.8660   24.1110    4.6060 C.2   214  GLU214      0.3649
      8  OE1      -39.2770   24.9160    3.7430 O.co2 214  GLU214     -0.2457
      9  OE2      -38.9440   22.8690    4.4850 O.co2 214  GLU214     -0.2457
     10  N        -40.7200   26.9770    8.8030 N.am  215  ASP215     -0.1974
     11  CA       -41.5490   28.0280    9.4250 C.3   215  ASP215      0.1709
     12  C        -41.7760   27.7260   10.8930 C.2   215  ASP215      0.2293
     13  O        -41.7430   26.5610   11.3220 O.2   215  ASP215     -0.2864
     14  CB       -42.9260   28.1460    8.7300 C.3   215  ASP215      0.1436
     15  CG       -42.8280   28.2500    7.2380 C.2   215  ASP215      0.3671
     16  OD1      -42.3830   29.3050    6.7510 O.co2 215  ASP215     -0.2456
     17  OD2      -43.1530   27.2500    6.5510 O.co2 215  ASP215     -0.2456
     18  N        -44.5070   29.2010   14.0420 N.3   217  PHE217     -0.1241
     19  CA       -45.6540   30.0220   14.4270 C.3   217  PHE217      0.1605
     20  C        -46.2860   29.4470   15.6510 C.2   217  PHE217      0.2264
     21  O        -46.1300   28.2560   15.9210 O.2   217  PHE217     -0.2867
     22  CB       -46.6980   30.1710   13.2890 C.3   217  PHE217      0.0534
     23  CG       -47.3450   28.9000   12.7980 C.ar  217  PHE217     -0.0203
     24  CD1      -46.7780   28.1680   11.7630 C.ar  217  PHE217     -0.0042
     25  CD2      -48.5370   28.4480   13.3520 C.ar  217  PHE217     -0.0042
     26  CE1      -47.3880   26.9930   11.2970 C.ar  217  PHE217     -0.0003
     27  CE2      -49.1460   27.2700   12.8880 C.ar  217  PHE217     -0.0003
     28  CZ       -48.5810   26.5680   11.8450 C.ar  217  PHE217     -0.0000
     29  N        -49.7820   28.7630   18.0600 N.3   219  ILE219     -0.1245
     30  CA       -51.2180   28.5050   18.1030 C.3   219  ILE219      0.1561
     31  C        -51.5500   28.9440   19.5410 C.2   219  ILE219      0.2260
     32  O        -51.0840   28.3010   20.4910 O.2   219  ILE219     -0.2867
     33  CB       -51.6070   27.0300   17.7940 C.3   219  ILE219      0.0252
     34  CG1      -51.2270   26.6460   16.3250 C.3   219  ILE219      0.0019
     35  CG2      -53.1170   26.7910   18.0850 C.3   219  ILE219      0.0019
     36  CD1      -51.6500   25.2220   15.8560 C.3   219  ILE219      0.0001
     37  N        -51.7770   26.8640   22.8780 N.3   222  ARG222     -0.1245
     38  CA       -51.5100   25.4550   22.5360 C.3   222  ARG222      0.1563
     39  C        -50.0190   25.1750   22.3130 C.2   222  ARG222      0.2260
     40  O        -49.5880   24.0310   22.4520 O.2   222  ARG222     -0.2867
     41  CB       -52.3640   24.9500   21.3540 C.3   222  ARG222      0.0307
     42  CG       -53.8760   24.9790   21.5770 C.3   222  ARG222      0.0489
     43  CD       -54.3830   23.8390   22.4480 C.3   222  ARG222      0.2205
     44  NE       -55.8410   23.8640   22.5790 N.pl3 222  ARG222     -0.0865
     45  CZ       -56.5050   24.4910   23.5480 C.cat 222  ARG222      0.5346
     46  NH1      -55.8480   25.1560   24.4920 N.pl3 222  ARG222      0.1354
     47  NH2      -57.8310   24.4570   23.5800 N.pl3 222  ARG222      0.1354
     48  N        -45.6660   25.6450   16.6440 N.3   225  VAL225     -0.1245
     49  CA       -45.5360   24.6500   15.5890 C.3   225  VAL225      0.1561
     50  C        -44.3620   25.0440   14.6760 C.2   225  VAL225      0.2260
     51  O        -44.0850   26.2280   14.4320 O.2   225  VAL225     -0.2867
     52  CB       -46.8310   24.2090   14.8150 C.3   225  VAL225      0.0252
     53  CG1      -48.0740   24.9740   15.1950 C.3   225  VAL225      0.0019
     54  CG2      -46.6530   24.0630   13.3010 C.3   225  VAL225      0.0019
     55  N        -42.6360   23.7840   10.9160 N.3   227  THR227     -0.1203
     56  CA       -42.9840   23.0640    9.6970 C.3   227  THR227      0.1994
     57  C        -41.6920   22.5750    9.0730 C.2   227  THR227      0.2618
     58  O        -40.6240   23.1330    9.3290 O.2   227  THR227     -0.2717
     59  CB       -43.7460   23.9720    8.7040 C.3   227  THR227      0.1784
     60  OG1      -42.8320   24.9500    8.2110 O.3   227  THR227     -0.2211
     61  CG2      -44.9890   24.6330    9.3260 C.3   227  THR227      0.0376
     62  N        -41.8160   21.5640    8.2320 N.am  228  GLY228     -0.1942
     63  CA       -40.6950   21.0130    7.4950 C.3   228  GLY228      0.2014
     64  C        -41.0720   19.7110    6.8420 C.2   228  GLY228      0.2638
     65  O        -42.1570   19.1830    7.0810 O.2   228  GLY228     -0.2714
     66  N        -40.1700   19.1920    6.0160 N.am  229  ARG229     -0.1977
     67  CA       -40.3580   17.8950    5.3900 C.3   229  ARG229      0.1597
     68  C        -39.5620   16.9390    6.2490 C.2   229  ARG229      0.2287
     69  O        -38.3620   17.1760    6.4470 O.2   229  ARG229     -0.2864
     70  CB       -39.8080   17.8830    3.9520 C.3   229  ARG229      0.0334
     71  CG       -40.0400   16.5450    3.2330 C.3   229  ARG229      0.0492
     72  CD       -39.5680   16.6060    1.7890 C.3   229  ARG229      0.2205
     73  NE       -40.3820   17.5460    1.0100 N.pl3 229  ARG229     -0.0865
     74  CZ       -40.0480   18.0260   -0.1880 C.cat 229  ARG229      0.5346
     75  NH1      -38.9030   17.6690   -0.7600 N.pl3 229  ARG229      0.1354
     76  NH2      -40.8510   18.8760   -0.8160 N.pl3 229  ARG229      0.1354
     77  N        -46.5740   17.2570   20.6470 N.3   255  THR255     -0.1203
     78  CA       -47.9290   17.1990   21.2080 C.3   255  THR255      0.1994
     79  C        -48.9790   17.1760   20.1180 C.2   255  THR255      0.2618
     80  O        -50.1540   17.0540   20.4220 O.2   255  THR255     -0.2717
     81  CB       -48.1480   18.2940   22.2530 C.3   255  THR255      0.1784
     82  OG1      -47.7810   19.5580   21.7060 O.3   255  THR255     -0.2211
     83  CG2      -47.3400   18.0420   23.5260 C.3   255  THR255      0.0376
     84  N        -48.5410   17.2440   18.8590 N.am  256  GLY256     -0.1942
     85  CA       -49.4120   17.2190   17.6890 C.3   256  GLY256      0.2014
     86  C        -48.6170   17.2210   16.4040 C.2   256  GLY256      0.2639
     87  O        -47.4690   17.6660   16.3850 O.2   256  GLY256     -0.2714
     88  N        -49.2280   16.7000   15.3360 N.am  257  VAL257     -0.1963
     89  CA       -48.7010   16.5880   13.9730 C.3   257  VAL257      0.1727
     90  C        -49.8920   16.8860   13.0580 C.2   257  VAL257      0.2616
     91  O        -50.9880   16.3910   13.3100 O.2   257  VAL257     -0.2715
     92  CB       -48.0870   15.1730   13.6430 C.3   257  VAL257      0.0290
     93  CG1      -47.4740   15.1350   12.2440 C.3   257  VAL257      0.0023
     94  CG2      -47.0440   14.7380   14.6720 C.3   257  VAL257      0.0023
     95  N        -49.6780   17.7040   12.0110 N.am  258  GLU258     -0.1963
     96  CA       -50.7210   18.0360   11.0280 C.3   258  GLU258      0.1733
     97  C        -50.1090   18.0200    9.6320 C.2   258  GLU258      0.2616
     98  O        -48.9570   18.3950    9.4670 O.2   258  GLU258     -0.2715
     99  CB       -51.3380   19.4090   11.3320 C.3   258  GLU258      0.0429
    100  CG       -52.8370   19.5190   11.0890 C.3   258  GLU258      0.1163
    101  CD       -53.2930   20.9490   10.8750 C.2   258  GLU258      0.3649
    102  OE1      -52.7880   21.5840    9.9260 O.co2 258  GLU258     -0.2457
    103  OE2      -54.1220   21.4470   11.6660 O.co2 258  GLU258     -0.2457
    104  N        -50.8530   17.5090    8.6470 N.am  259  MET259     -0.1963
    105  CA       -50.4590   17.4880    7.2350 C.3   259  MET259      0.1736
    106  C        -51.7270   17.6880    6.3910 C.2   259  MET259      0.2616
    107  O        -52.6850   16.9250    6.5260 O.2   259  MET259     -0.2715
    108  CB       -49.7540   16.1800    6.8500 C.3   259  MET259      0.0427
    109  CG       -49.2570   16.1790    5.4150 C.3   259  MET259      0.0599
    110  SD       -48.2300   14.7510    5.0210 S.3   259  MET259     -0.1393
    111  CE       -49.4530   13.4700    4.8550 C.3   259  MET259      0.0692
    112  N        -51.7370   18.7250    5.5500 N.am  260  PHE260     -0.1960
    113  CA       -52.8740   19.0670    4.6620 C.3   260  PHE260      0.1771
    114  C        -54.1390   19.3830    5.4520 C.2   260  PHE260      0.2619
    115  O        -55.2420   19.0810    5.0020 O.2   260  PHE260     -0.2715
    116  CB       -53.1480   17.9530    3.6130 C.3   260  PHE260      0.0574
    117  CG       -51.9500   17.3390    2.9300 C.ar  260  PHE260     -0.0200
    118  CD1      -50.8400   18.1100    2.6020 C.ar  260  PHE260     -0.0042
    119  CD2      -51.9460   15.9930    2.5820 C.ar  260  PHE260     -0.0042
    120  CE1      -49.7350   17.5380    1.9850 C.ar  260  PHE260     -0.0003
    121  CE2      -50.8480   15.4300    1.9350 C.ar  260  PHE260     -0.0003
    122  CZ       -49.7550   16.2080    1.6320 C.ar  260  PHE260     -0.0000
    123  N        -53.9620   19.9570    6.6530 N.am  261  ARG261     -0.1977
    124  CA       -54.9800   20.3530    7.6310 C.3   261  ARG261      0.1597
    125  C        -55.6910   19.1550    8.3030 C.2   261  ARG261      0.2287
    126  O        -56.7640   19.3200    8.8810 O.2   261  ARG261     -0.2864
    127  CB       -55.9900   21.3810    7.0600 C.3   261  ARG261      0.0334
    128  CG       -55.3670   22.6260    6.3870 C.3   261  ARG261      0.0492
    129  CD       -54.2620   23.3280    7.1780 C.3   261  ARG261      0.2205
    130  NE       -54.4850   23.2960    8.6270 N.pl3 261  ARG261     -0.0865
    131  CZ       -55.2050   24.1830    9.2910 C.cat 261  ARG261      0.5346
    132  NH1      -55.7670   25.2020    8.6550 N.pl3 261  ARG261      0.1354
    133  NH2      -55.3650   24.0640   10.6010 N.pl3 261  ARG261      0.1354
    134  N        -55.1550   16.2640   11.2940 N.3   263  LEU263     -0.1245
    135  CA       -54.3580   15.9420   12.4730 C.3   263  LEU263      0.1561
    136  C        -54.0140   14.4520   12.4980 C.2   263  LEU263      0.2260
    137  O        -54.8960   13.6100   12.3220 O.2   263  LEU263     -0.2867
    138  CB       -55.0330   16.4210   13.7590 C.3   263  LEU263      0.0270
    139  CG       -54.9640   17.9280   13.9880 C.3   263  LEU263      0.0019
    140  CD1      -56.1170   18.3880   14.8560 C.3   263  LEU263      0.0001
    141  CD2      -53.6210   18.3400   14.5810 C.3   263  LEU263      0.0001
    142  N        -44.4960   16.4250    4.3080 N.3   272  ASN272     -0.1225
    143  CA       -44.4760   17.8620    4.6080 C.3   272  ASN272      0.1785
    144  C        -45.4570   18.0920    5.7790 C.2   272  ASN272      0.2597
    145  O        -46.6670   18.2100    5.5780 O.2   272  ASN272     -0.2718
    146  CB       -44.8720   18.6800    3.3600 C.3   272  ASN272      0.1169
    147  CG       -43.9880   18.3870    2.1620 C.2   272  ASN272      0.2627
    148  OD1      -42.8710   18.8830    2.0560 O.2   272  ASN272     -0.2716
    149  ND2      -44.4490   17.5330    1.2510 N.am  272  ASN272     -0.0877
    150  N        -44.9260   18.1240    7.0050 N.am  273  VAL273     -0.1966
    151  CA       -45.7250   18.2330    8.2290 C.3   273  VAL273      0.1727
    152  C        -45.4690   19.5250    9.0200 C.2   273  VAL273      0.2617
    153  O        -44.5100   20.2520    8.7670 O.2   273  VAL273     -0.2715
    154  CB       -45.5220   17.0000    9.1740 C.3   273  VAL273      0.0290
    155  CG1      -45.7830   15.6680    8.4670 C.3   273  VAL273      0.0023
    156  CG2      -44.1340   17.0010    9.8040 C.3   273  VAL273      0.0023
    157  N        -46.3220   19.7140   10.0200 N.am  274  GLY274     -0.1940
    158  CA       -46.2350   20.7190   11.0600 C.3   274  GLY274      0.2014
    159  C        -46.2060   19.9150   12.3430 C.2   274  GLY274      0.2639
    160  O        -46.8910   18.9020   12.4420 O.2   274  GLY274     -0.2714
    161  N        -45.3480   20.2900   13.2760 N.am  275  VAL275     -0.1963
    162  CA       -45.1710   19.5960   14.5480 C.3   275  VAL275      0.1727
    163  C        -45.3700   20.6120   15.6700 C.2   275  VAL275      0.2616
    164  O        -44.6530   21.6090   15.7210 O.2   275  VAL275     -0.2715
    165  CB       -43.7690   18.9010   14.6790 C.3   275  VAL275      0.0290
    166  CG1      -43.6620   18.1210   15.9990 C.3   275  VAL275      0.0023
    167  CG2      -43.4760   17.9760   13.5040 C.3   275  VAL275      0.0023
    168  N        -46.3350   20.3410   16.5510 N.am  276  LEU276     -0.1977
    169  CA       -46.6760   21.1530   17.7240 C.3   276  LEU276      0.1596
    170  C        -45.7770   20.7150   18.8810 C.2   276  LEU276      0.2287
    171  O        -45.6930   19.5190   19.2030 O.2   276  LEU276     -0.2864
    172  CB       -48.1580   20.9240   18.1000 C.3   276  LEU276      0.0297
    173  CG       -49.0000   22.0760   18.6490 C.3   276  LEU276      0.0022
    174  CD1      -49.9590   21.5870   19.7280 C.3   276  LEU276      0.0001
    175  CD2      -48.1830   23.2940   19.0900 C.3   276  LEU276      0.0001
@<TRIPOS>BOND
     1    76    74    1
     2    75    74    1
     3    74    73    2
     4    73    72    1
     5   149   147   am
     6   122   121   ar
     7   122   120   ar
     8    72    71    1
     9   121   119   ar
    10   120   118   ar
    11   148   147    2
    12   147   146    1
    13   119   117   ar
    14   118   117   ar
    15   117   116    1
    16    71    70    1
    17   146   143    1
    18   116   113    1
    19     8     7   ar
    20    70    67    1
    21   142   143    1
    22     9     7   ar
    23     7     6    1
    24   143   144    1
    25   113   114    1
    26   113   112    1
    27   111   110    1
    28   115   114    2
    29   110   109    1
    30    67    66    1
    31    67    68    1
    32   109   108    1
    33   114   123   am
    34   112   106   am
    35   145   144    2
    36   144   150   am
    37     6     5    1
    38    66    64   am
    39    68    69    2
    40   128   127    1
    41   128   129    1
    42   106   107    2
    43   106   105    1
    44    17    15   ar
    45   123   124    1
    46    16    15   ar
    47     5     2    1
    48    64    65    2
    49    64    63    1
    50   108   105    1
    51   150   151    1
    52   127   124    1
    53   129   130    1
    54   105   104    1
    55    15    14    1
    56    63    62    1
    57   124   125    1
    58     2     3    1
    59     2     1    1
    60    60    59    1
    61   151   152    1
    62   151   154    1
    63    62    57   am
    64   125   126    2
    65   155   154    1
    66   130   131    2
    67     3    10   am
    68     3     4    2
    69   104    97   am
    70   132   131    1
    71    59    61    1
    72    59    56    1
    73    14    11    1
    74   153   152    2
    75    10    11    1
    76   152   157   am
    77    57    58    2
    78    57    56    1
    79   154   156    1
    80   131   133    1
    81    11    12    1
    82    98    97    2
    83    97    96    1
    84    56    55    1
    85   102   101   ar
    86   157   158    1
    87   101   100    1
    88   101   103   ar
    89    12    13    2
    90    96    99    1
    91    96    95    1
    92   158   159    1
    93   100    99    1
    94   134   135    1
    95    26    24   ar
    96    26    28   ar
    97    24    23   ar
    98    28    27   ar
    99    95    90   am
   100    93    92    1
   101   137   136    2
   102   159   160    2
   103   159   161   am
   104   135   136    1
   105   135   138    1
   106    23    22    1
   107    23    25   ar
   108    27    25   ar
   109    90    91    2
   110    90    89    1
   111   161   162    1
   112    22    19    1
   113    54    52    1
   114   167   165    1
   115    92    89    1
   116    92    94    1
   117   138   139    1
   118    89    88    1
   119   139   141    1
   120   139   140    1
   121    18    19    1
   122    19    20    1
   123    51    50    2
   124   162   165    1
   125   162   163    1
   126    50    49    1
   127   165   166    1
   128    52    53    1
   129    52    49    1
   130    88    86   am
   131    49    48    1
   132    20    21    2
   133   163   164    2
   134   163   168   am
   135    36    34    1
   136    34    33    1
   137    87    86    2
   138    86    85    1
   139   168   169    1
   140    85    84    1
   141   169   172    1
   142   169   170    1
   143    33    35    1
   144    33    30    1
   145    29    30    1
   146   172   173    1
   147    30    31    1
   148   173   175    1
   149   173   174    1
   150    84    79   am
   151   170   171    2
   152    31    32    2
   153    79    80    2
   154    79    78    1
   155    77    78    1
   156    78    81    1
   157    41    42    1
   158    41    38    1
   159    42    43    1
   160    82    81    1
   161    81    83    1
   162    39    40    2
   163    39    38    1
   164    43    44    1
   165    38    37    1
   166    44    45    2
   167    45    47    1
   168    45    46    1
