@<TRIPOS>MOLECULE
tmp/5jbsC03.pdb
 92 83 0 0 0
SMALL
GASTEIGER

@<TRIPOS>ATOM
      1  N         16.9300   22.4440   18.2200 N.3    13  GLN13      -0.1245
      2  CA        18.2150   21.7510   18.2560 C.3    13  GLN13       0.1566
      3  C         18.1570   20.3590   17.6490 C.2    13  GLN13       0.2260
      4  O         19.0950   19.9220   16.9720 O.2    13  GLN13      -0.2867
      5  CB        18.7960   21.6250   19.6620 C.3    13  GLN13       0.0367
      6  CG        19.0080   22.9640   20.3780 C.3    13  GLN13       0.0905
      7  CD        19.9850   23.8510   19.6200 C.2    13  GLN13       0.2608
      8  OE1       21.1460   23.5340   19.5170 O.2    13  GLN13      -0.2717
      9  NE2       19.5020   24.9470   19.0960 N.am   13  GLN13      -0.0878
     10  N         17.9160   20.6300   13.8430 N.3    16  ILE16      -0.1231
     11  CA        19.2250   21.0730   13.3600 C.3    16  ILE16       0.1692
     12  C         20.1320   19.8680   13.3720 C.2    16  ILE16       0.2591
     13  O         20.8090   19.6120   12.4030 O.2    16  ILE16      -0.2718
     14  CB        19.8070   22.2720   14.1360 C.3    16  ILE16       0.0266
     15  CG1       18.9600   23.5180   13.8300 C.3    16  ILE16       0.0019
     16  CG2       21.3130   22.5260   13.7850 C.3    16  ILE16       0.0020
     17  CD1       19.1350   24.6440   14.8160 C.3    16  ILE16       0.0001
     18  N         20.1380   19.0970   14.4510 N.am   17  ALA17      -0.1980
     19  CA        21.0650   17.9720   14.4890 C.3    17  ALA17       0.1597
     20  C         20.7540   16.8560   13.5410 C.2    17  ALA17       0.2287
     21  O         21.6830   16.2720   12.9590 O.2    17  ALA17      -0.2864
     22  CB        21.2490   17.4570   15.8850 C.3    17  ALA17       0.0319
     23  N         20.7760   18.4860    9.3040 N.3    20  THR20      -0.1218
     24  CA        22.0040   19.0080    8.7720 C.3    20  THR20       0.1862
     25  C         22.8430   17.8970    8.1170 C.2    20  THR20       0.2287
     26  O         22.8780   16.7680    8.5970 O.2    20  THR20      -0.2866
     27  CB        22.8290   19.6300    9.9070 C.3    20  THR20       0.1770
     28  OG1       22.1200   20.7590   10.4110 O.3    20  THR20      -0.2211
     29  CG2       24.2020   20.0930    9.4370 C.3    20  THR20       0.0375
     30  N         26.7800   17.8420    7.1910 N.3    22  ASP22      -0.1239
     31  CA        28.0970   18.4860    7.1620 C.3    22  ASP22       0.1674
     32  C         29.1480   17.4340    7.5360 C.2    22  ASP22       0.2266
     33  O         29.1890   16.9490    8.6850 O.2    22  ASP22      -0.2867
     34  CB        28.1250   19.7260    8.0820 C.3    22  ASP22       0.1410
     35  CG        29.5080   20.4700    8.0990 C.2    22  ASP22       0.3668
     36  OD1       30.5940   19.8950    7.8350 O.co2  22  ASP22      -0.2456
     37  OD2       29.4900   21.6670    8.4160 O.co2  22  ASP22      -0.2456
     38  N         31.0920   17.5820   10.7270 N.3    25  THR25      -0.1218
     39  CA        30.3150   17.5050   11.9600 C.3    25  THR25       0.1862
     40  C         29.3220   16.3320   12.0430 C.2    25  THR25       0.2287
     41  O         28.6320   16.1780   13.0440 O.2    25  THR25      -0.2866
     42  CB        29.6230   18.8480   12.1540 C.3    25  THR25       0.1770
     43  OG1       29.3830   19.0300   13.5400 O.3    25  THR25      -0.2211
     44  CG2       28.3920   18.8860   11.3960 C.3    25  THR25       0.0375
     45  N         29.4060   14.0150   15.2190 N.3    28  LYS28      -0.1231
     46  CA        28.8870   14.6810   16.4150 C.3    28  LYS28       0.1693
     47  C         27.3510   14.8760   16.3540 C.2    28  LYS28       0.2592
     48  O         26.6540   14.7870   17.3770 O.2    28  LYS28      -0.2718
     49  CB        29.5470   16.0310   16.6780 C.3    28  LYS28       0.0285
     50  CG        29.3000   16.4310   18.1390 C.3    28  LYS28       0.0035
     51  CD        29.3670   17.9030   18.4560 C.3    28  LYS28       0.0206
     52  CE        28.6080   18.2250   19.7470 C.3    28  LYS28       0.1093
     53  NZ        28.9410   17.2880   20.8460 N.3    28  LYS28      -0.1314
     54  N         26.8710   15.1670   15.1580 N.am   29  ASP29      -0.1974
     55  CA        25.4810   15.3960   14.8920 C.3    29  ASP29       0.1709
     56  C         24.6940   14.1190   15.0880 C.2    29  ASP29       0.2293
     57  O         23.6500   14.1520   15.7380 O.2    29  ASP29      -0.2864
     58  CB        25.2510   15.9330   13.4740 C.3    29  ASP29       0.1436
     59  CG        25.7010   17.3810   13.3430 C.2    29  ASP29       0.3671
     60  OD1       26.1580   17.9660   14.3550 O.co2  29  ASP29      -0.2456
     61  OD2       25.5900   17.9500   12.2370 O.co2  29  ASP29      -0.2456
     62  N         24.5620   13.4230   18.7950 N.3    32  THR32      -0.1218
     63  CA        23.5770   14.3480   19.4060 C.3    32  THR32       0.1862
     64  C         22.1520   13.8350   19.1940 C.2    32  THR32       0.2287
     65  O         21.4030   13.8050   20.0990 O.2    32  THR32      -0.2866
     66  CB        23.6960   15.7890   18.8240 C.3    32  THR32       0.1770
     67  OG1       24.9990   16.2930   19.0950 O.3    32  THR32      -0.2211
     68  CG2       22.6920   16.7470   19.4520 C.3    32  THR32       0.0375
     69  N         26.9450   20.2070    1.3110 N.3    52  ARG52      -0.1245
     70  CA        26.6480   20.6530    2.6710 C.3    52  ARG52       0.1563
     71  C         25.1690   21.1010    2.7430 C.2    52  ARG52       0.2260
     72  O         24.7770   21.9680    1.9890 O.2    52  ARG52      -0.2867
     73  CB        27.6060   21.7820    3.0640 C.3    52  ARG52       0.0307
     74  CG        27.0520   22.7020    4.1240 C.3    52  ARG52       0.0489
     75  CD        28.0940   23.2460    5.0890 C.3    52  ARG52       0.2205
     76  NE        27.4930   23.3400    6.4190 N.pl3  52  ARG52      -0.0865
     77  CZ        27.9030   24.1250    7.4130 C.cat  52  ARG52       0.5346
     78  NH1       27.2400   24.0810    8.5680 N.pl3  52  ARG52       0.1354
     79  NH2       28.9620   24.9300    7.2870 N.pl3  52  ARG52       0.1354
     80  N         22.3040   22.7830    5.0580 N.3    54  SER54      -0.1202
     81  CA        22.1570   23.5700    6.2690 C.3    54  SER54       0.2020
     82  C         20.6710   23.7690    6.6040 C.2    54  SER54       0.2618
     83  O         19.8030   23.7770    5.7180 O.2    54  SER54      -0.2717
     84  CB        22.8910   24.9120    6.1260 C.3    54  SER54       0.2103
     85  OG        22.1180   25.8100    5.3460 O.3    54  SER54      -0.2182
     86  N         20.4070   23.9780    7.8930 N.am   55  VAL55      -0.1979
     87  CA        19.0350   24.0560    8.3770 C.3    55  VAL55       0.1595
     88  C         18.7120   25.4530    8.8070 C.2    55  VAL55       0.2287
     89  O         19.4720   26.0640    9.5120 O.2    55  VAL55      -0.2864
     90  CB        18.7340   23.0460    9.5150 C.3    55  VAL55       0.0276
     91  CG1       17.3190   23.2690   10.0820 C.3    55  VAL55       0.0022
     92  CG2       18.8600   21.6040    8.9790 C.3    55  VAL55       0.0022
@<TRIPOS>BOND
     1    69    70    1
     2    72    71    2
     3    70    71    1
     4    70    73    1
     5    73    74    1
     6    74    75    1
     7    80    81    1
     8    75    76    1
     9    85    84    1
    10    83    82    2
    11    84    81    1
    12    81    82    1
    13    76    77    2
    14    82    86   am
    15    31    30    1
    16    31    32    1
    17    31    34    1
    18    79    77    1
    19    77    78    1
    20    32    33    2
    21    36    35   ar
    22    86    87    1
    23    34    35    1
    24    35    37   ar
    25    25    26    2
    26    25    24    1
    27    87    88    1
    28    87    90    1
    29    24    23    1
    30    24    27    1
    31    88    89    2
    32    92    90    1
    33    29    27    1
    34    90    91    1
    35    27    28    1
    36    38    39    1
    37    44    42    1
    38    39    40    1
    39    39    42    1
    40    40    41    2
    41    42    43    1
    42    61    59   ar
    43    13    12    2
    44    21    20    2
    45    59    58    1
    46    59    60   ar
    47    11    12    1
    48    11    10    1
    49    11    14    1
    50    12    18   am
    51    58    55    1
    52    20    19    1
    53    16    14    1
    54    15    14    1
    55    15    17    1
    56    18    19    1
    57    19    22    1
    58    55    56    1
    59    55    54    1
    60    56    57    2
    61    54    47   am
    62    45    46    1
    63    47    46    1
    64    47    48    2
    65    46    49    1
    66    49    50    1
    67     4     3    2
    68     3     2    1
    69    50    51    1
    70     1     2    1
    71     2     5    1
    72    51    52    1
    73    62    63    1
    74    66    67    1
    75    66    63    1
    76    66    68    1
    77     9     7   am
    78    64    63    1
    79    64    65    2
    80     8     7    2
    81     7     6    1
    82     5     6    1
    83    52    53    1
