@<TRIPOS>MOLECULE
tmp/5jbsC02.pdb
 84 82 0 0 0
SMALL
GASTEIGER

@<TRIPOS>ATOM
      1  N          8.4270   26.5580   30.0900 N.3     3  ASP3       -0.1225
      2  CA         8.2860   25.2180   29.4840 C.3     3  ASP3        0.1805
      3  C          8.2240   25.2770   27.9450 C.2     3  ASP3        0.2598
      4  O          8.8840   24.5150   27.2860 O.2     3  ASP3       -0.2718
      5  CB         7.0510   24.4870   30.0470 C.3     3  ASP3        0.1424
      6  CG         6.9550   24.6290   31.5520 C.2     3  ASP3        0.3668
      7  OD1        6.8440   25.8170   32.0410 O.co2   3  ASP3       -0.2456
      8  OD2        7.0340   23.5880   32.2360 O.co2   3  ASP3       -0.2456
      9  N          7.4780   26.2210   27.3940 N.am    4  THR4       -0.1953
     10  CA         7.4680   26.4740   25.9370 C.3     4  THR4        0.1897
     11  C          8.8170   26.9580   25.3460 C.2     4  THR4        0.2313
     12  O          9.2640   26.5490   24.2420 O.2     4  THR4       -0.2863
     13  CB         6.3210   27.4330   25.5970 C.3     4  THR4        0.1794
     14  OG1        5.1240   26.7920   25.9560 O.3     4  THR4       -0.2208
     15  CG2        6.1860   27.6810   24.1110 C.3     4  THR4        0.0378
     16  N         11.7970   26.4160   26.5950 N.3     6  ARG6       -0.1231
     17  CA        12.4960   25.1310   26.6920 C.3     6  ARG6        0.1694
     18  C         12.2000   24.1750   25.5870 C.2     6  ARG6        0.2592
     19  O         13.1320   23.6700   24.9550 O.2     6  ARG6       -0.2718
     20  CB        12.1770   24.4770   28.0010 C.3     6  ARG6        0.0321
     21  CG        12.9670   23.2430   28.4090 C.3     6  ARG6        0.0489
     22  CD        12.2740   22.5040   29.5510 C.3     6  ARG6        0.2205
     23  NE        10.8700   22.1960   29.1510 N.pl3   6  ARG6       -0.0865
     24  CZ        10.0160   21.4440   29.8120 C.cat   6  ARG6        0.5346
     25  NH1       10.3620   20.7760   30.9070 N.pl3   6  ARG6        0.1354
     26  NH2        8.8090   21.3180   29.3240 N.pl3   6  ARG6        0.1354
     27  N         10.9180   23.9200   25.3420 N.am    7  ASP7       -0.1974
     28  CA        10.5730   22.9650   24.3130 C.3     7  ASP7        0.1709
     29  C         10.9560   23.4250   22.9380 C.2     7  ASP7        0.2293
     30  O         11.4420   22.6340   22.1390 O.2     7  ASP7       -0.2864
     31  CB         9.0830   22.6680   24.3020 C.3     7  ASP7        0.1436
     32  CG         8.6020   21.9480   25.5520 C.2     7  ASP7        0.3671
     33  OD1        9.3820   21.5970   26.5400 O.co2   7  ASP7       -0.2456
     34  OD2        7.3620   21.8160   25.5020 O.co2   7  ASP7       -0.2456
     35  N          1.8340   21.7700   23.8560 N.3    64  GLY64      -0.1210
     36  CA         1.7820   21.8270   25.3140 C.3    64  GLY64       0.1956
     37  C          1.7020   20.4540   25.9290 C.2    64  GLY64       0.2612
     38  O          1.8990   20.3210   27.1330 O.2    64  GLY64      -0.2717
     39  N          1.4570   19.4220   25.1100 N.am   65  LYS65      -0.1965
     40  CA         1.2330   18.0520   25.5920 C.3    65  LYS65       0.1728
     41  C          2.1780   16.9990   25.0010 C.2    65  LYS65       0.2616
     42  O          1.8440   15.8310   25.0330 O.2    65  LYS65      -0.2715
     43  CB        -0.2050   17.6160   25.2450 C.3    65  LYS65       0.0311
     44  CG        -1.3000   18.5350   25.7990 C.3    65  LYS65       0.0038
     45  CD        -1.3420   18.5610   27.3080 C.3    65  LYS65       0.0206
     46  CE        -2.7210   18.9510   27.7340 C.3    65  LYS65       0.1093
     47  NZ        -2.7810   19.1600   29.1980 N.3    65  LYS65      -0.1314
     48  N          3.3330   17.3720   24.4660 N.am   66  GLY66      -0.1955
     49  CA         4.2850   16.3630   23.9440 C.3    66  GLY66       0.1869
     50  C          4.3180   16.1310   22.4300 C.2    66  GLY66       0.2309
     51  O          4.9940   15.2390   21.9690 O.2    66  GLY66      -0.2863
     52  N          7.5610   14.1210   21.9510 N.3    91  TYR91      -0.1227
     53  CA         8.7050   14.2110   22.8830 C.3    91  TYR91       0.1736
     54  C          8.2210   14.2280   24.2930 C.2    91  TYR91       0.2595
     55  O          7.0540   14.5220   24.4970 O.2    91  TYR91      -0.2718
     56  CB         9.4890   15.5280   22.6020 C.3    91  TYR91       0.0548
     57  CG         8.7070   16.8280   22.8680 C.ar   91  TYR91      -0.0200
     58  CD1        7.9000   17.4100   21.8700 C.ar   91  TYR91      -0.0009
     59  CD2        8.8410   17.5120   24.1020 C.ar   91  TYR91      -0.0009
     60  CE1        7.2260   18.6020   22.0950 C.ar   91  TYR91       0.0417
     61  CE2        8.1470   18.6850   24.3440 C.ar   91  TYR91       0.0417
     62  CZ         7.3290   19.2350   23.3400 C.ar   91  TYR91       0.1957
     63  OH         6.6250   20.4280   23.5820 O.3    91  TYR91      -0.2866
     64  N          9.1160   13.9630   25.2420 N.am   92  GLN92      -0.1965
     65  CA         8.8600   14.0540   26.7040 C.3    92  GLN92       0.1733
     66  C         10.2310   14.2910   27.3760 C.2    92  GLN92       0.2616
     67  O         11.2660   14.2270   26.7310 O.2    92  GLN92      -0.2715
     68  CB         8.2340   12.7610   27.2400 C.3    92  GLN92       0.0408
     69  CG         9.1190   11.5450   26.9780 C.3    92  GLN92       0.0908
     70  CD         8.5080   10.1980   27.3260 C.2    92  GLN92       0.2608
     71  OE1        7.2990   10.0360   27.4400 O.2    92  GLN92      -0.2717
     72  NE2        9.3620    9.2230   27.4630 N.am   92  GLN92      -0.0878
     73  N         10.2310   14.4920   28.6630 N.am   93  TYR93      -0.1974
     74  CA        11.4320   14.6660   29.4160 C.3    93  TYR93       0.1639
     75  C         11.5240   13.4680   30.3550 C.2    93  TYR93       0.2290
     76  O         10.5550   13.0540   30.8830 O.2    93  TYR93      -0.2864
     77  CB        11.3990   16.0270   30.1700 C.3    93  TYR93       0.0560
     78  CG        11.4430   17.1830   29.2240 C.ar   93  TYR93      -0.0198
     79  CD1       10.2910   17.6570   28.6130 C.ar   93  TYR93      -0.0009
     80  CD2       12.6740   17.7830   28.8720 C.ar   93  TYR93      -0.0009
     81  CE1       10.3600   18.7340   27.7380 C.ar   93  TYR93       0.0417
     82  CE2       12.7540   18.8490   27.9930 C.ar   93  TYR93       0.0417
     83  CZ        11.5990   19.3480   27.4390 C.ar   93  TYR93       0.1957
     84  OH        11.7240   20.4030   26.5160 O.3    93  TYR93      -0.2866
@<TRIPOS>BOND
     1    58    60   ar
     2    58    57   ar
     3    52    53    1
     4    51    50    2
     5    60    62   ar
     6    30    29    2
     7    50    49    1
     8    56    57    1
     9    56    53    1
    10    57    59   ar
    11    53    54    1
    12    29    28    1
    13    62    63    1
    14    62    61   ar
    15    35    36    1
    16    49    48    1
    17    59    61   ar
    18    15    13    1
    19    12    11    2
    20    54    55    2
    21    54    64   am
    22    31    28    1
    23    31    32    1
    24    28    27    1
    25    48    41   am
    26    19    18    2
    27    41    42    2
    28    41    40    1
    29    39    40    1
    30    39    37   am
    31    64    65    1
    32    43    40    1
    33    43    44    1
    34    36    37    1
    35    27    18   am
    36    11    10    1
    37    34    32   ar
    38    32    33   ar
    39    18    17    1
    40    13    10    1
    41    13    14    1
    42    44    45    1
    43    37    38    2
    44    10     9    1
    45    84    83    1
    46    16    17    1
    47    17    20    1
    48    65    68    1
    49    65    66    1
    50    67    66    2
    51    69    68    1
    52    69    70    1
    53     4     3    2
    54    45    46    1
    55    70    71    2
    56    70    72   am
    57    66    73   am
    58     9     3   am
    59    83    81   ar
    60    83    82   ar
    61    46    47    1
    62    81    79   ar
    63     3     2    1
    64    82    80   ar
    65    20    21    1
    66    21    22    1
    67    79    78   ar
    68    73    74    1
    69    80    78   ar
    70    23    22    1
    71    23    24    2
    72    78    77    1
    73    26    24    1
    74    74    77    1
    75    74    75    1
    76     2     5    1
    77     2     1    1
    78    24    25    1
    79     5     6    1
    80    75    76    2
    81     6     7   ar
    82     6     8   ar
