@<TRIPOS>MOLECULE
tmp/5jbxB00.pdb
 159 148 0 0 0
SMALL
GASTEIGER

@<TRIPOS>ATOM
      1  N         -7.4660   33.0170  -14.9900 N.3    24  SER24      -0.1202
      2  CA        -7.3900   32.4540  -16.3340 C.3    24  SER24       0.2020
      3  C         -7.1860   30.9490  -16.3210 C.2    24  SER24       0.2619
      4  O         -7.5320   30.2830  -17.3000 O.2    24  SER24      -0.2717
      5  CB        -6.2850   33.1230  -17.1520 C.3    24  SER24       0.2103
      6  OG        -5.0050   32.8510  -16.6280 O.3    24  SER24      -0.2182
      7  N         -6.6370   30.4010  -15.2380 N.am   25  ARG25      -0.1965
      8  CA        -6.4800   28.9620  -15.0740 C.3    25  ARG25       0.1729
      9  C         -7.2170   28.4840  -13.8280 C.2    25  ARG25       0.2616
     10  O         -6.8240   27.5110  -13.1870 O.2    25  ARG25      -0.2715
     11  CB        -5.0050   28.5710  -15.0390 C.3    25  ARG25       0.0348
     12  CG        -4.2950   28.9000  -16.3400 C.3    25  ARG25       0.0492
     13  CD        -2.8660   28.4160  -16.3490 C.3    25  ARG25       0.2205
     14  NE        -2.1940   28.8710  -17.5640 N.pl3  25  ARG25      -0.0865
     15  CZ        -0.9700   28.5240  -17.9320 C.cat  25  ARG25       0.5346
     16  NH1       -0.2390   27.7130  -17.1990 N.pl3  25  ARG25       0.1354
     17  NH2       -0.4740   28.9960  -19.0670 N.pl3  25  ARG25       0.1354
     18  N         -8.3000   29.1790  -13.4830 N.am   26  ARG26      -0.1977
     19  CA        -9.1720   28.7930  -12.3780 C.3    26  ARG26       0.1597
     20  C         -8.3830   28.6730  -11.0820 C.2    26  ARG26       0.2287
     21  O         -8.6130   27.7860  -10.2560 O.2    26  ARG26      -0.2864
     22  CB        -9.9710   27.5350  -12.7020 C.3    26  ARG26       0.0334
     23  CG       -10.9700   27.7420  -13.8500 C.3    26  ARG26       0.0492
     24  CD       -12.1430   28.6430  -13.4630 C.3    26  ARG26       0.2205
     25  NE       -13.0450   28.8600  -14.5920 N.pl3  26  ARG26      -0.0865
     26  CZ       -12.8880   29.8040  -15.5160 C.cat  26  ARG26       0.5346
     27  NH1      -11.8760   30.6590  -15.4490 N.pl3  26  ARG26       0.1354
     28  NH2      -13.7470   29.8920  -16.5190 N.pl3  26  ARG26       0.1354
     29  N         -5.4740   27.8140  -10.3740 N.3    28  ALA28      -0.1245
     30  CA        -4.5680   26.6970  -10.1920 C.3    28  ALA28       0.1562
     31  C         -3.2350   27.1840   -9.6460 C.2    28  ALA28       0.2260
     32  O         -2.7980   28.2930   -9.9510 O.2    28  ALA28      -0.2867
     33  CB        -4.3190   26.0130  -11.5290 C.3    28  ALA28       0.0290
     34  N        -15.8070   31.3760   -9.4100 N.3    61  LYS61      -0.1231
     35  CA       -15.7730   30.0600  -10.0300 C.3    61  LYS61       0.1693
     36  C        -14.8460   29.0930   -9.3250 C.2    61  LYS61       0.2591
     37  O        -15.1640   27.9090   -9.2330 O.2    61  LYS61      -0.2718
     38  CB       -15.3630   30.1670  -11.5030 C.3    61  LYS61       0.0285
     39  CG       -16.3140   31.0370  -12.3240 C.3    61  LYS61       0.0035
     40  CD       -15.9300   31.0770  -13.7810 C.3    61  LYS61       0.0206
     41  CE       -16.9000   31.9300  -14.5810 C.3    61  LYS61       0.1093
     42  NZ       -16.5140   31.9350  -16.0060 N.3    61  LYS61      -0.1314
     43  N        -13.7140   29.5700   -8.8200 N.am   62  ALA62      -0.1980
     44  CA       -12.6970   28.6790   -8.2880 C.3    62  ALA62       0.1597
     45  C        -12.0230   29.2950   -7.0770 C.2    62  ALA62       0.2287
     46  O        -11.5560   30.4340   -7.1190 O.2    62  ALA62      -0.2864
     47  CB       -11.6480   28.3710   -9.3620 C.3    62  ALA62       0.0319
     48  N         -8.2040   25.3670   -8.4900 N.3    65  ALA65      -0.1231
     49  CA        -8.4830   24.1920   -9.3060 C.3    65  ALA65       0.1694
     50  C         -7.4010   23.1240   -9.2270 C.2    65  ALA65       0.2593
     51  O         -7.4290   22.1790  -10.0190 O.2    65  ALA65      -0.2718
     52  CB        -8.6980   24.6090  -10.7630 C.3    65  ALA65       0.0304
     53  N         -6.4790   23.2250   -8.2820 N.am   66  GLY66      -0.1942
     54  CA        -5.4420   22.2360   -8.0900 C.3    66  GLY66       0.2014
     55  C         -4.1240   22.7290   -8.6430 C.2    66  GLY66       0.2639
     56  O         -3.9630   23.8920   -9.0150 O.2    66  GLY66      -0.2714
     57  N         -3.1630   21.8160   -8.7270 N.am   67  ALA67      -0.1963
     58  CA        -1.9240   22.1560   -9.4130 C.3    67  ALA67       0.1728
     59  C         -2.2180   22.5610  -10.8550 C.2    67  ALA67       0.2616
     60  O         -3.1700   22.0910  -11.4760 O.2    67  ALA67      -0.2715
     61  CB        -0.9670   20.9760   -9.4180 C.3    67  ALA67       0.0334
     62  N         -1.3670   23.4220  -11.3880 N.am   68  ASP68      -0.1957
     63  CA        -1.4900   23.8750  -12.7690 C.3    68  ASP68       0.1840
     64  C         -1.0830   22.7490  -13.7110 C.2    68  ASP68       0.2622
     65  O          0.0910   22.3740  -13.8010 O.2    68  ASP68      -0.2715
     66  CB        -0.6300   25.1190  -12.9400 C.3    68  ASP68       0.1450
     67  CG        -0.6950   25.7100  -14.3420 C.2    68  ASP68       0.3671
     68  OD1       -0.9460   24.9610  -15.3110 O.co2  68  ASP68      -0.2456
     69  OD2       -0.4400   26.9350  -14.4700 O.co2  68  ASP68      -0.2456
     70  N         -2.0820   22.1760  -14.3700 N.am   69  LEU69      -0.1963
     71  CA        -1.8920   20.9950  -15.1960 C.3    69  LEU69       0.1728
     72  C         -1.2750   21.3220  -16.5390 C.2    69  LEU69       0.2616
     73  O         -0.7410   20.4190  -17.1990 O.2    69  LEU69      -0.2715
     74  CB        -3.2330   20.2930  -15.4060 C.3    69  LEU69       0.0311
     75  CG        -3.8300   19.7150  -14.1240 C.3    69  LEU69       0.0022
     76  CD1       -5.2090   19.1780  -14.4050 C.3    69  LEU69       0.0001
     77  CD2       -2.9720   18.6130  -13.5370 C.3    69  LEU69       0.0001
     78  N         -1.3730   22.5760  -16.9750 N.am   70  LYS70      -0.1977
     79  CA        -0.6820   22.9850  -18.1910 C.3    70  LYS70       0.1596
     80  C          0.8170   22.9950  -17.9370 C.2    70  LYS70       0.2287
     81  O          1.6070   22.4370  -18.7060 O.2    70  LYS70      -0.2864
     82  CB        -1.1670   24.3750  -18.6220 C.3    70  LYS70       0.0298
     83  CG        -2.6430   24.4370  -18.9950 C.3    70  LYS70       0.0038
     84  CD        -3.1180   25.8620  -19.2350 C.3    70  LYS70       0.0206
     85  CE        -4.5960   25.9460  -19.5720 C.3    70  LYS70       0.1093
     86  NZ        -4.8740   25.3760  -20.8910 N.3    70  LYS70      -0.1314
     87  N        -14.8850   26.2360   -6.8110 N.3   108  ALA108     -0.1245
     88  CA       -14.3150   24.8990   -6.8400 C.3   108  ALA108      0.1562
     89  C        -12.9600   24.8700   -6.1660 C.2   108  ALA108      0.2260
     90  O        -12.1030   25.7160   -6.4180 O.2   108  ALA108     -0.2867
     91  CB       -14.1540   24.4460   -8.2840 C.3   108  ALA108      0.0290
     92  N        -10.2840   21.8840   -5.9050 N.3   110  LEU110     -0.1231
     93  CA       -10.1210   20.5460   -6.4510 C.3   110  LEU110      0.1693
     94  C         -8.6860   20.0960   -6.2730 C.2   110  LEU110      0.2593
     95  O         -7.7540   20.8440   -6.5760 O.2   110  LEU110     -0.2718
     96  CB       -10.4810   20.5210   -7.9360 C.3   110  LEU110      0.0284
     97  CG       -11.8710   21.0310   -8.2810 C.3   110  LEU110      0.0019
     98  CD1      -12.0540   21.0800   -9.7790 C.3   110  LEU110      0.0001
     99  CD2      -12.9290   20.1600   -7.6460 C.3   110  LEU110      0.0001
    100  N         -8.5130   18.8740   -5.8060 N.am  111  GLY111     -0.1942
    101  CA        -7.1900   18.2990   -5.6810 C.3   111  GLY111      0.2014
    102  C         -6.3670   19.1170   -4.7210 C.2   111  GLY111      0.2639
    103  O         -6.7410   19.3030   -3.5610 O.2   111  GLY111     -0.2714
    104  N         -5.2440   19.6360   -5.1990 N.am  112  GLY112     -0.1954
    105  CA        -4.4320   20.5330   -4.4110 C.3   112  GLY112      0.1869
    106  C         -5.2110   21.6690   -3.7840 C.2   112  GLY112      0.2309
    107  O         -4.8350   22.1630   -2.7220 O.2   112  GLY112     -0.2863
    108  N        -17.2490   24.0120   -4.0310 N.3   130  GLU130     -0.1245
    109  CA       -17.3040   22.6120   -4.4010 C.3   130  GLU130      0.1567
    110  C        -15.9540   22.0450   -4.0140 C.2   130  GLU130      0.2260
    111  O        -14.9280   22.6670   -4.2850 O.2   130  GLU130     -0.2867
    112  CB       -17.5350   22.5080   -5.9110 C.3   130  GLU130      0.0388
    113  CG       -17.8420   21.1480   -6.4530 C.3   130  GLU130      0.1160
    114  CD       -18.5540   21.2380   -7.7960 C.2   130  GLU130      0.3649
    115  OE1      -18.5720   20.2370   -8.5390 O.co2 130  GLU130     -0.2457
    116  OE2      -19.0860   22.3240   -8.1190 O.co2 130  GLU130     -0.2457
    117  N         -9.8370   14.8990   -6.7060 N.3   134  THR134     -0.1203
    118  CA       -10.1330   14.2870   -7.9950 C.3   134  THR134      0.1994
    119  C         -8.9330   13.5480   -8.5780 C.2   134  THR134      0.2617
    120  O         -8.9910   13.0880   -9.7210 O.2   134  THR134     -0.2717
    121  CB       -10.5850   15.3740   -8.9680 C.3   134  THR134      0.1784
    122  OG1       -9.5750   16.3810   -8.9900 O.3   134  THR134     -0.2211
    123  CG2      -11.9210   15.9860   -8.5420 C.3   134  THR134      0.0376
    124  N         -7.8650   13.4110   -7.7980 N.am  135  GLU135     -0.1979
    125  CA        -6.5980   12.8940   -8.2870 C.3   135  GLU135      0.1602
    126  C         -6.7090   11.5650   -9.0240 C.2   135  GLU135      0.2287
    127  O         -6.0530   11.3920  -10.0460 O.2   135  GLU135     -0.2864
    128  CB        -5.6150   12.8000   -7.1270 C.3   135  GLU135      0.0415
    129  CG        -4.9480   14.1210   -6.7390 C.3   135  GLU135      0.1163
    130  CD        -5.7430   14.9960   -5.7750 C.2   135  GLU135      0.3649
    131  OE1       -6.8950   14.7060   -5.4400 O.co2 135  GLU135     -0.2457
    132  OE2       -5.1800   16.0230   -5.3090 O.co2 135  GLU135     -0.2457
    133  N         -7.2550   11.6750  -12.5860 N.3   138  LEU138     -0.1245
    134  CA        -6.0990   12.1740  -13.3110 C.3   138  LEU138      0.1561
    135  C         -4.9640   11.1600  -13.3630 C.2   138  LEU138      0.2260
    136  O         -3.8940   11.4750  -13.8780 O.2   138  LEU138     -0.2867
    137  CB        -5.5910   13.4580  -12.6530 C.3   138  LEU138      0.0270
    138  CG        -6.2490   14.7510  -13.0780 C.3   138  LEU138      0.0019
    139  CD1       -5.7690   15.8140  -12.1460 C.3   138  LEU138      0.0001
    140  CD2       -5.8700   15.1150  -14.4990 C.3   138  LEU138      0.0001
    141  N         -3.3850    9.9100  -10.6870 N.3   140  ILE140     -0.1245
    142  CA        -2.4750   10.1080   -9.5700 C.3   140  ILE140      0.1561
    143  C         -3.2370    9.9120   -8.2590 C.2   140  ILE140      0.2260
    144  O         -4.3970    9.5110   -8.2580 O.2   140  ILE140     -0.2867
    145  CB        -1.7720   11.4760   -9.6520 C.3   140  ILE140      0.0252
    146  CG1       -2.7810   12.6250   -9.5710 C.3   140  ILE140      0.0019
    147  CG2       -0.9650   11.5610  -10.9560 C.3   140  ILE140      0.0019
    148  CD1       -2.1700   14.0000   -9.4430 C.3   140  ILE140      0.0001
    149  N        -17.3140   15.2000   -6.5110 N.3   168  ARG168     -0.1245
    150  CA       -17.2690   16.5400   -5.9520 C.3   168  ARG168      0.1563
    151  C        -18.5100   16.7730   -5.1040 C.2   168  ARG168      0.2260
    152  O        -19.6080   16.3400   -5.4720 O.2   168  ARG168     -0.2867
    153  CB       -17.2300   17.5700   -7.0810 C.3   168  ARG168      0.0307
    154  CG       -16.0150   17.4030   -7.9770 C.3   168  ARG168      0.0489
    155  CD       -16.0580   18.2520   -9.2250 C.3   168  ARG168      0.2205
    156  NE       -14.9880   17.8870  -10.1460 N.pl3 168  ARG168     -0.0865
    157  CZ       -14.4830   18.7030  -11.0610 C.cat 168  ARG168      0.5346
    158  NH1      -14.9540   19.9390  -11.1760 N.pl3 168  ARG168      0.1354
    159  NH2      -13.5070   18.2850  -11.8610 N.pl3 168  ARG168      0.1354
@<TRIPOS>BOND
     1    86    85    1
     2    85    84    1
     3    84    83    1
     4    17    15    1
     5    83    82    1
     6    81    80    2
     7    82    79    1
     8    79    80    1
     9    79    78    1
    10    15    14    2
    11    15    16    1
    12    14    13    1
    13     4     3    2
    14    73    72    2
    15     5     6    1
    16     5     2    1
    17    78    72   am
    18    72    71    1
    19    28    26    1
    20    13    12    1
    21    12    11    1
    22     2     3    1
    23     2     1    1
    24     3     7   am
    25    42    41    1
    26    26    27    1
    27    26    25    2
    28    74    71    1
    29    74    75    1
    30    68    67   ar
    31     7     8    1
    32    71    70    1
    33     8    11    1
    34     8     9    1
    35    25    24    1
    36    41    40    1
    37   140   138    1
    38    69    67   ar
    39    76    75    1
    40    70    64   am
    41    67    66    1
    42    75    77    1
    43   136   135    2
    44    23    24    1
    45    23    22    1
    46     9    18   am
    47     9    10    2
    48    65    64    2
    49    40    39    1
    50    64    63    1
    51    18    19    1
    52   135   134    1
    53   134   137    1
    54   134   133    1
    55   138   137    1
    56   138   139    1
    57    66    63    1
    58    63    62    1
    59    22    19    1
    60    19    20    1
    61    39    38    1
    62   159   157    1
    63    33    30    1
    64    38    35    1
    65    60    59    2
    66    62    59   am
    67   158   157    1
    68    20    21    2
    69   157   156    2
    70   147   145    1
    71    59    58    1
    72    52    49    1
    73   141   142    1
    74    29    30    1
    75    30    31    1
    76   156   155    1
    77   127   126    2
    78    35    34    1
    79    35    36    1
    80    51    50    2
    81    32    31    2
    82    98    97    1
    83   120   119    2
    84   145   146    1
    85   145   142    1
    86   146   148    1
    87   142   143    1
    88    61    58    1
    89    58    57    1
    90    47    44    1
    91    36    37    2
    92    36    43   am
    93    49    50    1
    94    49    48    1
    95    50    53   am
    96   155   154    1
    97   126   125    1
    98    56    55    2
    99   122   121    1
   100   121   123    1
   101   121   118    1
   102    43    44    1
   103    57    55   am
   104    55    54    1
   105   119   118    1
   106   119   124   am
   107   115   114   ar
   108    44    45    1
   109   125   124    1
   110   125   128    1
   111    91    88    1
   112    53    54    1
   113    97    96    1
   114    97    99    1
   115   143   144    2
   116   116   114   ar
   117   118   117    1
   118   154   153    1
   119    96    93    1
   120   114   113    1
   121   128   129    1
   122    46    45    2
   123   153   150    1
   124    88    87    1
   125    88    89    1
   126   129   130    1
   127    95    94    2
   128   149   150    1
   129   113   112    1
   130    93    94    1
   131    93    92    1
   132    90    89    2
   133    94   100   am
   134   150   151    1
   135   112   109    1
   136   100   101    1
   137   130   131   ar
   138   130   132   ar
   139   101   102    1
   140   152   151    2
   141   104   102   am
   142   104   105    1
   143   102   103    2
   144   105   106    1
   145   109   108    1
   146   109   110    1
   147   111   110    2
   148   106   107    2
