@<TRIPOS>MOLECULE
tmp/5jbxB01.pdb
 96 87 0 0 0
SMALL
GASTEIGER

@<TRIPOS>ATOM
      1  N         -3.1630   21.8160   -8.7270 N.3    67  ALA67      -0.1245
      2  CA        -1.9240   22.1560   -9.4130 C.3    67  ALA67       0.1562
      3  C         -2.2180   22.5610  -10.8550 C.2    67  ALA67       0.2260
      4  O         -3.1700   22.0910  -11.4760 O.2    67  ALA67      -0.2867
      5  CB        -0.9670   20.9760   -9.4180 C.3    67  ALA67       0.0290
      6  N          2.2610   21.3760  -15.5040 N.3    72  ARG72      -0.1245
      7  CA         2.6550   20.0310  -15.1000 C.3    72  ARG72       0.1563
      8  C          2.9100   19.1060  -16.2810 C.2    72  ARG72       0.2260
      9  O          3.6560   18.1290  -16.1430 O.2    72  ARG72      -0.2867
     10  CB         1.5590   19.4360  -14.2050 C.3    72  ARG72       0.0307
     11  CG         1.8410   18.0240  -13.6850 C.3    72  ARG72       0.0489
     12  CD         3.0540   17.9080  -12.7560 C.3    72  ARG72       0.2205
     13  NE         2.8230   18.6320  -11.5110 N.pl3  72  ARG72      -0.0865
     14  CZ         2.0980   18.1650  -10.4910 C.cat  72  ARG72       0.5346
     15  NH1        1.6290   16.9320  -10.5070 N.pl3  72  ARG72       0.1354
     16  NH2        1.8640   18.9380   -9.4480 N.pl3  72  ARG72       0.1354
     17  N          8.2820   17.0510  -10.1870 N.3    80  VAL80      -0.1245
     18  CA         7.0700   16.7200   -9.4460 C.3    80  VAL80       0.1561
     19  C          7.3910   16.5090   -7.9720 C.2    80  VAL80       0.2260
     20  O          6.7060   17.0460   -7.0970 O.2    80  VAL80      -0.2867
     21  CB         6.3490   15.5110  -10.0660 C.3    80  VAL80       0.0252
     22  CG1        5.1170   15.1750   -9.2600 C.3    80  VAL80       0.0019
     23  CG2        5.9550   15.8080  -11.5220 C.3    80  VAL80       0.0019
     24  N          7.8110   19.8090   -6.2720 N.3    83  PHE83      -0.1227
     25  CA         6.5350   20.4780   -6.0550 C.3    83  PHE83       0.1736
     26  C          5.8050   19.8620   -4.8700 C.2    83  PHE83       0.2595
     27  O          5.2600   20.5770   -4.0220 O.2    83  PHE83      -0.2718
     28  CB         5.6920   20.4040   -7.3350 C.3    83  PHE83       0.0547
     29  CG         4.4050   21.1840   -7.2740 C.ar   83  PHE83      -0.0202
     30  CD1        4.3710   22.5350   -7.6040 C.ar   83  PHE83      -0.0042
     31  CD2        3.2240   20.5660   -6.9020 C.ar   83  PHE83      -0.0042
     32  CE1        3.1840   23.2390   -7.5760 C.ar   83  PHE83      -0.0003
     33  CE2        2.0280   21.2750   -6.8890 C.ar   83  PHE83      -0.0003
     34  CZ         2.0170   22.6020   -7.2340 C.ar   83  PHE83      -0.0000
     35  N          5.7710   18.5320   -4.8020 N.am   84  LEU84      -0.1980
     36  CA         5.1190   17.8910   -3.6670 C.3    84  LEU84       0.1596
     37  C          5.8100   18.2560   -2.3640 C.2    84  LEU84       0.2287
     38  O          5.1480   18.3950   -1.3300 O.2    84  LEU84      -0.2864
     39  CB         5.0890   16.3850   -3.8440 C.3    84  LEU84       0.0297
     40  CG         4.3380   15.8530   -5.0520 C.3    84  LEU84       0.0022
     41  CD1        4.3620   14.3380   -5.0590 C.3    84  LEU84       0.0001
     42  CD2        2.9170   16.3740   -5.1220 C.3    84  LEU84       0.0001
     43  N          4.4000   21.5990   -1.3830 N.3    87  LEU87      -0.1245
     44  CA         3.1030   21.4560   -0.7460 C.3    87  LEU87       0.1561
     45  C          3.2950   21.0110    0.6810 C.2    87  LEU87       0.2260
     46  O          2.6610   21.5420    1.5930 O.2    87  LEU87      -0.2867
     47  CB         2.2160   20.4380   -1.4780 C.3    87  LEU87       0.0270
     48  CG         1.8010   20.7760   -2.9020 C.3    87  LEU87       0.0019
     49  CD1        1.0830   19.5970   -3.4930 C.3    87  LEU87       0.0001
     50  CD2        0.9130   22.0090   -2.9530 C.3    87  LEU87       0.0001
     51  N         -5.2440   19.6360   -5.1990 N.3   112  GLY112     -0.1225
     52  CA        -4.4320   20.5330   -4.4110 C.3   112  GLY112      0.1811
     53  C         -5.2110   21.6690   -3.7840 C.2   112  GLY112      0.2280
     54  O         -4.8350   22.1630   -2.7220 O.2   112  GLY112     -0.2866
     55  N         -6.6540   20.2780   -0.8020 N.3   115  GLU115     -0.1245
     56  CA        -5.5580   20.0260    0.1270 C.3   115  GLU115      0.1567
     57  C         -5.1220   21.2900    0.8440 C.2   115  GLU115      0.2260
     58  O         -4.8130   21.2470    2.0440 O.2   115  GLU115     -0.2867
     59  CB        -4.4070   19.3350   -0.6000 C.3   115  GLU115      0.0388
     60  CG        -4.8180   17.9330   -0.9900 C.3   115  GLU115      0.1160
     61  CD        -3.8120   17.2230   -1.8270 C.2   115  GLU115      0.3649
     62  OE1       -3.4110   16.0850   -1.5050 O.co2 115  GLU115     -0.2457
     63  OE2       -3.4140   17.8250   -2.8480 O.co2 115  GLU115     -0.2457
     64  N         -7.8650   13.4110   -7.7980 N.3   135  GLU135     -0.1245
     65  CA        -6.5980   12.8940   -8.2870 C.3   135  GLU135      0.1567
     66  C         -6.7090   11.5650   -9.0240 C.2   135  GLU135      0.2260
     67  O         -6.0530   11.3920  -10.0460 O.2   135  GLU135     -0.2867
     68  CB        -5.6150   12.8000   -7.1270 C.3   135  GLU135      0.0388
     69  CG        -4.9480   14.1210   -6.7390 C.3   135  GLU135      0.1160
     70  CD        -5.7430   14.9960   -5.7750 C.2   135  GLU135      0.3649
     71  OE1       -6.8950   14.7060   -5.4400 O.co2 135  GLU135     -0.2457
     72  OE2       -5.1800   16.0230   -5.3090 O.co2 135  GLU135     -0.2457
     73  N         -3.3850    9.9100  -10.6870 N.3   140  ILE140     -0.1231
     74  CA        -2.4750   10.1080   -9.5700 C.3   140  ILE140      0.1692
     75  C         -3.2370    9.9120   -8.2590 C.2   140  ILE140      0.2591
     76  O         -4.3970    9.5110   -8.2580 O.2   140  ILE140     -0.2718
     77  CB        -1.7720   11.4760   -9.6520 C.3   140  ILE140      0.0266
     78  CG1       -2.7810   12.6250   -9.5710 C.3   140  ILE140      0.0019
     79  CG2       -0.9650   11.5610  -10.9560 C.3   140  ILE140      0.0020
     80  CD1       -2.1700   14.0000   -9.4430 C.3   140  ILE140      0.0001
     81  N         -2.5560   10.1430   -7.1420 N.am  141  ILE141     -0.1980
     82  CA        -3.2070   10.1570   -5.8310 C.3   141  ILE141      0.1595
     83  C         -3.0440   11.5390   -5.2330 C.2   141  ILE141      0.2287
     84  O         -2.1850   12.3170   -5.6680 O.2   141  ILE141     -0.2864
     85  CB        -2.6460    9.0640   -4.8900 C.3   141  ILE141      0.0276
     86  CG1       -1.2070    9.3690   -4.4460 C.3   141  ILE141      0.0022
     87  CG2       -2.7500    7.6890   -5.5380 C.3   141  ILE141      0.0022
     88  CD1       -0.7590    8.5640   -3.2680 C.3   141  ILE141      0.0001
     89  N         -1.2860   13.9990   -3.2240 N.3   143  GLY143     -0.1210
     90  CA         0.1040   14.0430   -2.8310 C.3   143  GLY143      0.1956
     91  C          0.4450   15.2780   -2.0260 C.2   143  GLY143      0.2612
     92  O          1.6300   15.5520   -1.8120 O.2   143  GLY143     -0.2717
     93  N         -0.5780   16.0360   -1.6190 N.am  144  GLY144     -0.1956
     94  CA        -0.4570   17.2150   -0.7770 C.3   144  GLY144      0.1869
     95  C         -1.1370   17.0270    0.5570 C.2   144  GLY144      0.2309
     96  O         -1.6320   17.9830    1.1510 O.2   144  GLY144     -0.2863
@<TRIPOS>BOND
     1     8     9    2
     2     8     7    1
     3     6     7    1
     4     7    10    1
     5    10    11    1
     6    11    12    1
     7    12    13    1
     8    23    21    1
     9    13    14    2
    10     4     3    2
    11    79    77    1
    12     3     2    1
    13    73    74    1
    14    15    14    1
    15    14    16    1
    16    17    18    1
    17    21    18    1
    18    21    22    1
    19    67    66    2
    20    77    78    1
    21    77    74    1
    22    78    80    1
    23    74    75    1
    24    18    19    1
    25     5     2    1
    26     2     1    1
    27    66    65    1
    28    65    64    1
    29    65    68    1
    30    75    76    2
    31    75    81   am
    32    19    20    2
    33    30    32   ar
    34    30    29   ar
    35    32    34   ar
    36    28    29    1
    37    28    25    1
    38    29    31   ar
    39    34    33   ar
    40    81    82    1
    41    68    69    1
    42    31    33   ar
    43    69    70    1
    44    24    25    1
    45    25    26    1
    46    82    83    1
    47    82    85    1
    48    70    71   ar
    49    70    72   ar
    50    84    83    2
    51    87    85    1
    52    51    52    1
    53    42    40    1
    54    41    40    1
    55    40    39    1
    56    85    86    1
    57    26    35   am
    58    26    27    2
    59    35    36    1
    60    86    88    1
    61    52    53    1
    62    39    36    1
    63    53    54    2
    64    36    37    1
    65    49    48    1
    66    89    90    1
    67    50    48    1
    68    48    47    1
    69    63    61   ar
    70    90    91    1
    71    37    38    2
    72    91    92    2
    73    91    93   am
    74    61    62   ar
    75    61    60    1
    76    93    94    1
    77    47    44    1
    78    43    44    1
    79    60    59    1
    80    55    56    1
    81    94    95    1
    82    44    45    1
    83    59    56    1
    84    56    57    1
    85    95    96    2
    86    45    46    2
    87    57    58    2
