@<TRIPOS>MOLECULE
tmp/5jc1A00.pdb
 177 169 0 0 0
SMALL
GASTEIGER

@<TRIPOS>ATOM
      1  N         12.2690   16.9160   23.3320 N.3   129  LYS129     -0.1245
      2  CA        11.8050   18.3100   23.2610 C.3   129  LYS129      0.1561
      3  C         12.1570   19.1330   24.5000 C.2   129  LYS129      0.2260
      4  O         12.3980   20.3300   24.3900 O.2   129  LYS129     -0.2867
      5  CB        10.2870   18.3930   23.0010 C.3   129  LYS129      0.0271
      6  CG         9.3660   18.1550   24.2030 C.3   129  LYS129      0.0035
      7  CD         7.9200   17.8870   23.7780 C.3   129  LYS129      0.0206
      8  CE         7.7720   16.4640   23.2470 C.3   129  LYS129      0.1093
      9  NZ         6.4900   16.2480   22.5470 N.3   129  LYS129     -0.1314
     10  N         10.5920   15.0640   16.8180 N.3   155  ASP155     -0.1225
     11  CA         9.2440   15.3630   17.3290 C.3   155  ASP155      0.1805
     12  C          8.3170   15.5220   16.1070 C.2   155  ASP155      0.2598
     13  O          8.6580   16.2550   15.1670 O.2   155  ASP155     -0.2718
     14  CB         9.2900   16.6200   18.2320 C.3   155  ASP155      0.1424
     15  CG         8.1230   16.7100   19.1980 C.2   155  ASP155      0.3668
     16  OD1        7.1840   15.8810   19.1060 O.co2 155  ASP155     -0.2456
     17  OD2        8.1390   17.6130   20.0630 O.co2 155  ASP155     -0.2456
     18  N          7.1890   14.8030   16.0920 N.am  156  SER156     -0.1938
     19  CA         6.4060   14.6020   14.8620 C.3   156  SER156      0.2055
     20  C          5.9430   15.8970   14.1920 C.2   156  SER156      0.2642
     21  O          6.0000   16.0180   12.9720 O.2   156  SER156     -0.2714
     22  CB         5.2060   13.6730   15.1010 C.3   156  SER156      0.2130
     23  OG         4.2680   14.2440   16.0050 O.3   156  SER156     -0.2179
     24  N          5.5170   16.8760   14.9850 N.am  157  GLU157     -0.1976
     25  CA         5.0340   18.1370   14.4340 C.3   157  GLU157      0.1602
     26  C          6.1930   18.9230   13.8220 C.2   157  GLU157      0.2287
     27  O          6.0400   19.5830   12.8030 O.2   157  GLU157     -0.2864
     28  CB         4.3380   18.9880   15.5080 C.3   157  GLU157      0.0415
     29  CG         3.1680   18.3030   16.2110 C.3   157  GLU157      0.1163
     30  CD         3.5880   17.3390   17.3130 C.2   157  GLU157      0.3649
     31  OE1        4.8140   17.1670   17.5150 O.co2 157  GLU157     -0.2457
     32  OE2        2.7030   16.7440   17.9690 O.co2 157  GLU157     -0.2457
     33  N         -2.3880   19.6790   17.1540 N.3   193  SER193     -0.1202
     34  CA        -2.5390   18.9520   18.4090 C.3   193  SER193      0.2020
     35  C         -3.6880   17.9710   18.2880 C.2   193  SER193      0.2619
     36  O         -4.7120   18.2930   17.6970 O.2   193  SER193     -0.2717
     37  CB        -2.8510   19.9020   19.5530 C.3   193  SER193      0.2103
     38  OG        -3.0160   19.1830   20.7610 O.3   193  SER193     -0.2182
     39  N         -3.5150   16.7860   18.8650 N.am  194  SER194     -0.1937
     40  CA        -4.6070   15.8260   18.9770 C.3   194  SER194      0.2055
     41  C         -5.7260   16.4050   19.8390 C.2   194  SER194      0.2644
     42  O         -6.8970   16.0550   19.6530 O.2   194  SER194     -0.2714
     43  CB        -4.1260   14.4960   19.5730 C.3   194  SER194      0.2130
     44  OG        -4.1480   14.5150   20.9950 O.3   194  SER194     -0.2179
     45  N         -5.3530   17.2610   20.7940 N.am  195  GLY195     -0.1939
     46  CA        -6.2930   17.8160   21.7650 C.3   195  GLY195      0.2014
     47  C         -6.4000   17.0120   23.0590 C.2   195  GLY195      0.2639
     48  O         -6.9260   17.5150   24.0490 O.2   195  GLY195     -0.2714
     49  N         -5.9090   15.7720   23.0570 N.am  196  GLY196     -0.1954
     50  CA        -5.9750   14.9170   24.2280 C.3   196  GLY196      0.1869
     51  C         -7.3910   14.4350   24.5200 C.2   196  GLY196      0.2309
     52  O         -8.3160   14.6820   23.7390 O.2   196  GLY196     -0.2863
     53  N         -3.1330    6.3300   21.1600 N.3   220  TRP220     -0.1227
     54  CA        -1.7660    5.9130   20.8240 C.3   220  TRP220      0.1737
     55  C         -1.0090    5.6790   22.1100 C.2   220  TRP220      0.2595
     56  O         -0.9370    6.5690   22.9590 O.2   220  TRP220     -0.2718
     57  CB        -1.0720    6.9650   19.9500 C.3   220  TRP220      0.0564
     58  CG        -1.8890    7.1980   18.7620 C.ar  220  TRP220      0.0003
     59  CD1       -1.9630    6.4040   17.6630 C.ar  220  TRP220      0.0946
     60  CD2       -2.8570    8.2340   18.5830 C.ar  220  TRP220      0.0152
     61  NE1       -2.8910    6.9010   16.7850 N.ar  220  TRP220     -0.2442
     62  CE2       -3.4570    8.0260   17.3240 C.ar  220  TRP220      0.0810
     63  CE3       -3.2600    9.3320   19.3560 C.ar  220  TRP220      0.0012
     64  CZ2       -4.4440    8.8770   16.8120 C.ar  220  TRP220      0.0191
     65  CZ3       -4.2400   10.1790   18.8490 C.ar  220  TRP220      0.0001
     66  CH2       -4.8210    9.9440   17.5860 C.ar  220  TRP220      0.0015
     67  N         -0.4620    4.4740   22.2540 N.am  221  LYS221     -0.1966
     68  CA         0.2030    4.0810   23.4890 C.3   221  LYS221      0.1728
     69  C          1.6090    4.6830   23.4990 C.2   221  LYS221      0.2616
     70  O          2.4890    4.2720   22.7360 O.2   221  LYS221     -0.2715
     71  CB         0.2310    2.5490   23.6610 C.3   221  LYS221      0.0311
     72  CG         0.0220    2.0820   25.1000 C.3   221  LYS221      0.0038
     73  CD         1.2030    2.4010   26.0170 C.3   221  LYS221      0.0206
     74  CE         0.7770    2.5260   27.4720 C.3   221  LYS221      0.1093
     75  NZ         0.1400    1.2840   27.9860 N.3   221  LYS221     -0.1314
     76  N          1.7830    5.6710   24.3730 N.am  222  MET222     -0.1977
     77  CA         3.0550    6.3520   24.5880 C.3   222  MET222      0.1605
     78  C          3.2240    6.5500   26.0940 C.2   222  MET222      0.2287
     79  O          2.3070    6.2440   26.8600 O.2   222  MET222     -0.2864
     80  CB         3.0920    7.6750   23.8130 C.3   222  MET222      0.0413
     81  CG         1.8800    8.5750   24.0010 C.3   222  MET222      0.0598
     82  SD         1.7380    9.8830   22.7590 S.3   222  MET222     -0.1393
     83  CE         0.4680   10.8840   23.5280 C.3   222  MET222      0.0692
     84  N          4.3450   12.1250   28.8220 N.3   226  ILE226     -0.1245
     85  CA         3.8030   12.7930   27.6320 C.3   226  ILE226      0.1561
     86  C          2.2790   12.6640   27.5370 C.2   226  ILE226      0.2260
     87  O          1.6200   13.5870   27.0730 O.2   226  ILE226     -0.2867
     88  CB         4.4980   12.3840   26.3020 C.3   226  ILE226      0.0252
     89  CG1        4.0230   13.3000   25.1500 C.3   226  ILE226      0.0019
     90  CG2        4.2210   10.9360   25.9240 C.3   226  ILE226      0.0019
     91  CD1        4.8660   13.2280   23.8930 C.3   226  ILE226      0.0001
     92  N         -0.1970   15.7210   27.2300 N.3   230  SER230     -0.1217
     93  CA        -1.2060   15.7820   26.1660 C.3   230  SER230      0.1889
     94  C         -2.5600   16.1490   26.7690 C.2   230  SER230      0.2288
     95  O         -3.3130   16.9380   26.1920 O.2   230  SER230     -0.2866
     96  CB        -1.2900   14.4410   25.4220 C.3   230  SER230      0.2089
     97  OG        -2.3510   14.4160   24.4690 O.3   230  SER230     -0.2183
     98  N         -2.5280   19.7360   27.6160 N.3   233  MET233     -0.1245
     99  CA        -1.9830   20.4910   26.4770 C.3   233  MET233      0.1570
    100  C         -0.6450   21.1900   26.7640 C.2   233  MET233      0.2261
    101  O         -0.1640   21.9650   25.9310 O.2   233  MET233     -0.2867
    102  CB        -3.0220   21.4330   25.8410 C.3   233  MET233      0.0387
    103  CG        -4.2170   20.6810   25.2540 C.3   233  MET233      0.0595
    104  SD        -5.2490   21.6420   24.1360 S.3   233  MET233     -0.1393
    105  CE        -4.1910   21.6740   22.6910 C.3   233  MET233      0.0692
    106  N          1.9690   19.5750   26.5500 N.3   235  ASN235     -0.1225
    107  CA         2.7750   19.0020   25.4820 C.3   235  ASN235      0.1785
    108  C          2.8960   19.9900   24.3310 C.2   235  ASN235      0.2597
    109  O          4.0070   20.2940   23.8830 O.2   235  ASN235     -0.2718
    110  CB         2.2390   17.6710   24.9650 C.3   235  ASN235      0.1169
    111  CG         3.2070   17.0090   23.9950 C.2   235  ASN235      0.2627
    112  OD1        4.3930   16.8440   24.3090 O.2   235  ASN235     -0.2716
    113  ND2        2.7260   16.6500   22.8070 N.am  235  ASN235     -0.0877
    114  N          1.7570   20.5290   23.9010 N.am  236  LYS236     -0.1980
    115  CA         1.7440   21.5340   22.8390 C.3   236  LYS236      0.1596
    116  C          2.4230   22.8450   23.2530 C.2   236  LYS236      0.2287
    117  O          3.1210   23.4710   22.4400 O.2   236  LYS236     -0.2864
    118  CB         0.3120   21.7850   22.3320 C.3   236  LYS236      0.0298
    119  CG         0.2190   22.0400   20.8340 C.3   236  LYS236      0.0038
    120  CD         0.8770   20.9750   19.9550 C.3   236  LYS236      0.0206
    121  CE         0.6230   19.5400   20.4210 C.3   236  LYS236      0.1093
    122  NZ         1.0540   18.5610   19.3940 N.3   236  LYS236     -0.1314
    123  N          5.9460   22.3500   22.8570 N.3   239  GLU239     -0.1245
    124  CA         6.2060   22.3030   21.4200 C.3   239  GLU239      0.1567
    125  C          6.1690   23.6680   20.7160 C.2   239  GLU239      0.2260
    126  O          6.8480   23.8530   19.7020 O.2   239  GLU239     -0.2867
    127  CB         5.2650   21.3030   20.7510 C.3   239  GLU239      0.0388
    128  CG         5.6020   19.8710   21.1410 C.3   239  GLU239      0.1160
    129  CD         4.6930   18.8320   20.5340 C.2   239  GLU239      0.3649
    130  OE1        3.6790   19.1950   19.8700 O.co2 239  GLU239     -0.2457
    131  OE2        5.0080   17.6360   20.7470 O.co2 239  GLU239     -0.2457
    132  N         -5.3270   13.4840   13.6910 N.3   262  CYS262     -0.1235
    133  CA        -3.8680   13.3070   13.6780 C.3   262  CYS262      0.1677
    134  C         -3.3260   12.7420   12.3540 C.2   262  CYS262      0.2270
    135  O         -2.4540   11.8790   12.3470 O.2   262  CYS262     -0.2867
    136  CB        -3.3870   12.4430   14.8480 C.3   262  CYS262      0.0956
    137  SG        -3.9050   13.0010   16.4940 S.3   262  CYS262     -0.0801
    138  N          0.0820   16.6080   10.2940 N.3   265  HIS265     -0.1241
    139  CA         0.9550   16.6910   11.4780 C.3   265  HIS265      0.1621
    140  C          1.4500   18.0560   11.8680 C.2   265  HIS265      0.2264
    141  O          1.9120   18.2200   12.9980 O.2   265  HIS265     -0.2867
    142  CB         2.0930   15.7040   11.3370 C.3   265  HIS265      0.0745
    143  CG         1.6040   14.3030   11.3150 C.ar  265  HIS265      0.0817
    144  ND1        0.8620   13.7780   12.3480 N.ar  265  HIS265     -0.2268
    145  CD2        1.6440   13.3540   10.3580 C.ar  265  HIS265      0.1154
    146  CE1        0.4970   12.5460   12.0420 C.ar  265  HIS265      0.1986
    147  NE2        0.9640   12.2620   10.8420 N.ar  265  HIS265     -0.2212
    148  N         -0.8150    8.4160   12.1820 N.3   282  PRO282     -0.2102
    149  CA        -0.0030    8.7100   13.3650 C.3   282  PRO282      0.1504
    150  C          0.9620    7.5520   13.7010 C.2   282  PRO282      0.2576
    151  O          0.5480    6.5330   14.2340 O.2   282  PRO282     -0.2718
    152  CB        -1.0510    8.9660   14.4590 C.3   282  PRO282      0.0282
    153  CG        -2.3020    8.3450   13.9630 C.3   282  PRO282      0.0208
    154  CD        -2.2560    8.3940   12.4820 C.3   282  PRO282      0.0893
    155  N          2.2320    7.7100   13.3470 N.am  283  ASP283     -0.1960
    156  CA         3.2140    6.6250   13.3940 C.3   283  ASP283      0.1840
    157  C          4.5700    7.3170   13.4310 C.2   283  ASP283      0.2621
    158  O          4.8660    8.1210   12.5560 O.2   283  ASP283     -0.2715
    159  CB         3.0150    5.7400   12.1420 C.3   283  ASP283      0.1450
    160  CG         4.0750    4.6360   11.9570 C.2   283  ASP283      0.3671
    161  OD1        5.1720    4.6560   12.5330 O.co2 283  ASP283     -0.2456
    162  OD2        3.8060    3.7130   11.1500 O.co2 283  ASP283     -0.2456
    163  N          5.3860    7.0190   14.4400 N.am  284  MET284     -0.1977
    164  CA         6.6800    7.7100   14.6020 C.3   284  MET284      0.1605
    165  C          7.7620    7.2720   13.6030 C.2   284  MET284      0.2287
    166  O          8.8080    7.9160   13.5230 O.2   284  MET284     -0.2864
    167  CB         7.2030    7.6060   16.0480 C.3   284  MET284      0.0413
    168  CG         6.5070    8.5400   17.0320 C.3   284  MET284      0.0598
    169  SD         6.5860   10.3080   16.6200 S.3   284  MET284     -0.1393
    170  CE         8.3540   10.6240   16.6930 C.3   284  MET284      0.0692
    171  N          8.7360   10.3220   10.8820 N.3   287  PRO287     -0.2116
    172  CA         9.6230   11.3730   11.4230 C.3   287  PRO287      0.1372
    173  C         11.0340   10.8970   11.7370 C.2   287  PRO287      0.2244
    174  O         12.0120   11.6020   11.4460 O.2   287  PRO287     -0.2868
    175  CB         8.9280   11.8190   12.7160 C.3   287  PRO287      0.0268
    176  CG         7.5310   11.3480   12.6260 C.3   287  PRO287      0.0207
    177  CD         7.4340   10.2740   11.5800 C.3   287  PRO287      0.0892
@<TRIPOS>BOND
     1   138   139    1
     2   145   147   ar
     3   145   143   ar
     4   147   146   ar
     5   171   172    1
     6   171   177    1
     7   162   160   ar
     8   143   142    1
     9   143   144   ar
    10   142   139    1
    11   172   173    1
    12   172   175    1
    13   174   173    2
    14   139   140    1
    15   177   176    1
    16   140   141    2
    17   160   159    1
    18   160   161   ar
    19   146   144   ar
    20   159   156    1
    21   148   154    1
    22   148   149    1
    23   135   134    2
    24   134   133    1
    25   154   153    1
    26   158   157    2
    27   176   175    1
    28    27    26    2
    29    21    20    2
    30   155   156    1
    31   155   150   am
    32   149   150    1
    33   149   152    1
    34   156   157    1
    35   157   163   am
    36   166   165    2
    37   165   164    1
    38   133   132    1
    39   133   136    1
    40   150   151    2
    41    26    25    1
    42   153   152    1
    43    20    19    1
    44    20    24   am
    45    25    24    1
    46    25    28    1
    47   163   164    1
    48   164   167    1
    49   136   137    1
    50    19    22    1
    51    19    18    1
    52    22    23    1
    53    13    12    2
    54    28    29    1
    55   167   168    1
    56    18    12   am
    57    12    11    1
    58    29    30    1
    59   169   170    1
    60   169   168    1
    61    61    62   ar
    62    61    59   ar
    63    64    62   ar
    64    64    66   ar
    65    10    11    1
    66    33    34    1
    67    30    31   ar
    68    30    32   ar
    69    62    60   ar
    70    11    14    1
    71    66    65   ar
    72    59    58   ar
    73    36    35    2
    74    14    15    1
    75    35    34    1
    76    35    39   am
    77    34    37    1
    78    60    58   ar
    79    60    63   ar
    80    58    57    1
    81    65    63   ar
    82    39    40    1
    83    40    43    1
    84    40    41    1
    85    16    15   ar
    86    15    17   ar
    87   122   121    1
    88    37    38    1
    89    43    44    1
    90    42    41    2
    91   126   125    2
    92    41    45   am
    93   130   129   ar
    94    57    54    1
    95   120   121    1
    96   120   119    1
    97   129   131   ar
    98   129   128    1
    99   125   124    1
   100   127   128    1
   101   127   124    1
   102    45    46    1
   103    54    53    1
   104    54    55    1
   105   119   118    1
   106   124   123    1
   107    46    47    1
   108    55    67   am
   109    55    56    2
   110    67    68    1
   111   118   115    1
   112   117   116    2
   113     9     8    1
   114   105   104    1
   115    70    69    2
   116    82    83    1
   117    82    81    1
   118   113   111   am
   119   115   116    1
   120   115   114    1
   121     5     2    1
   122     5     6    1
   123    49    47   am
   124    49    50    1
   125    47    48    2
   126     8     7    1
   127     2     1    1
   128     2     3    1
   129    68    69    1
   130    68    71    1
   131    69    76   am
   132    71    72    1
   133    52    51    2
   134     7     6    1
   135    80    81    1
   136    80    77    1
   137   109   108    2
   138    91    89    1
   139   114   108   am
   140   111   112    2
   141   111   110    1
   142   104   103    1
   143    50    51    1
   144   108   107    1
   145    76    77    1
   146     4     3    2
   147    97    96    1
   148    77    78    1
   149   110   107    1
   150    72    73    1
   151    89    88    1
   152   103   102    1
   153    96    93    1
   154   107   106    1
   155   102    99    1
   156    90    88    1
   157   101   100    2
   158    73    74    1
   159    78    79    2
   160    93    94    1
   161    93    92    1
   162    95    94    2
   163    88    85    1
   164    99   100    1
   165    99    98    1
   166    87    86    2
   167    74    75    1
   168    86    85    1
   169    85    84    1
