@<TRIPOS>MOLECULE
tmp/5jc3A00.pdb
 129 122 0 0 0
SMALL
GASTEIGER

@<TRIPOS>ATOM
      1  N        -25.7850 -134.3090 -165.3250 N.3     4  THR4       -0.1203
      2  CA       -26.2160 -134.7550 -163.9970 C.3     4  THR4        0.1994
      3  C        -25.9750 -136.2510 -163.8230 C.2     4  THR4        0.2618
      4  O        -25.8080 -136.9840 -164.8010 O.2     4  THR4       -0.2717
      5  CB       -27.7130 -134.4750 -163.7620 C.3     4  THR4        0.1784
      6  OG1      -28.4840 -135.0680 -164.8120 O.3     4  THR4       -0.2211
      7  CG2      -27.9830 -132.9720 -163.7080 C.3     4  THR4        0.0376
      8  N        -25.9520 -136.6830 -162.5640 N.am    5  LEU5       -0.1965
      9  CA       -25.8410 -138.0940 -162.2120 C.3     5  LEU5        0.1728
     10  C        -27.1240 -138.5810 -161.5530 C.2     5  LEU5        0.2616
     11  O        -27.8540 -137.8060 -160.9310 O.2     5  LEU5       -0.2715
     12  CB       -24.6700 -138.3170 -161.2500 C.3     5  LEU5        0.0311
     13  CG       -23.2600 -138.0060 -161.7580 C.3     5  LEU5        0.0022
     14  CD1      -22.2490 -138.1940 -160.6370 C.3     5  LEU5        0.0001
     15  CD2      -22.8840 -138.8640 -162.9590 C.3     5  LEU5        0.0001
     16  N        -27.3680 -139.8820 -161.6830 N.am    6  ARG6       -0.1977
     17  CA       -28.4100 -140.5730 -160.9300 C.3     6  ARG6        0.1597
     18  C        -27.9010 -140.7780 -159.5030 C.2     6  ARG6        0.2287
     19  O        -26.7000 -140.6460 -159.2440 O.2     6  ARG6       -0.2864
     20  CB       -28.7390 -141.9200 -161.5810 C.3     6  ARG6        0.0334
     21  CG       -29.2690 -141.8170 -163.0070 C.3     6  ARG6        0.0492
     22  CD       -28.9330 -143.0570 -163.8260 C.3     6  ARG6        0.2205
     23  NE       -29.4320 -142.9640 -165.2000 N.pl3   6  ARG6       -0.0865
     24  CZ       -29.1200 -143.8000 -166.1940 C.cat   6  ARG6        0.5346
     25  NH1      -28.2900 -144.8270 -166.0030 N.pl3   6  ARG6        0.1354
     26  NH2      -29.6420 -143.6060 -167.4030 N.pl3   6  ARG6        0.1354
     27  N        -25.2790 -143.3970 -159.1230 N.3     9  GLN9       -0.1245
     28  CA       -24.0490 -142.8820 -159.7360 C.3     9  GLN9        0.1566
     29  C        -23.3320 -141.8880 -158.8270 C.2     9  GLN9        0.2260
     30  O        -22.1050 -141.9240 -158.7180 O.2     9  GLN9       -0.2867
     31  CB       -24.3490 -142.2140 -161.0780 C.3     9  GLN9        0.0367
     32  CG       -24.8120 -143.1650 -162.1650 C.3     9  GLN9        0.0905
     33  CD       -25.1080 -142.4600 -163.4780 C.2     9  GLN9        0.2608
     34  OE1      -25.6750 -141.3710 -163.4910 O.2     9  GLN9       -0.2717
     35  NE2      -24.7480 -143.0920 -164.5960 N.am    9  GLN9       -0.0878
     36  N        -22.6790 -153.4290 -166.1290 N.3    28  THR28      -0.1203
     37  CA       -22.8530 -153.0420 -167.5290 C.3    28  THR28       0.1994
     38  C        -24.2360 -152.4100 -167.7070 C.2    28  THR28       0.2618
     39  O        -25.2250 -152.9230 -167.1840 O.2    28  THR28      -0.2717
     40  CB       -22.7010 -154.2540 -168.4770 C.3    28  THR28       0.1784
     41  OG1      -21.5680 -155.0320 -168.0760 O.3    28  THR28      -0.2211
     42  CG2      -22.5050 -153.8010 -169.9260 C.3    28  THR28       0.0376
     43  N        -24.2830 -151.2990 -168.4410 N.am   29  GLY29      -0.1942
     44  CA       -25.4920 -150.4800 -168.5930 C.3    29  GLY29       0.2014
     45  C        -25.7590 -149.4450 -167.5020 C.2    29  GLY29       0.2640
     46  O        -26.8000 -148.7870 -167.5280 O.2    29  GLY29      -0.2714
     47  N        -24.8230 -149.2720 -166.5650 N.am   30  SER30      -0.1935
     48  CA       -24.9950 -148.3490 -165.4260 C.3    30  SER30       0.2055
     49  C        -24.5740 -146.9070 -165.7110 C.2    30  SER30       0.2644
     50  O        -24.9050 -146.0060 -164.9360 O.2    30  SER30      -0.2714
     51  CB       -24.1850 -148.8390 -164.2270 C.3    30  SER30       0.2130
     52  OG       -24.5460 -150.1580 -163.8690 O.3    30  SER30      -0.2179
     53  N        -23.8380 -146.6920 -166.8000 N.am   31  GLY31      -0.1939
     54  CA       -23.3250 -145.3710 -167.1460 C.3    31  GLY31       0.2014
     55  C        -22.0650 -145.0200 -166.3810 C.2    31  GLY31       0.2639
     56  O        -21.9830 -143.9500 -165.7860 O.2    31  GLY31      -0.2714
     57  N        -21.0830 -145.9200 -166.4060 N.am   32  LYS32      -0.1963
     58  CA       -19.7930 -145.6800 -165.7510 C.3    32  LYS32       0.1728
     59  C        -19.0190 -144.5320 -166.4070 C.2    32  LYS32       0.2617
     60  O        -18.3720 -143.7470 -165.7130 O.2    32  LYS32      -0.2715
     61  CB       -18.9380 -146.9610 -165.6930 C.3    32  LYS32       0.0311
     62  CG       -18.3820 -147.4600 -167.0270 C.3    32  LYS32       0.0038
     63  CD       -17.6310 -148.7830 -166.8870 C.3    32  LYS32       0.0206
     64  CE       -18.4950 -150.0020 -167.1960 C.3    32  LYS32       0.1093
     65  NZ       -19.6040 -150.2250 -166.2260 N.3    32  LYS32      -0.1314
     66  N        -19.1050 -144.4210 -167.7330 N.am   33  THR33      -0.1937
     67  CA       -18.4040 -143.3580 -168.4670 C.3    33  THR33       0.2028
     68  C        -19.0340 -141.9800 -168.2430 C.2    33  THR33       0.2642
     69  O        -18.3180 -140.9770 -168.2370 O.2    33  THR33      -0.2714
     70  CB       -18.3030 -143.6600 -169.9780 C.3    33  THR33       0.1808
     71  OG1      -19.6010 -143.9830 -170.4940 O.3    33  THR33      -0.2208
     72  CG2      -17.3490 -144.8310 -170.2260 C.3    33  THR33       0.0379
     73  N        -20.3550 -141.9320 -168.0430 N.am   34  ARG34      -0.1977
     74  CA       -21.0330 -140.6920 -167.6340 C.3    34  ARG34       0.1597
     75  C        -20.5430 -140.1950 -166.2720 C.2    34  ARG34       0.2287
     76  O        -20.4270 -138.9870 -166.0620 O.2    34  ARG34      -0.2864
     77  CB       -22.5590 -140.8720 -167.6110 C.3    34  ARG34       0.0334
     78  CG       -23.3600 -139.6890 -167.0620 C.3    34  ARG34       0.0492
     79  CD       -23.2020 -138.4260 -167.8980 C.3    34  ARG34       0.2205
     80  NE       -24.0880 -138.4410 -169.0630 N.pl3  34  ARG34      -0.0865
     81  CZ       -25.3760 -138.0810 -169.0600 C.cat  34  ARG34       0.5346
     82  NH1      -25.9800 -137.6520 -167.9470 N.pl3  34  ARG34       0.1354
     83  NH2      -26.0740 -138.1490 -170.1940 N.pl3  34  ARG34       0.1354
     84  N        -15.2970 -143.5040 -179.2790 N.3    68  GLN68      -0.1245
     85  CA       -16.5920 -143.7720 -178.6460 C.3    68  GLN68       0.1566
     86  C        -16.8380 -142.9100 -177.3980 C.2    68  GLN68       0.2260
     87  O        -17.9480 -142.4010 -177.2110 O.2    68  GLN68      -0.2867
     88  CB       -16.7010 -145.2570 -178.2870 C.3    68  GLN68       0.0367
     89  CG       -18.0720 -145.7100 -177.8080 C.3    68  GLN68       0.0905
     90  CD       -18.0650 -147.1470 -177.3310 C.2    68  GLN68       0.2608
     91  OE1      -18.4290 -147.4390 -176.1890 O.2    68  GLN68      -0.2717
     92  NE2      -17.6540 -148.0570 -178.2080 N.am   68  GLN68      -0.0878
     93  N        -19.9970 -140.0210 -177.4560 N.3    72  LYS72      -0.1231
     94  CA       -21.1470 -140.3060 -176.5950 C.3    72  LYS72       0.1693
     95  C        -21.1410 -139.5900 -175.2450 C.2    72  LYS72       0.2591
     96  O        -22.2110 -139.3740 -174.6760 O.2    72  LYS72      -0.2718
     97  CB       -21.3070 -141.8200 -176.3800 C.3    72  LYS72       0.0285
     98  CG       -21.7740 -142.5690 -177.6240 C.3    72  LYS72       0.0035
     99  CD       -22.5690 -143.8250 -177.2870 C.3    72  LYS72       0.0206
    100  CE       -23.3260 -144.3470 -178.5000 C.3    72  LYS72       0.1093
    101  NZ       -24.2600 -145.4510 -178.1440 N.3    72  LYS72      -0.1314
    102  N        -19.9650 -139.2260 -174.7340 N.am   73  GLU73      -0.1979
    103  CA       -19.8540 -138.6620 -173.3830 C.3    73  GLU73       0.1602
    104  C        -19.0140 -137.3850 -173.3030 C.2    73  GLU73       0.2287
    105  O        -19.5300 -136.3310 -172.9380 O.2    73  GLU73      -0.2864
    106  CB       -19.2850 -139.7140 -172.4200 C.3    73  GLU73       0.0415
    107  CG       -20.0800 -141.0140 -172.3330 C.3    73  GLU73       0.1163
    108  CD       -21.5070 -140.8320 -171.8340 C.2    73  GLU73       0.3649
    109  OE1      -21.7550 -139.9460 -170.9850 O.co2  73  GLU73      -0.2457
    110  OE2      -22.3870 -141.5940 -172.2890 O.co2  73  GLU73      -0.2457
    111  N        -19.2590 -150.9490 -178.0620 N.3   465  ASP465     -0.1239
    112  CA       -20.6730 -150.6260 -177.9380 C.3   465  ASP465      0.1674
    113  C        -21.4370 -151.4920 -178.9310 C.2   465  ASP465      0.2266
    114  O        -21.2530 -151.3590 -180.1420 O.2   465  ASP465     -0.2867
    115  CB       -20.8950 -149.1370 -178.2300 C.3   465  ASP465      0.1410
    116  CG       -22.2850 -148.6490 -177.8580 C.2   465  ASP465      0.3668
    117  OD1      -23.1730 -149.4640 -177.5150 O.co2 465  ASP465     -0.2456
    118  OD2      -22.4840 -147.4150 -177.9040 O.co2 465  ASP465     -0.2456
    119  N        -29.3390 -157.4070 -172.3600 N.3   492  ARG492     -0.1245
    120  CA       -30.0220 -156.4220 -171.5070 C.3   492  ARG492      0.1563
    121  C        -31.1970 -155.7200 -172.2080 C.2   492  ARG492      0.2260
    122  O        -31.4850 -154.5520 -171.9350 O.2   492  ARG492     -0.2867
    123  CB       -29.0060 -155.4050 -170.9660 C.3   492  ARG492      0.0307
    124  CG       -28.1370 -154.7740 -172.0400 C.3   492  ARG492      0.0489
    125  CD       -27.4730 -153.4970 -171.5540 C.3   492  ARG492      0.2205
    126  NE       -26.5370 -152.9760 -172.5520 N.pl3 492  ARG492     -0.0865
    127  CZ       -26.0990 -151.7160 -172.6230 C.cat 492  ARG492      0.5346
    128  NH1      -26.4990 -150.7830 -171.7560 N.pl3 492  ARG492      0.1354
    129  NH2      -25.2450 -151.3810 -173.5900 N.pl3 492  ARG492      0.1354
@<TRIPOS>BOND
     1   114   113    2
     2    84    85    1
     3   113   112    1
     4    85    88    1
     5    85    86    1
     6   100   101    1
     7   100    99    1
     8    88    89    1
     9   115   112    1
    10   115   116    1
    11    92    90   am
    12   111   112    1
    13   118   116   ar
    14   116   117   ar
    15    89    90    1
    16    98    99    1
    17    98    97    1
    18    93    94    1
    19    86    87    2
    20    90    91    2
    21    94    97    1
    22    94    95    1
    23    95   102   am
    24    95    96    2
    25   102   103    1
    26   129   127    1
    27   103   104    1
    28   103   106    1
    29   104   105    2
    30   127   126    2
    31   127   128    1
    32   126   125    1
    33   106   107    1
    34   119   120    1
    35   107   108    1
    36   110   108   ar
    37   121   122    2
    38   121   120    1
    39   124   125    1
    40   124   123    1
    41   108   109   ar
    42   120   123    1
    43    71    70    1
    44    72    70    1
    45    83    81    1
    46    70    67    1
    47    42    40    1
    48    80    81    2
    49    80    79    1
    50    81    82    1
    51    44    43    1
    52    44    45    1
    53    40    41    1
    54    40    37    1
    55    67    68    1
    56    67    66    1
    57    43    38   am
    58    68    69    2
    59    68    73   am
    60    73    74    1
    61    79    78    1
    62    66    59   am
    63    38    37    1
    64    38    39    2
    65    74    77    1
    66    74    75    1
    67    77    78    1
    68    37    36    1
    69    46    45    2
    70    45    47   am
    71    26    24    1
    72    64    63    1
    73    64    65    1
    74    54    53    1
    75    54    55    1
    76    62    63    1
    77    62    61    1
    78    53    49   am
    79    47    48    1
    80    59    58    1
    81    59    60    2
    82    57    55   am
    83    57    58    1
    84    55    56    2
    85    75    76    2
    86    24    25    1
    87    24    23    2
    88    58    61    1
    89    49    48    1
    90    49    50    2
    91    48    51    1
    92     1     2    1
    93    23    22    1
    94     6     5    1
    95     4     3    2
    96    35    33   am
    97    51    52    1
    98     2     3    1
    99     2     5    1
   100    22    21    1
   101     3     8   am
   102     5     7    1
   103    34    33    2
   104    33    32    1
   105    21    20    1
   106    15    13    1
   107     8     9    1
   108     9    10    1
   109     9    12    1
   110    32    31    1
   111    13    12    1
   112    13    14    1
   113    16    10   am
   114    16    17    1
   115    20    17    1
   116    10    11    2
   117    31    28    1
   118    17    18    1
   119    28    27    1
   120    28    29    1
   121    18    19    2
   122    29    30    2
