@<TRIPOS>MOLECULE
tmp/5jcaA01.pdb
 205 197 0 0 0
SMALL
GASTEIGER

@<TRIPOS>ATOM
      1  N        -66.5040   44.4690   15.4880 N.3   101  PRO101     -0.2116
      2  CA       -65.5950   43.3580   15.7830 C.3   101  PRO101      0.1372
      3  C        -66.4320   42.2170   16.3540 C.2   101  PRO101      0.2244
      4  O        -66.5420   42.0020   17.5650 O.2   101  PRO101     -0.2868
      5  CB       -64.6530   43.9660   16.8200 C.3   101  PRO101      0.0268
      6  CG       -65.4540   44.9400   17.5100 C.3   101  PRO101      0.0207
      7  CD       -66.4340   45.5390   16.5090 C.3   101  PRO101      0.0892
      8  N        -65.7220   59.5290   11.2430 N.3   191  VAL191     -0.1245
      9  CA       -64.7770   58.4850   10.8730 C.3   191  VAL191      0.1561
     10  C        -65.2900   57.6800    9.6900 C.2   191  VAL191      0.2260
     11  O        -64.4930   57.1410    8.9080 O.2   191  VAL191     -0.2867
     12  CB       -64.4830   57.5820   12.0760 C.3   191  VAL191      0.0252
     13  CG1      -63.6660   56.3480   11.6720 C.3   191  VAL191      0.0019
     14  CG2      -63.7160   58.3700   13.1500 C.3   191  VAL191      0.0019
     15  N        -52.8260   60.7190   18.8710 N.3   252  ARG252     -0.1245
     16  CA       -51.8380   60.5440   19.9200 C.3   252  ARG252      0.1563
     17  C        -50.4650   60.4840   19.2510 C.2   252  ARG252      0.2260
     18  O        -50.2710   59.7310   18.2950 O.2   252  ARG252     -0.2867
     19  CB       -52.1190   59.2460   20.6790 C.3   252  ARG252      0.0307
     20  CG       -53.4080   59.2390   21.4860 C.3   252  ARG252      0.0489
     21  CD       -53.6770   57.8520   22.1290 C.3   252  ARG252      0.2205
     22  NE       -52.9770   57.6290   23.3950 N.pl3 252  ARG252     -0.0865
     23  CZ       -51.8660   56.9000   23.5580 C.cat 252  ARG252      0.5346
     24  NH1      -51.2640   56.2970   22.5290 N.pl3 252  ARG252      0.1354
     25  NH2      -51.3410   56.7710   24.7770 N.pl3 252  ARG252      0.1354
     26  N        -46.4230   60.2200   20.2330 N.3   254  TYR254     -0.1241
     27  CA       -45.3940   59.9430   21.2110 C.3   254  TYR254      0.1605
     28  C        -44.1490   60.7330   20.8390 C.2   254  TYR254      0.2264
     29  O        -43.8610   60.9070   19.6520 O.2   254  TYR254     -0.2867
     30  CB       -45.0760   58.4520   21.1950 C.3   254  TYR254      0.0534
     31  CG       -44.1500   58.0260   22.2830 C.ar  254  TYR254     -0.0201
     32  CD1      -44.6440   57.5830   23.5000 C.ar  254  TYR254     -0.0009
     33  CD2      -42.7840   58.0860   22.1060 C.ar  254  TYR254     -0.0009
     34  CE1      -43.7950   57.1940   24.5130 C.ar  254  TYR254      0.0417
     35  CE2      -41.9240   57.7050   23.1130 C.ar  254  TYR254      0.0417
     36  CZ       -42.4350   57.2610   24.3150 C.ar  254  TYR254      0.1957
     37  OH       -41.5810   56.8820   25.3240 O.3   254  TYR254     -0.2866
     38  N        -41.1470   60.6230   19.9590 N.3   256  TRP256     -0.1241
     39  CA       -39.9860   59.9820   19.3610 C.3   256  TRP256      0.1605
     40  C        -39.1160   61.0400   18.6950 C.2   256  TRP256      0.2264
     41  O        -39.6240   61.8590   17.9220 O.2   256  TRP256     -0.2867
     42  CB       -40.3880   58.9900   18.2770 C.3   256  TRP256      0.0550
     43  CG       -41.2110   57.8280   18.7040 C.ar  256  TRP256      0.0003
     44  CD1      -40.8260   56.7890   19.4900 C.ar  256  TRP256      0.0946
     45  CD2      -42.5670   57.5590   18.3160 C.ar  256  TRP256      0.0152
     46  NE1      -41.8580   55.8900   19.6260 N.ar  256  TRP256     -0.2442
     47  CE2      -42.9370   56.3410   18.9160 C.ar  256  TRP256      0.0810
     48  CE3      -43.4970   58.2320   17.5190 C.ar  256  TRP256      0.0012
     49  CZ2      -44.2090   55.7820   18.7480 C.ar  256  TRP256      0.0191
     50  CZ3      -44.7570   57.6820   17.3610 C.ar  256  TRP256      0.0001
     51  CH2      -45.0950   56.4670   17.9630 C.ar  256  TRP256      0.0015
     52  N        -47.0870   52.0500   12.3720 N.3   298  ILE298     -0.1231
     53  CA       -46.8380   51.7960   13.7890 C.3   298  ILE298      0.1692
     54  C        -48.1870   51.5920   14.4710 C.2   298  ILE298      0.2593
     55  O        -48.9850   52.5320   14.5790 O.2   298  ILE298     -0.2718
     56  CB       -46.0960   52.9670   14.4520 C.3   298  ILE298      0.0266
     57  CG1      -44.8260   53.3670   13.6770 C.3   298  ILE298      0.0019
     58  CG2      -45.7960   52.6460   15.9150 C.3   298  ILE298      0.0020
     59  CD1      -43.8920   52.2740   13.3900 C.3   298  ILE298      0.0001
     60  N        -48.4390   50.3730   14.9540 N.am  299  GLY299     -0.1942
     61  CA       -49.6380   50.0570   15.7020 C.3   299  GLY299      0.2014
     62  C        -50.2750   48.7710   15.2280 C.2   299  GLY299      0.2639
     63  O        -49.8120   48.1170   14.2950 O.2   299  GLY299     -0.2714
     64  N        -51.3860   48.4110   15.8950 N.am  300  GLY300     -0.1939
     65  CA       -51.9920   47.1100   15.6480 C.3   300  GLY300      0.2014
     66  C        -53.5050   47.0850   15.6640 C.2   300  GLY300      0.2639
     67  O        -54.1230   46.0190   15.7130 O.2   300  GLY300     -0.2714
     68  N        -54.1200   48.2570   15.6010 N.am  301  GLY301     -0.1939
     69  CA       -55.5570   48.3610   15.5870 C.3   301  GLY301      0.2014
     70  C        -56.1170   48.5480   14.1930 C.2   301  GLY301      0.2639
     71  O        -55.4210   48.4120   13.1820 O.2   301  GLY301     -0.2714
     72  N        -57.4160   48.8350   14.1480 N.am  302  ASN302     -0.1958
     73  CA       -58.0720   49.0240   12.8550 C.3   302  ASN302      0.1819
     74  C        -57.4510   50.1760   12.0880 C.2   302  ASN302      0.2622
     75  O        -57.3190   50.1050   10.8660 O.2   302  ASN302     -0.2715
     76  CB       -59.5830   49.2090   13.0060 C.3   302  ASN302      0.1195
     77  CG       -60.2740   47.9010   13.3270 C.2   302  ASN302      0.2630
     78  OD1      -60.0660   46.9060   12.6550 O.2   302  ASN302     -0.2716
     79  ND2      -61.0790   47.8930   14.3890 N.am  302  ASN302     -0.0877
     80  N        -57.0910   51.2550   12.7840 N.am  303  THR303     -0.1937
     81  CA       -56.4860   52.4010   12.1100 C.3   303  THR303      0.2028
     82  C        -55.2040   51.9830   11.4120 C.2   303  THR303      0.2642
     83  O        -54.9840   52.3090   10.2350 O.2   303  THR303     -0.2714
     84  CB       -56.2350   53.5290   13.1140 C.3   303  THR303      0.1808
     85  OG1      -57.4870   53.9530   13.6730 O.3   303  THR303     -0.2208
     86  CG2      -55.6290   54.7200   12.4230 C.3   303  THR303      0.0379
     87  N        -54.3620   51.2140   12.1120 N.am  304  ALA304     -0.1977
     88  CA       -53.1330   50.7270   11.5160 C.3   304  ALA304      0.1597
     89  C        -53.4210   49.8720   10.2910 C.2   304  ALA304      0.2287
     90  O        -52.7540   50.0130    9.2550 O.2   304  ALA304     -0.2864
     91  CB       -52.3320   49.9410   12.5550 C.3   304  ALA304      0.0319
     92  N        -45.5840   46.2820   15.2480 N.3   322  TYR322     -0.1227
     93  CA       -46.4900   46.2350   16.3760 C.3   322  TYR322      0.1736
     94  C        -45.7440   45.7260   17.5980 C.2   322  TYR322      0.2595
     95  O        -44.9310   44.8020   17.5040 O.2   322  TYR322     -0.2718
     96  CB       -47.6870   45.3350   16.0480 C.3   322  TYR322      0.0548
     97  CG       -48.6220   45.1420   17.2020 C.ar  322  TYR322     -0.0200
     98  CD1      -49.1530   46.2200   17.8940 C.ar  322  TYR322     -0.0009
     99  CD2      -48.9690   43.8670   17.6060 C.ar  322  TYR322     -0.0009
    100  CE1      -50.0210   46.0260   18.9570 C.ar  322  TYR322      0.0417
    101  CE2      -49.8210   43.6670   18.6500 C.ar  322  TYR322      0.0417
    102  CZ       -50.3280   44.7350   19.3300 C.ar  322  TYR322      0.1957
    103  OH       -51.1680   44.4880   20.3810 O.3   322  TYR322     -0.2866
    104  N        -46.0370   46.3290   18.7460 N.am  323  ARG323     -0.1966
    105  CA       -45.2310   46.0720   19.9300 C.3   323  ARG323      0.1729
    106  C        -45.6070   44.7900   20.6780 C.2   323  ARG323      0.2616
    107  O        -44.8480   44.3720   21.5560 O.2   323  ARG323     -0.2715
    108  CB       -45.2980   47.2900   20.8390 C.3   323  ARG323      0.0348
    109  CG       -46.6420   47.5290   21.4360 C.3   323  ARG323      0.0492
    110  CD       -46.5950   48.7400   22.3030 C.3   323  ARG323      0.2205
    111  NE       -47.8890   48.9930   22.9110 N.pl3 323  ARG323     -0.0865
    112  CZ       -48.1480   50.0220   23.7070 C.cat 323  ARG323      0.5346
    113  NH1      -47.1960   50.9020   23.9930 N.pl3 323  ARG323      0.1354
    114  NH2      -49.3610   50.1690   24.2190 N.pl3 323  ARG323      0.1354
    115  N        -46.7330   44.1440   20.3740 N.am  324  ARG324     -0.1977
    116  CA       -47.0310   42.8370   20.9500 C.3   324  ARG324      0.1597
    117  C        -46.9790   41.7770   19.8480 C.2   324  ARG324      0.2287
    118  O        -46.1980   41.9230   18.8900 O.2   324  ARG324     -0.2864
    119  CB       -48.3470   42.8920   21.7110 C.3   324  ARG324      0.0334
    120  CG       -48.4680   44.0950   22.6040 C.3   324  ARG324      0.0492
    121  CD       -49.5870   43.9030   23.5880 C.3   324  ARG324      0.2205
    122  NE       -50.0160   45.1640   24.1800 N.pl3 324  ARG324     -0.0865
    123  CZ       -50.6190   45.2850   25.3570 C.cat 324  ARG324      0.5346
    124  NH1      -50.8600   44.2110   26.1030 N.pl3 324  ARG324      0.1354
    125  NH2      -50.9680   46.4880   25.7930 N.pl3 324  ARG324      0.1354
    126  N        -55.6140   44.4590   18.1020 N.3   330  THR330     -0.1218
    127  CA       -56.9910   44.8600   18.3470 C.3   330  THR330      0.1862
    128  C        -57.8120   45.1020   17.0850 C.2   330  THR330      0.2287
    129  O        -59.0360   45.2670   17.1880 O.2   330  THR330     -0.2866
    130  CB       -57.0530   46.1010   19.2350 C.3   330  THR330      0.1770
    131  OG1      -56.2660   47.1580   18.6720 O.3   330  THR330     -0.2211
    132  CG2      -56.5300   45.7740   20.6300 C.3   330  THR330      0.0375
    133  N        -41.0210   48.2780   18.9460 N.3   351  THR351     -0.1218
    134  CA       -41.5620   49.6160   19.1130 C.3   351  THR351      0.1862
    135  C        -40.5050   50.6340   18.6970 C.2   351  THR351      0.2287
    136  O        -39.3110   50.3960   18.8900 O.2   351  THR351     -0.2866
    137  CB       -41.9980   49.8270   20.5740 C.3   351  THR351      0.1770
    138  OG1      -43.0140   50.8350   20.6380 O.3   351  THR351     -0.2211
    139  CG2      -40.8150   50.1990   21.4780 C.3   351  THR351      0.0375
    140  N        -54.3780   41.2050   28.2340 N.3   381  ARG381     -0.1245
    141  CA       -53.3930   40.8040   27.2410 C.3   381  ARG381      0.1563
    142  C        -51.9940   40.9460   27.8270 C.2   381  ARG381      0.2260
    143  O        -51.7260   41.8650   28.6110 O.2   381  ARG381     -0.2867
    144  CB       -53.5210   41.6810   25.9850 C.3   381  ARG381      0.0307
    145  CG       -54.9190   41.6620   25.3550 C.3   381  ARG381      0.0489
    146  CD       -54.9820   42.6270   24.1790 C.3   381  ARG381      0.2205
    147  NE       -54.7680   44.0050   24.6150 N.pl3 381  ARG381     -0.0865
    148  CZ       -54.2030   44.9530   23.8720 C.cat 381  ARG381      0.5346
    149  NH1      -53.7640   44.6800   22.6470 N.pl3 381  ARG381      0.1354
    150  NH2      -54.0520   46.1740   24.3690 N.pl3 381  ARG381      0.1354
    151  N        -50.0430   55.0820   14.0150 N.3   401  ALA401     -0.1231
    152  CA       -51.4120   54.6380   14.2980 C.3   401  ALA401      0.1694
    153  C        -51.5140   54.0910   15.7170 C.2   401  ALA401      0.2592
    154  O        -51.9490   52.9560   15.9350 O.2   401  ALA401     -0.2718
    155  CB       -51.8890   53.6190   13.2820 C.3   401  ALA401      0.0304
    156  N        -51.1660   54.9350   16.6860 N.am  402  ILE402     -0.1966
    157  CA       -51.1340   54.5480   18.0890 C.3   402  ILE402      0.1727
    158  C        -52.3090   55.1290   18.8700 C.2   402  ILE402      0.2617
    159  O        -52.2330   55.2720   20.1030 O.2   402  ILE402     -0.2715
    160  CB       -49.7840   54.8380   18.7680 C.3   402  ILE402      0.0290
    161  CG1      -49.4830   56.3280   18.8310 C.3   402  ILE402      0.0022
    162  CG2      -48.6730   54.0820   18.0470 C.3   402  ILE402      0.0023
    163  CD1      -48.4010   56.6430   19.8640 C.3   402  ILE402      0.0001
    164  N        -53.3820   55.4540   18.1770 N.am  403  GLY403     -0.1940
    165  CA       -54.6000   55.8570   18.8390 C.3   403  GLY403      0.2014
    166  C        -54.9130   57.3290   18.6220 C.2   403  GLY403      0.2638
    167  O        -54.0640   58.1340   18.2280 O.2   403  GLY403     -0.2714
    168  N        -56.1600   57.6740   18.9400 N.am  404  GLN404     -0.1977
    169  CA       -56.6930   59.0230   18.8430 C.3   404  GLN404      0.1601
    170  C        -57.4090   59.3650   20.1580 C.2   404  GLN404      0.2287
    171  O        -57.7710   58.4740   20.9430 O.2   404  GLN404     -0.2864
    172  CB       -57.6430   59.1430   17.6330 C.3   404  GLN404      0.0394
    173  CG       -56.9820   59.1150   16.2210 C.3   404  GLN404      0.0908
    174  CD       -56.5850   57.7370   15.6450 C.2   404  GLN404      0.2608
    175  OE1      -55.5170   57.5980   15.0200 O.2   404  GLN404     -0.2717
    176  NE2      -57.4560   56.7310   15.7970 N.am  404  GLN404     -0.0878
    177  N        -67.7010   58.4800   20.9430 N.3   443  ASP443     -0.1239
    178  CA       -66.2910   58.5560   21.3290 C.3   443  ASP443      0.1674
    179  C        -66.0290   59.7730   22.2160 C.2   443  ASP443      0.2266
    180  O        -65.0800   59.7680   23.0130 O.2   443  ASP443     -0.2867
    181  CB       -65.3730   58.6080   20.1060 C.3   443  ASP443      0.1410
    182  CG       -65.1590   57.2810   19.4080 C.2   443  ASP443      0.3668
    183  OD1      -65.7920   56.2620   19.7300 O.co2 443  ASP443     -0.2456
    184  OD2      -64.3380   57.2940   18.4480 O.co2 443  ASP443     -0.2456
    185  N        -61.9800   56.4620   22.0960 N.3   448  GLU448     -0.1231
    186  CA       -62.2010   55.6710   20.8990 C.3   448  GLU448      0.1699
    187  C        -62.8560   54.3490   21.2560 C.2   448  GLU448      0.2592
    188  O        -62.3410   53.5670   22.0630 O.2   448  GLU448     -0.2718
    189  CB       -60.8720   55.3900   20.2250 C.3   448  GLU448      0.0402
    190  CG       -60.2960   56.5800   19.5880 C.3   448  GLU448      0.1161
    191  CD       -59.2470   56.1880   18.5930 C.2   448  GLU448      0.3649
    192  OE1      -58.1790   55.7340   19.0600 O.co2 448  GLU448     -0.2457
    193  OE2      -59.5130   56.3010   17.3710 O.co2 448  GLU448     -0.2457
    194  N        -63.9820   54.0720   20.6020 N.am  449  ALA449     -0.1966
    195  CA       -64.7430   52.8610   20.8830 C.3   449  ALA449      0.1728
    196  C        -65.1770   52.2170   19.5760 C.2   449  ALA449      0.2616
    197  O        -64.3090   51.8480   18.7600 O.2   449  ALA449     -0.2715
    198  CB       -65.8820   53.1630   21.8510 C.3   449  ALA449      0.0334
    199  N        -66.4890   52.0480   19.3620 N.am  450  THR450     -0.1951
    200  CA       -67.0020   51.4110   18.1520 C.3   450  THR450      0.1897
    201  C        -68.1500   52.2190   17.5640 C.2   450  THR450      0.2313
    202  O        -68.8290   53.0090   18.2420 O.2   450  THR450     -0.2863
    203  CB       -67.5390   50.0120   18.4420 C.3   450  THR450      0.1794
    204  OG1      -68.5380   50.1480   19.4540 O.3   450  THR450     -0.2208
    205  CG2      -66.4170   49.0590   18.9060 C.3   450  THR450      0.0378
@<TRIPOS>BOND
     1    11    10    2
     2    90    89    2
     3    10     9    1
     4    83    82    2
     5    89    88    1
     6    75    74    2
     7     9     8    1
     8     9    12    1
     9    82    81    1
    10    82    87   am
    11    88    87    1
    12    88    91    1
    13    13    12    1
    14    12    14    1
    15    74    80   am
    16    74    73    1
    17    81    80    1
    18    81    84    1
    19    52    53    1
    20    86    84    1
    21    78    77    2
    22    73    76    1
    23    73    72    1
    24    76    77    1
    25    84    85    1
    26    71    70    2
    27   155   152    1
    28    77    79   am
    29    59    57    1
    30    57    56    1
    31    53    56    1
    32    53    54    1
    33   151   152    1
    34    72    70   am
    35    70    69    1
    36    63    62    2
    37   152   153    1
    38    56    58    1
    39    54    55    2
    40    54    60   am
    41    60    61    1
    42   175   174    2
    43    62    61    1
    44    62    64   am
    45    92    93    1
    46     1     2    1
    47     1     7    1
    48    69    68    1
    49    68    66   am
    50   174   176   am
    51   174   173    1
    52    65    66    1
    53    65    64    1
    54    66    67    2
    55   153   154    2
    56   153   156   am
    57     2     3    1
    58     2     5    1
    59    96    93    1
    60    96    97    1
    61   173   172    1
    62     3     4    2
    63    93    94    1
    64     7     6    1
    65   156   157    1
    66     5     6    1
    67   128   129    2
    68   128   127    1
    69    97    99   ar
    70    97    98   ar
    71    50    48   ar
    72    50    51   ar
    73   193   191   ar
    74    95    94    2
    75    48    45   ar
    76   201   200    1
    77   201   202    2
    78    94   104   am
    79    99   101   ar
    80   172   169    1
    81    98   100   ar
    82    41    40    2
    83    51    49   ar
    84   162   160    1
    85   157   160    1
    86   157   158    1
    87   126   127    1
    88   200   203    1
    89   200   199    1
    90   164   165    1
    91   164   158   am
    92   167   166    2
    93    42    43    1
    94    42    39    1
    95    18    17    2
    96    45    43   ar
    97    45    47   ar
    98   127   130    1
    99   203   205    1
   100   203   204    1
   101   184   182   ar
   102   191   192   ar
   103   191   190    1
   104   166   165    1
   105   166   168   am
   106   101   102   ar
   107   131   130    1
   108    40    39    1
   109   135   136    2
   110   135   134    1
   111    43    44   ar
   112   104   105    1
   113    49    47   ar
   114   197   196    2
   115   160   161    1
   116   161   163    1
   117   169   168    1
   118   169   170    1
   119   158   159    2
   120    15    16    1
   121   118   117    2
   122    47    46   ar
   123   133   134    1
   124   100   102   ar
   125   134   137    1
   126   130   132    1
   127    17    16    1
   128   102   103    1
   129    39    38    1
   130   199   196   am
   131   182   183   ar
   132   182   181    1
   133    44    46   ar
   134   196   195    1
   135   190   189    1
   136    29    28    2
   137   117   116    1
   138    16    19    1
   139   105   106    1
   140   105   108    1
   141   181   178    1
   142   170   171    2
   143   189   186    1
   144    26    27    1
   145   115   106   am
   146   115   116    1
   147   137   138    1
   148   137   139    1
   149   194   195    1
   150   194   187   am
   151   106   107    2
   152    19    20    1
   153    28    27    1
   154   108   109    1
   155   195   198    1
   156   186   187    1
   157   186   185    1
   158   177   178    1
   159   116   119    1
   160    30    27    1
   161    30    31    1
   162   187   188    2
   163   178   179    1
   164   109   110    1
   165    20    21    1
   166   119   120    1
   167    33    31   ar
   168    33    35   ar
   169    21    22    1
   170   179   180    2
   171    31    32   ar
   172   110   111    1
   173    24    23    1
   174   120   121    1
   175   149   148    1
   176   111   112    2
   177    35    36   ar
   178    22    23    2
   179    32    34   ar
   180    23    25    1
   181   121   122    1
   182   112   113    1
   183   112   114    1
   184   148   150    1
   185   148   147    2
   186   146   147    1
   187   146   145    1
   188   122   123    2
   189    36    34   ar
   190    36    37    1
   191   145   144    1
   192   123   125    1
   193   123   124    1
   194   144   141    1
   195   141   142    1
   196   141   140    1
   197   142   143    2
