@<TRIPOS>MOLECULE
tmp/5jcbD01.pdb
 156 146 0 0 0
SMALL
GASTEIGER

@<TRIPOS>ATOM
      1  N         -9.5560    4.3760   32.7140 N.3   235  GLY235     -0.1210
      2  CA        -9.0710    4.5640   31.3620 C.3   235  GLY235      0.1956
      3  C        -10.1810    4.9020   30.3810 C.2   235  GLY235      0.2611
      4  O        -10.0560    5.8560   29.6040 O.2   235  GLY235     -0.2717
      5  N        -11.2960    4.1520   30.4170 N.am  236  VAL236     -0.1979
      6  CA       -12.3460    4.3970   29.4250 C.3   236  VAL236      0.1595
      7  C        -13.1560    5.6510   29.7220 C.2   236  VAL236      0.2287
      8  O        -13.8460    6.1300   28.8200 O.2   236  VAL236     -0.2864
      9  CB       -13.2990    3.1910   29.2690 C.3   236  VAL236      0.0276
     10  CG1      -12.5290    1.9340   28.9520 C.3   236  VAL236      0.0022
     11  CG2      -14.2110    3.0310   30.4810 C.3   236  VAL236      0.0022
     12  N        -11.6020   10.3820   28.6510 N.3   239  CYS239     -0.1221
     13  CA       -12.0120   11.4140   27.7060 C.3   239  CYS239      0.1808
     14  C        -13.3380   12.0650   28.0790 C.2   239  CYS239      0.2601
     15  O        -13.6500   13.1290   27.5500 O.2   239  CYS239     -0.2717
     16  CB       -12.0960   10.8420   26.2970 C.3   239  CYS239      0.0970
     17  SG       -10.4580   10.6130   25.6200 S.3   239  CYS239     -0.0800
     18  N        -14.1230   11.4560   28.9650 N.am  240  LEU240     -0.1979
     19  CA       -15.3050   12.1290   29.4930 C.3   240  LEU240      0.1596
     20  C        -14.9640   13.1630   30.5690 C.2   240  LEU240      0.2287
     21  O        -15.7290   14.1130   30.7590 O.2   240  LEU240     -0.2864
     22  CB       -16.2740   11.0940   30.0640 C.3   240  LEU240      0.0297
     23  CG       -16.6360    9.9190   29.1590 C.3   240  LEU240      0.0022
     24  CD1      -17.3350    8.8330   29.9760 C.3   240  LEU240      0.0001
     25  CD2      -17.4940   10.3960   27.9750 C.3   240  LEU240      0.0001
     26  N        -11.6530   16.0860   23.6660 N.3   244  LEU244     -0.1245
     27  CA       -11.8000   15.8500   22.2310 C.3   244  LEU244      0.1561
     28  C        -13.2730   15.8790   21.8340 C.2   244  LEU244      0.2260
     29  O        -13.6100   15.7550   20.6560 O.2   244  LEU244     -0.2867
     30  CB       -11.1690   14.5090   21.8260 C.3   244  LEU244      0.0270
     31  CG       -12.0370   13.4070   21.1950 C.3   244  LEU244      0.0019
     32  CD1      -11.2280   12.6430   20.1490 C.3   244  LEU244      0.0001
     33  CD2      -12.6030   12.4370   22.2540 C.3   244  LEU244      0.0001
     34  N        -15.1500   14.3740   24.4830 N.3   245  ALA245     -0.1231
     35  CA       -15.9390   13.1530   24.3840 C.3   245  ALA245      0.1694
     36  C        -17.1090   13.1740   25.3500 C.2   245  ALA245      0.2592
     37  O        -17.0140   13.7040   26.4570 O.2   245  ALA245     -0.2718
     38  CB       -15.0970   11.9320   24.6500 C.3   245  ALA245      0.0304
     39  N        -18.2060   12.5630   24.9290 N.am  246  ASP246     -0.1974
     40  CA       -19.3440   12.3390   25.8070 C.3   246  ASP246      0.1709
     41  C        -19.9640   11.0020   25.4300 C.2   246  ASP246      0.2293
     42  O        -19.5410   10.3410   24.4730 O.2   246  ASP246     -0.2864
     43  CB       -20.3560   13.4760   25.7150 C.3   246  ASP246      0.1436
     44  CG       -20.9430   13.6100   24.3330 C.2   246  ASP246      0.3671
     45  OD1      -21.6780   12.6940   23.9200 O.co2 246  ASP246     -0.2456
     46  OD2      -20.6660   14.6230   23.6530 O.co2 246  ASP246     -0.2456
     47  N        -21.5450   10.8080   21.6960 N.3   249  LYS249     -0.1231
     48  CA       -20.4970   10.7260   20.6890 C.3   249  LYS249      0.1693
     49  C        -19.7960    9.3710   20.7360 C.2   249  LYS249      0.2591
     50  O        -19.3970    8.8320   19.6930 O.2   249  LYS249     -0.2718
     51  CB       -19.5130   11.8780   20.8850 C.3   249  LYS249      0.0285
     52  CG       -20.0760   13.2080   20.4050 C.3   249  LYS249      0.0035
     53  CD       -19.0140   14.3030   20.3500 C.3   249  LYS249      0.0206
     54  CE       -19.6420   15.6220   19.7810 C.3   249  LYS249      0.1093
     55  NZ       -18.6750   16.7480   19.5020 N.3   249  LYS249     -0.1314
     56  N        -19.6420    8.8000   21.9340 N.am  250  LEU250     -0.1980
     57  CA       -19.0060    7.4910   22.0330 C.3   250  LEU250      0.1596
     58  C        -19.8550    6.4330   21.3430 C.2   250  LEU250      0.2287
     59  O        -19.3410    5.6220   20.5630 O.2   250  LEU250     -0.2864
     60  CB       -18.7640    7.1160   23.4980 C.3   250  LEU250      0.0297
     61  CG       -18.1850    5.7100   23.7460 C.3   250  LEU250      0.0022
     62  CD1      -16.8290    5.5670   23.0690 C.3   250  LEU250      0.0001
     63  CD2      -18.0620    5.3810   25.2490 C.3   250  LEU250      0.0001
     64  N        -19.9600    6.7070   17.4070 N.3   253  ASN253     -0.1225
     65  CA       -18.7860    6.2660   16.6760 C.3   253  ASN253      0.1785
     66  C        -18.4110    4.8150   16.9310 C.2   253  ASN253      0.2597
     67  O        -17.6060    4.2640   16.1810 O.2   253  ASN253     -0.2718
     68  CB       -17.6270    7.2050   16.9930 C.3   253  ASN253      0.1169
     69  CG       -17.7720    8.5590   16.2700 C.2   253  ASN253      0.2627
     70  OD1      -17.4820    8.6540   15.0860 O.2   253  ASN253     -0.2716
     71  ND2      -18.2940    9.5730   16.9650 N.am  253  ASN253     -0.0877
     72  N        -18.9780    4.1670   17.9330 N.am  254  MET254     -0.1979
     73  CA       -18.5930    2.7940   18.2020 C.3   254  MET254      0.1605
     74  C        -19.6450    1.7610   17.8290 C.2   254  MET254      0.2287
     75  O        -19.3190    0.5730   17.7680 O.2   254  MET254     -0.2864
     76  CB       -18.2330    2.6500   19.6800 C.3   254  MET254      0.0413
     77  CG       -17.1180    3.5810   20.0740 C.3   254  MET254      0.0598
     78  SD       -15.5520    2.7950   20.4530 S.3   254  MET254     -0.1393
     79  CE       -15.6040    1.2580   19.5670 C.3   254  MET254      0.0692
     80  N        -14.9800   -1.2160   15.2900 N.3   299  THR299     -0.1203
     81  CA       -14.5480    0.1200   15.6820 C.3   299  THR299      0.1994
     82  C        -13.5850   -0.0090   16.8500 C.2   299  THR299      0.2618
     83  O        -13.6180   -0.9860   17.5980 O.2   299  THR299     -0.2717
     84  CB       -15.7350    1.0130   16.0810 C.3   299  THR299      0.1784
     85  OG1      -16.5280    0.3450   17.0800 O.3   299  THR299     -0.2211
     86  CG2      -16.6050    1.3380   14.8630 C.3   299  THR299      0.0376
     87  N        -12.7220    0.9900   17.0070 N.am  300  VAL300     -0.1965
     88  CA       -11.7540    0.9860   18.0950 C.3   300  VAL300      0.1727
     89  C        -11.5200    2.4270   18.5510 C.2   300  VAL300      0.2616
     90  O        -11.4330    3.3560   17.7410 O.2   300  VAL300     -0.2715
     91  CB       -10.4280    0.2930   17.6780 C.3   300  VAL300      0.0290
     92  CG1       -9.3940    0.4160   18.7930 C.3   300  VAL300      0.0023
     93  CG2      -10.6470   -1.1800   17.3710 C.3   300  VAL300      0.0023
     94  N        -11.4290    2.6060   19.8620 N.am  301  ALA301     -0.1963
     95  CA       -11.0120    3.8610   20.4700 C.3   301  ALA301      0.1728
     96  C         -9.8700    3.5620   21.4290 C.2   301  ALA301      0.2616
     97  O         -9.9310    2.6050   22.2040 O.2   301  ALA301     -0.2715
     98  CB       -12.1560    4.5390   21.2220 C.3   301  ALA301      0.0334
     99  N         -8.8370    4.3880   21.3820 N.am  302  ALA302     -0.1963
    100  CA        -7.6590    4.2240   22.2160 C.3   302  ALA302      0.1728
    101  C         -7.3520    5.5590   22.8800 C.2   302  ALA302      0.2616
    102  O         -7.3890    6.6020   22.2170 O.2   302  ALA302     -0.2715
    103  CB        -6.4690    3.7350   21.3810 C.3   302  ALA302      0.0334
    104  N         -7.0920    5.5290   24.1860 N.am  303  ILE303     -0.1977
    105  CA        -6.6420    6.6940   24.9490 C.3   303  ILE303      0.1596
    106  C         -5.2340    6.4080   25.4300 C.2   303  ILE303      0.2287
    107  O         -5.0070    5.4100   26.1210 O.2   303  ILE303     -0.2864
    108  CB        -7.5340    6.9810   26.1650 C.3   303  ILE303      0.0276
    109  CG1       -8.9730    6.6020   25.8700 C.3   303  ILE303      0.0022
    110  CG2       -7.3580    8.4270   26.6510 C.3   303  ILE303      0.0022
    111  CD1       -9.3560    5.2580   26.4710 C.3   303  ILE303      0.0001
    112  N        -11.5830    4.2560    8.3150 N.3   334  ASN334     -0.1225
    113  CA       -11.0170    5.0790    9.3670 C.3   334  ASN334      0.1785
    114  C        -11.6660    4.7400   10.7040 C.2   334  ASN334      0.2597
    115  O        -12.1700    5.6020   11.4240 O.2   334  ASN334     -0.2718
    116  CB       -11.1870    6.5590    9.0250 C.3   334  ASN334      0.1169
    117  CG       -10.6230    6.8980    7.6590 C.2   334  ASN334      0.2627
    118  OD1      -11.3210    7.4350    6.8110 O.2   334  ASN334     -0.2716
    119  ND2       -9.3490    6.5670    7.4410 N.am  334  ASN334     -0.0877
    120  N        -11.7000    3.4520   11.0130 N.am  335  ASN335     -0.1974
    121  CA       -12.5070    3.0160   12.1370 C.3   335  ASN335      0.1688
    122  C        -11.7210    2.9370   13.4540 C.2   335  ASN335      0.2292
    123  O        -12.2850    2.5050   14.4660 O.2   335  ASN335     -0.2864
    124  CB       -13.2030    1.6850   11.8020 C.3   335  ASN335      0.1181
    125  CG       -12.2460    0.5660   11.4900 C.2   335  ASN335      0.2629
    126  OD1      -11.0790    0.7860   11.1950 O.2   335  ASN335     -0.2716
    127  ND2      -12.7480   -0.6620   11.5590 N.am  335  ASN335     -0.0877
    128  N         -9.8500    5.3700   16.2200 N.3   337  LYS337     -0.1231
    129  CA        -9.6350    6.7370   16.6860 C.3   337  LYS337      0.1693
    130  C         -8.7370    6.7530   17.9210 C.2   337  LYS337      0.2593
    131  O         -8.8240    5.8670   18.7790 O.2   337  LYS337     -0.2718
    132  CB       -10.9680    7.4250   16.9910 C.3   337  LYS337      0.0285
    133  CG       -11.7870    7.7120   15.7430 C.3   337  LYS337      0.0035
    134  CD       -10.9650    8.4340   14.7070 C.3   337  LYS337      0.0206
    135  CE       -11.0950    7.7830   13.3480 C.3   337  LYS337      0.1093
    136  NZ       -12.2830    8.2370   12.6130 N.3   337  LYS337     -0.1314
    137  N         -7.8590    7.7530   17.9950 N.am  338  THR338     -0.1939
    138  CA        -6.8460    7.8300   19.0450 C.3   338  THR338      0.2028
    139  C         -6.9450    9.1680   19.7640 C.2   338  THR338      0.2642
    140  O         -7.0710   10.2180   19.1290 O.2   338  THR338     -0.2714
    141  CB        -5.4360    7.6410   18.4790 C.3   338  THR338      0.1808
    142  OG1       -5.2990    6.3200   17.9400 O.3   338  THR338     -0.2208
    143  CG2       -4.3950    7.8300   19.5690 C.3   338  THR338      0.0379
    144  N         -6.8970    9.1290   21.0850 N.am  339  ALA339     -0.1977
    145  CA        -6.8770   10.3330   21.9010 C.3   339  ALA339      0.1597
    146  C         -5.6470   10.3130   22.8020 C.2   339  ALA339      0.2287
    147  O         -5.1240    9.2470   23.1420 O.2   339  ALA339     -0.2864
    148  CB        -8.1540   10.4550   22.7360 C.3   339  ALA339      0.0319
    149  N        -10.6980    0.4820   23.8150 N.3   355  ILE355     -0.1245
    150  CA       -12.1220    0.1590   23.7270 C.3   355  ILE355      0.1561
    151  C        -12.3620   -0.4040   22.3300 C.2   355  ILE355      0.2260
    152  O        -12.3130    0.3380   21.3410 O.2   355  ILE355     -0.2867
    153  CB       -13.0170    1.3820   23.9630 C.3   355  ILE355      0.0252
    154  CG1      -12.6140    2.1380   25.2390 C.3   355  ILE355      0.0019
    155  CG2      -14.4880    0.9620   23.9930 C.3   355  ILE355      0.0019
    156  CD1      -13.3610    3.4840   25.4300 C.3   355  ILE355      0.0001
@<TRIPOS>BOND
     1   118   117    2
     2   119   117   am
     3   117   116    1
     4   112   113    1
     5   116   113    1
     6   113   114    1
     7   114   120   am
     8   114   115    2
     9   120   121    1
    10   126   125    2
    11   125   127   am
    12   125   124    1
    13   124   121    1
    14   121   122    1
    15   136   135    1
    16   135   134    1
    17   122   123    2
    18   134   133    1
    19    86    84    1
    20    70    69    2
    21    80    81    1
    22    81    84    1
    23    81    82    1
    24   133   132    1
    25    84    85    1
    26    67    66    2
    27   128   129    1
    28    69    71   am
    29    69    68    1
    30    65    66    1
    31    65    68    1
    32    65    64    1
    33   129   132    1
    34   129   130    1
    35    82    87   am
    36    82    83    2
    37    66    72   am
    38    87    88    1
    39    93    91    1
    40    91    88    1
    41    91    92    1
    42    90    89    2
    43    75    74    2
    44    74    73    1
    45   130   137   am
    46   130   131    2
    47    72    73    1
    48   142   141    1
    49   137   138    1
    50    88    89    1
    51    73    76    1
    52   141   138    1
    53   141   143    1
    54    89    94   am
    55   138   139    1
    56   140   139    2
    57    55    54    1
    58    79    78    1
    59    76    77    1
    60    50    49    2
    61   139   144   am
    62    54    53    1
    63    94    95    1
    64    77    78    1
    65    32    31    1
    66    53    52    1
    67    52    51    1
    68    95    98    1
    69    95    96    1
    70    59    58    2
    71    29    28    2
    72    48    49    1
    73    48    51    1
    74    48    47    1
    75    49    56   am
    76   144   145    1
    77    31    30    1
    78    31    33    1
    79   152   151    2
    80    58    57    1
    81   103   100    1
    82    99    96   am
    83    99   100    1
    84    96    97    2
    85    30    27    1
    86    28    27    1
    87   145   148    1
    88   145   146    1
    89    56    57    1
    90    57    60    1
    91   100   101    1
    92   102   101    2
    93    27    26    1
    94   151   150    1
    95   146   147    2
    96   101   104   am
    97    62    61    1
    98    60    61    1
    99    46    44   ar
   100   150   149    1
   101   150   153    1
   102    61    63    1
   103    45    44   ar
   104   153   155    1
   105   153   154    1
   106   104   105    1
   107    44    43    1
   108    35    34    1
   109    35    38    1
   110    35    36    1
   111    42    41    2
   112    39    36   am
   113    39    40    1
   114   105   106    1
   115   105   108    1
   116   154   156    1
   117    36    37    2
   118   106   107    2
   119    41    40    1
   120    17    16    1
   121    43    40    1
   122   109   108    1
   123   109   111    1
   124   108   110    1
   125    16    13    1
   126    15    14    2
   127    13    14    1
   128    13    12    1
   129    25    23    1
   130    14    18   am
   131     8     7    2
   132    10     9    1
   133    18    19    1
   134    23    24    1
   135    23    22    1
   136     9     6    1
   137     9    11    1
   138     6     7    1
   139     6     5    1
   140    19    22    1
   141    19    20    1
   142     4     3    2
   143     3     5   am
   144     3     2    1
   145    20    21    2
   146     2     1    1
