@<TRIPOS>MOLECULE
tmp/5jcjA01.pdb
 141 134 0 0 0
SMALL
GASTEIGER

@<TRIPOS>ATOM
      1  N         15.2420  -14.0050    4.7440 N.3    13  ARG13      -0.1245
      2  CA        13.8590  -14.0150    5.2230 C.3    13  ARG13       0.1563
      3  C         13.1190  -12.7610    4.7470 C.2    13  ARG13       0.2260
      4  O         13.2670  -12.4000    3.5890 O.2    13  ARG13      -0.2867
      5  CB        13.8390  -14.2050    6.7560 C.3    13  ARG13       0.0307
      6  CG        14.1540  -15.6710    7.1180 C.3    13  ARG13       0.0489
      7  CD        14.4180  -15.8770    8.6050 C.3    13  ARG13       0.2205
      8  NE        13.2110  -15.6530    9.4560 N.pl3  13  ARG13      -0.0865
      9  CZ        12.2210  -16.5390    9.6530 C.cat  13  ARG13       0.5346
     10  NH1       12.2500  -17.7260    9.0420 N.pl3  13  ARG13       0.1354
     11  NH2       11.1950  -16.2380   10.5020 N.pl3  13  ARG13       0.1354
     12  N         14.8170   -7.6770   14.0980 N.3    94  SER94      -0.1217
     13  CA        13.9950   -7.8950   15.2620 C.3    94  SER94       0.1889
     14  C         14.6110   -9.0250   16.0390 C.2    94  SER94       0.2288
     15  O         14.9820  -10.0450   15.4340 O.2    94  SER94      -0.2866
     16  CB        12.5490   -8.2990   14.8340 C.3    94  SER94       0.2089
     17  OG        11.7220   -8.5680   15.9840 O.3    94  SER94      -0.2183
     18  N         13.5130  -11.8360   18.8400 N.3    96  PHE96      -0.1241
     19  CA        12.2470  -12.4770   19.1390 C.3    96  PHE96       0.1605
     20  C         12.5020  -13.7230   19.9760 C.2    96  PHE96       0.2264
     21  O         13.0150  -14.6910   19.4460 O.2    96  PHE96      -0.2867
     22  CB        11.5300  -12.9180   17.8470 C.3    96  PHE96       0.0534
     23  CG        10.2220  -13.6370   18.0740 C.ar   96  PHE96      -0.0203
     24  CD1        9.1280  -12.9960   18.6920 C.ar   96  PHE96      -0.0042
     25  CD2       10.0270  -14.9270   17.5730 C.ar   96  PHE96      -0.0042
     26  CE1        7.9050  -13.5980   18.8140 C.ar   96  PHE96      -0.0003
     27  CE2        8.7760  -15.5370   17.7140 C.ar   96  PHE96      -0.0003
     28  CZ         7.7270  -14.8850   18.3520 C.ar   96  PHE96      -0.0000
     29  N          3.5600   -5.9690   14.1840 N.3   142  ASP142     -0.1239
     30  CA         3.1420   -7.3110   14.4400 C.3   142  ASP142      0.1674
     31  C          1.6120   -7.2620   14.5410 C.2   142  ASP142      0.2266
     32  O          1.0820   -6.5850   15.3890 O.2   142  ASP142     -0.2867
     33  CB         3.7630   -7.8090   15.7590 C.3   142  ASP142      0.1410
     34  CG         3.5170   -9.2930   15.9920 C.2   142  ASP142      0.3668
     35  OD1        2.3740   -9.7050   15.7540 O.co2 142  ASP142     -0.2456
     36  OD2        4.4730  -10.0530   16.3990 O.co2 142  ASP142     -0.2456
     37  N         -0.4350   -9.2710   15.6970 N.3   144  MET144     -0.1245
     38  CA        -1.0110   -9.9620   16.8750 C.3   144  MET144      0.1570
     39  C         -0.6130   -9.3090   18.2030 C.2   144  MET144      0.2261
     40  O         -0.7730   -9.9290   19.2650 O.2   144  MET144     -0.2867
     41  CB        -0.6180  -11.4610   16.8830 C.3   144  MET144      0.0387
     42  CG        -1.0240  -12.2250   15.5930 C.3   144  MET144      0.0595
     43  SD        -2.8210  -12.2710   15.5090 S.3   144  MET144     -0.1393
     44  CE        -3.2210  -13.3070   16.9150 C.3   144  MET144      0.0692
     45  N          1.3740  -13.8050   22.1460 N.3   149  CYS149     -0.1235
     46  CA         1.8500  -15.1200   22.5950 C.3   149  CYS149      0.1677
     47  C          2.2060  -15.1040   24.0860 C.2   149  CYS149      0.2270
     48  O          2.8070  -14.1560   24.5800 O.2   149  CYS149     -0.2867
     49  CB         3.0640  -15.5710   21.7810 C.3   149  CYS149      0.0956
     50  SG         2.6920  -15.9200   20.0470 S.3   149  CYS149     -0.0801
     51  N          9.1170   -8.6500   24.0700 N.3   155  TYR155     -0.1241
     52  CA         8.8920   -8.5900   22.6320 C.3   155  TYR155      0.1605
     53  C          7.6090   -7.7700   22.3600 C.2   155  TYR155      0.2264
     54  O          7.6050   -6.8420   21.5330 O.2   155  TYR155     -0.2867
     55  CB         8.7790  -10.0180   22.0480 C.3   155  TYR155      0.0534
     56  CG         8.3900   -9.9370   20.6070 C.ar  155  TYR155     -0.0201
     57  CD1        9.3490   -9.5450   19.6160 C.ar  155  TYR155     -0.0009
     58  CD2        7.0720  -10.1630   20.2350 C.ar  155  TYR155     -0.0009
     59  CE1        8.9440   -9.4490   18.2830 C.ar  155  TYR155      0.0417
     60  CE2        6.6510  -10.0470   18.9090 C.ar  155  TYR155      0.0417
     61  CZ         7.5900   -9.6790   17.9510 C.ar  155  TYR155      0.1957
     62  OH         7.1360   -9.5670   16.6700 O.3   155  TYR155     -0.2866
     63  N          7.2100   -4.2190   20.3100 N.3   159  LYS159     -0.1245
     64  CA         6.3940   -3.9740   19.1200 C.3   159  LYS159      0.1561
     65  C          5.3130   -2.9320   19.3820 C.2   159  LYS159      0.2260
     66  O          4.9660   -2.1870   18.4650 O.2   159  LYS159     -0.2867
     67  CB         5.7730   -5.2580   18.5670 C.3   159  LYS159      0.0271
     68  CG         6.8160   -6.2050   17.9150 C.3   159  LYS159      0.0035
     69  CD         7.5830   -5.5150   16.7620 C.3   159  LYS159      0.0206
     70  CE         8.2910   -6.5680   15.8970 C.3   159  LYS159      0.1093
     71  NZ         9.1560   -5.8950   14.8550 N.3   159  LYS159     -0.1314
     72  N          1.0050  -11.3250   10.3120 N.3   186  GLY186     -0.1210
     73  CA         0.4600  -12.1660   11.3950 C.3   186  GLY186      0.1956
     74  C          1.4690  -13.2980   11.5270 C.2   186  GLY186      0.2612
     75  O          2.4010  -13.1960   12.3160 O.2   186  GLY186     -0.2717
     76  N          1.2250  -14.3780   10.8140 N.am  187  VAL187     -0.1965
     77  CA         2.2680  -15.4190   10.6350 C.3   187  VAL187      0.1727
     78  C          2.7880  -15.4360    9.2020 C.2   187  VAL187      0.2617
     79  O          2.0510  -15.6100    8.2290 O.2   187  VAL187     -0.2715
     80  CB         1.8700  -16.8120   11.2200 C.3   187  VAL187      0.0290
     81  CG1        0.4550  -17.1910   10.8330 C.3   187  VAL187      0.0023
     82  CG2        2.8520  -17.9180   10.8280 C.3   187  VAL187      0.0023
     83  N          4.0760  -15.1930    9.0930 N.am  188  SER188     -0.1936
     84  CA         4.7050  -15.2170    7.8200 C.3   188  SER188      0.2055
     85  C          5.7330  -16.3010    8.0790 C.2   188  SER188      0.2643
     86  O          5.4290  -17.3000    8.7400 O.2   188  SER188     -0.2714
     87  CB         5.3460  -13.8520    7.4910 C.3   188  SER188      0.2130
     88  OG         5.9710  -13.9060    6.1940 O.3   188  SER188     -0.2179
     89  N          6.9460  -16.1050    7.6060 N.am  189  LEU189     -0.1963
     90  CA         7.9120  -17.2270    7.6840 C.3   189  LEU189      0.1728
     91  C          8.0810  -17.6750    9.1190 C.2   189  LEU189      0.2616
     92  O          8.4080  -16.8760   10.0340 O.2   189  LEU189     -0.2715
     93  CB         9.2740  -16.8490    7.1020 C.3   189  LEU189      0.0311
     94  CG         9.2800  -16.3850    5.6600 C.3   189  LEU189      0.0022
     95  CD1       10.6710  -15.8660    5.2760 C.3   189  LEU189      0.0001
     96  CD2        8.7680  -17.4430    4.6690 C.3   189  LEU189      0.0001
     97  N          7.8230  -18.9590    9.3120 N.am  190  LEU190     -0.1964
     98  CA         7.9690  -19.5690   10.6080 C.3   190  LEU190      0.1713
     99  C          9.4570  -19.6070   11.0700 C.2   190  LEU190      0.2458
    100  O         10.3610  -19.5010   10.2300 O.2   190  LEU190     -0.2730
    101  CB         7.2790  -20.9500   10.6080 C.3   190  LEU190      0.0310
    102  CG         5.7390  -21.0170   10.7600 C.3   190  LEU190      0.0022
    103  CD1        5.2040  -20.1230   11.9030 C.3   190  LEU190      0.0001
    104  CD2        4.9930  -20.8090    9.4470 C.3   190  LEU190      0.0001
    105  N          9.7090  -19.7130   12.4050 N.am  191  PRO191     -0.2727
    106  CA        11.0940  -19.6860   12.8440 C.3   191  PRO191      0.1402
    107  C         11.8030  -20.9440   12.3490 C.2   191  PRO191      0.2269
    108  O         11.1770  -22.0140   12.2300 O.2   191  PRO191     -0.2865
    109  CB        11.0080  -19.6540   14.3770 C.3   191  PRO191      0.0296
    110  CG         9.5780  -19.2600   14.6880 C.3   191  PRO191      0.0237
    111  CD         8.7820  -19.8520   13.5540 C.3   191  PRO191      0.0939
    112  N         11.6290  -24.0980   14.2730 N.3   194  MET194     -0.1245
    113  CA        10.3160  -24.6110   14.6570 C.3   194  MET194      0.1570
    114  C         10.0860  -25.8980   13.8810 C.2   194  MET194      0.2261
    115  O         10.3970  -25.9260   12.6850 O.2   194  MET194     -0.2867
    116  CB         9.2090  -23.5890   14.3110 C.3   194  MET194      0.0387
    117  CG         7.8160  -24.0220   14.7360 C.3   194  MET194      0.0595
    118  SD         6.5550  -22.7470   14.4660 S.3   194  MET194     -0.1393
    119  CE         6.8130  -21.6570   15.8770 C.3   194  MET194      0.0692
    120  N          0.2240  -23.4520   13.6050 N.3   202  TRP202     -0.1241
    121  CA         0.0420  -21.9920   13.3040 C.3   202  TRP202      0.1605
    122  C         -0.6710  -21.7470   11.9620 C.2   202  TRP202      0.2264
    123  O         -1.6820  -21.0070   11.9080 O.2   202  TRP202     -0.2867
    124  CB         1.3260  -21.1590   13.5120 C.3   202  TRP202      0.0550
    125  CG         1.8800  -21.2690   14.9210 C.ar  202  TRP202      0.0003
    126  CD1        3.0080  -21.9300   15.3090 C.ar  202  TRP202      0.0946
    127  CD2        1.2820  -20.7720   16.1270 C.ar  202  TRP202      0.0152
    128  NE1        3.1610  -21.8700   16.6670 N.ar  202  TRP202     -0.2442
    129  CE2        2.1210  -21.1620   17.2000 C.ar  202  TRP202      0.0810
    130  CE3        0.1170  -20.0350   16.4060 C.ar  202  TRP202      0.0012
    131  CZ2        1.8480  -20.8280   18.5440 C.ar  202  TRP202      0.0191
    132  CZ3       -0.1590  -19.6950   17.7400 C.ar  202  TRP202      0.0001
    133  CH2        0.7100  -20.0970   18.7940 C.ar  202  TRP202      0.0015
    134  N         -5.7680  -13.5060   10.4380 N.3   244  LEU244     -0.1245
    135  CA        -5.4370  -14.1900   11.7040 C.3   244  LEU244      0.1561
    136  C         -5.8720  -13.4060   12.9690 C.2   244  LEU244      0.2260
    137  O         -6.4290  -13.9870   13.9270 O.2   244  LEU244     -0.2867
    138  CB        -3.9280  -14.5070   11.7610 C.3   244  LEU244      0.0270
    139  CG        -3.5490  -15.2170   13.0450 C.3   244  LEU244      0.0019
    140  CD1       -4.1460  -16.6510   13.0630 C.3   244  LEU244      0.0001
    141  CD2       -2.0470  -15.2080   13.1260 C.3   244  LEU244      0.0001
@<TRIPOS>BOND
     1     4     3    2
     2    96    94    1
     3     1     2    1
     4     3     2    1
     5     2     5    1
     6    95    94    1
     7    94    93    1
     8    88    87    1
     9     5     6    1
    10    93    90    1
    11     6     7    1
    12    87    84    1
    13    89    90    1
    14    89    85   am
    15    90    91    1
    16    84    85    1
    17    84    83    1
    18    85    86    2
    19    79    78    2
    20     7     8    1
    21    10     9    1
    22    83    78   am
    23    91    97   am
    24    91    92    2
    25    78    77    1
    26    97    98    1
    27   104   102    1
    28     8     9    2
    29     9    11    1
    30   100    99    2
    31    72    73    1
    32   134   135    1
    33   101    98    1
    34   101   102    1
    35    98    99    1
    36    77    76    1
    37    77    80    1
    38   102   103    1
    39    76    74   am
    40    82    80    1
    41    81    80    1
    42    99   105   am
    43    73    74    1
    44    74    75    2
    45   135   138    1
    46   135   136    1
    47   138   139    1
    48   123   122    2
    49   122   121    1
    50   108   107    2
    51   107   106    1
    52   105   106    1
    53   105   111    1
    54   115   114    2
    55   106   109    1
    56   136   137    2
    57   139   140    1
    58   139   141    1
    59   121   124    1
    60   121   120    1
    61   124   125    1
    62   111   110    1
    63   114   113    1
    64    12    13    1
    65    29    30    1
    66   112   113    1
    67   116   113    1
    68   116   117    1
    69   109   110    1
    70    30    31    1
    71    30    33    1
    72   118   117    1
    73   118   119    1
    74    31    32    2
    75    16    13    1
    76    16    17    1
    77    71    70    1
    78   125   126   ar
    79   125   127   ar
    80    13    14    1
    81   126   128   ar
    82    15    14    2
    83    43    42    1
    84    43    44    1
    85    42    41    1
    86    37    38    1
    87    35    34   ar
    88    33    34    1
    89    70    69    1
    90    34    36   ar
    91   127   130   ar
    92   127   129   ar
    93   130   132   ar
    94   128   129   ar
    95    62    61    1
    96    69    68    1
    97    38    41    1
    98    38    39    1
    99   129   131   ar
   100    25    27   ar
   101    25    23   ar
   102    27    28   ar
   103   132   133   ar
   104    22    23    1
   105    22    19    1
   106    68    67    1
   107    61    59   ar
   108    61    60   ar
   109    23    24   ar
   110    39    40    2
   111    59    57   ar
   112    28    26   ar
   113    66    65    2
   114   131   133   ar
   115    67    64    1
   116    24    26   ar
   117    18    19    1
   118    60    58   ar
   119    64    65    1
   120    64    63    1
   121    19    20    1
   122    21    20    2
   123    57    56   ar
   124    50    49    1
   125    58    56   ar
   126    56    55    1
   127    54    53    2
   128    49    46    1
   129    55    52    1
   130    45    46    1
   131    53    52    1
   132    46    47    1
   133    52    51    1
   134    47    48    2
