@<TRIPOS>MOLECULE
tmp/5jcnA02.pdb
 104 98 0 0 0
SMALL
GASTEIGER

@<TRIPOS>ATOM
      1  N         -9.9160  -37.2120    8.0860 N.3    44  GLU44      -0.1245
      2  CA       -10.1270  -35.7730    8.2150 C.3    44  GLU44       0.1567
      3  C        -11.5150  -35.6240    8.7980 C.2    44  GLU44       0.2260
      4  O        -12.5340  -35.6650    8.1040 O.2    44  GLU44      -0.2867
      5  CB        -9.9950  -35.0880    6.8540 C.3    44  GLU44       0.0388
      6  CG        -8.6450  -35.3220    6.1620 C.3    44  GLU44       0.1160
      7  CD        -7.5080  -34.4830    6.6940 C.2    44  GLU44       0.3649
      8  OE1       -7.7110  -33.7660    7.7120 O.co2  44  GLU44      -0.2457
      9  OE2       -6.4040  -34.4980    6.0430 O.co2  44  GLU44      -0.2457
     10  N        -13.3220  -33.2240   10.0890 N.3    46  PRO46      -0.2102
     11  CA       -14.2780  -32.2130    9.5720 C.3    46  PRO46       0.1504
     12  C        -15.3160  -32.7020    8.5660 C.2    46  PRO46       0.2575
     13  O        -16.4360  -32.2070    8.5160 O.2    46  PRO46      -0.2718
     14  CB       -13.3560  -31.1680    8.9390 C.3    46  PRO46       0.0282
     15  CG       -12.1990  -31.1400    9.8740 C.3    46  PRO46       0.0208
     16  CD       -11.9560  -32.6330   10.1210 C.3    46  PRO46       0.0893
     17  N        -14.9710  -33.7070    7.7980 N.am   47  ALA47      -0.1980
     18  CA       -15.8820  -34.1820    6.7920 C.3    47  ALA47       0.1597
     19  C        -17.0860  -34.8120    7.3860 C.2    47  ALA47       0.2287
     20  O        -18.0270  -35.0470    6.6710 O.2    47  ALA47      -0.2864
     21  CB       -15.1700  -35.1950    5.9170 C.3    47  ALA47       0.0319
     22  N        -20.1080  -32.5160    7.4080 N.3    50  LYS50      -0.1245
     23  CA       -20.3160  -31.9160    6.0810 C.3    50  LYS50       0.1561
     24  C        -20.6520  -33.0220    5.0410 C.2    50  LYS50       0.2260
     25  O        -21.7790  -33.5400    5.0350 O.2    50  LYS50      -0.2867
     26  CB       -19.0690  -31.0770    5.7240 C.3    50  LYS50       0.0271
     27  CG       -18.7270  -30.0950    6.8450 C.3    50  LYS50       0.0035
     28  CD       -17.6370  -29.1480    6.4980 C.3    50  LYS50       0.0206
     29  CE       -16.4040  -29.3050    7.3130 C.3    50  LYS50       0.1093
     30  NZ       -16.6440  -28.8430    8.6990 N.3    50  LYS50      -0.1314
     31  N        -11.7350  -39.8540    2.5200 N.3    64  PHE64      -0.1241
     32  CA       -11.2420  -38.6680    3.2720 C.3    64  PHE64       0.1605
     33  C        -10.2040  -38.9560    4.3170 C.2    64  PHE64       0.2264
     34  O        -10.0330  -38.1620    5.2520 O.2    64  PHE64      -0.2867
     35  CB       -12.3740  -37.7980    3.8480 C.3    64  PHE64       0.0534
     36  CG       -13.3110  -38.5210    4.7370 C.ar   64  PHE64      -0.0203
     37  CD1      -14.3900  -39.2320    4.1990 C.ar   64  PHE64      -0.0042
     38  CD2      -13.1270  -38.5070    6.0810 C.ar   64  PHE64      -0.0042
     39  CE1      -15.2620  -39.9170    5.0150 C.ar   64  PHE64      -0.0003
     40  CE2      -13.9960  -39.1830    6.9230 C.ar   64  PHE64      -0.0003
     41  CZ       -15.0740  -39.8690    6.4060 C.ar   64  PHE64      -0.0000
     42  N         -5.6000  -35.5020    2.6140 N.3    68  VAL68      -0.1231
     43  CA        -6.3180  -34.8770    1.4830 C.3    68  VAL68       0.1692
     44  C         -6.8160  -33.5290    1.9260 C.2    68  VAL68       0.2592
     45  O         -6.6360  -32.5220    1.2210 O.2    68  VAL68      -0.2718
     46  CB        -7.4870  -35.7570    0.9340 C.3    68  VAL68       0.0266
     47  CG1       -7.0440  -37.1700    0.6010 C.3    68  VAL68       0.0020
     48  CG2       -8.6350  -35.8900    1.9150 C.3    68  VAL68       0.0020
     49  N         -7.3170  -33.5080    3.1690 N.am   69  GLY69      -0.1957
     50  CA        -7.9060  -32.3440    3.7990 C.3    69  GLY69       0.1869
     51  C         -7.1740  -31.0350    3.6360 C.2    69  GLY69       0.2309
     52  O         -7.8130  -29.9670    3.6380 O.2    69  GLY69      -0.2863
     53  N         -8.8480  -28.0690   13.4830 N.3   313  VAL313     -0.1245
     54  CA        -8.1730  -29.0420   12.6670 C.3   313  VAL313      0.1561
     55  C         -6.8330  -28.5100   12.1860 C.2   313  VAL313      0.2260
     56  O         -5.8560  -29.2840   12.0890 O.2   313  VAL313     -0.2867
     57  CB        -8.9980  -29.5490   11.5010 C.3   313  VAL313      0.0252
     58  CG1       -8.9990  -28.5700   10.3360 C.3   313  VAL313      0.0019
     59  CG2       -8.4400  -30.8680   11.0290 C.3   313  VAL313      0.0019
     60  N         -3.2040  -30.6820   12.7180 N.3   317  ARG317     -0.1245
     61  CA        -2.2480  -30.9570   11.6650 C.3   317  ARG317      0.1563
     62  C         -0.8670  -30.4170   11.9270 C.2   317  ARG317      0.2260
     63  O          0.1020  -31.1680   11.7640 O.2   317  ARG317     -0.2867
     64  CB        -2.7240  -30.4580   10.3560 C.3   317  ARG317      0.0307
     65  CG        -3.9680  -31.2030    9.9110 C.3   317  ARG317      0.0489
     66  CD        -4.5210  -30.4030    8.7690 C.3   317  ARG317      0.2205
     67  NE        -5.7310  -31.0100    8.2760 N.pl3 317  ARG317     -0.0865
     68  CZ        -6.7000  -30.3420    7.6630 C.cat 317  ARG317      0.5346
     69  NH1       -6.6230  -29.0330    7.4820 N.pl3 317  ARG317      0.1354
     70  NH2       -7.7730  -31.0030    7.2690 N.pl3 317  ARG317      0.1354
     71  N         -6.7090  -20.2140   12.9590 N.3   344  TYR344     -0.1241
     72  CA        -7.4050  -20.3410   11.7160 C.3   344  TYR344      0.1605
     73  C         -8.5450  -21.3190   11.9330 C.2   344  TYR344      0.2264
     74  O         -8.3330  -22.5130   12.2570 O.2   344  TYR344     -0.2867
     75  CB        -6.4850  -20.8200   10.5770 C.3   344  TYR344      0.0534
     76  CG        -7.2610  -21.2660    9.3410 C.ar  344  TYR344     -0.0201
     77  CD1       -8.2210  -20.4760    8.7950 C.ar  344  TYR344     -0.0009
     78  CD2       -7.0600  -22.5180    8.7750 C.ar  344  TYR344     -0.0009
     79  CE1       -8.9530  -20.8970    7.6960 C.ar  344  TYR344      0.0417
     80  CE2       -7.7750  -22.9570    7.6800 C.ar  344  TYR344      0.0417
     81  CZ        -8.7190  -22.1450    7.1520 C.ar  344  TYR344      0.1957
     82  OH        -9.4380  -22.5600    6.0710 O.3   344  TYR344     -0.2866
     83  N        -12.8210  -22.1350   10.6190 N.3   346  PHE346     -0.1241
     84  CA       -13.6560  -22.0700    9.4740 C.3   346  PHE346      0.1605
     85  C        -14.8170  -22.9860    9.6400 C.2   346  PHE346      0.2264
     86  O        -14.7660  -23.9140   10.4450 O.2   346  PHE346     -0.2867
     87  CB       -12.8750  -22.4150    8.1980 C.3   346  PHE346      0.0534
     88  CG       -12.4140  -23.8360    8.1250 C.ar  346  PHE346     -0.0203
     89  CD1      -13.2180  -24.8110    7.5320 C.ar  346  PHE346     -0.0042
     90  CD2      -11.1610  -24.1960    8.6150 C.ar  346  PHE346     -0.0042
     91  CE1      -12.7960  -26.1460    7.5040 C.ar  346  PHE346     -0.0003
     92  CE2      -10.7380  -25.5070    8.5660 C.ar  346  PHE346     -0.0003
     93  CZ       -11.5550  -26.4810    8.0200 C.ar  346  PHE346     -0.0000
     94  N        -18.5710  -24.4300    7.1830 N.3   348  ARG348     -0.1245
     95  CA       -19.3860  -24.4220    5.9420 C.3   348  ARG348      0.1563
     96  C        -20.6700  -25.1310    6.1980 C.2   348  ARG348      0.2260
     97  O        -20.6740  -26.1500    6.9190 O.2   348  ARG348     -0.2867
     98  CB       -18.7340  -25.2450    4.8530 C.3   348  ARG348      0.0307
     99  CG       -17.8190  -24.4520    3.9870 C.3   348  ARG348      0.0489
    100  CD       -16.7430  -25.3090    3.3730 C.3   348  ARG348      0.2205
    101  NE       -17.2080  -26.6190    2.9040 N.pl3 348  ARG348     -0.0865
    102  CZ       -16.4780  -27.7500    2.9470 C.cat 348  ARG348      0.5346
    103  NH1      -17.0040  -28.8780    2.4680 N.pl3 348  ARG348      0.1354
    104  NH2      -15.2330  -27.7800    3.4670 N.pl3 348  ARG348      0.1354
@<TRIPOS>BOND
     1    47    46    1
     2    46    43    1
     3    46    48    1
     4    45    44    2
     5    43    44    1
     6    43    42    1
     7    44    49   am
     8   103   102    1
     9    31    32    1
    10   101   102    2
    11   101   100    1
    12   102   104    1
    13    49    50    1
    14    32    35    1
    15    32    33    1
    16   100    99    1
    17    51    52    2
    18    51    50    1
    19    35    36    1
    20    99    98    1
    21    37    36   ar
    22    37    39   ar
    23    33    34    2
    24    36    38   ar
    25    98    95    1
    26    39    41   ar
    27    25    24    2
    28    24    23    1
    29    26    23    1
    30    26    27    1
    31    21    18    1
    32    95    96    1
    33    95    94    1
    34     9     7   ar
    35    82    81    1
    36    38    40   ar
    37    23    22    1
    38     6     7    1
    39     6     5    1
    40    96    97    2
    41    41    40   ar
    42    28    27    1
    43    28    29    1
    44    20    19    2
    45     7     8   ar
    46    18    19    1
    47    18    17    1
    48     5     2    1
    49    81    80   ar
    50    81    79   ar
    51    70    68    1
    52    29    30    1
    53    69    68    1
    54    91    89   ar
    55    91    93   ar
    56    89    88   ar
    57    68    67    2
    58    80    78   ar
    59    79    77   ar
    60    17    12   am
    61    93    92   ar
    62     1     2    1
    63     4     3    2
    64    88    87    1
    65    88    90   ar
    66    87    84    1
    67     2     3    1
    68    67    66    1
    69    13    12    2
    70    92    90   ar
    71    12    11    1
    72    66    65    1
    73    78    76   ar
    74    77    76   ar
    75    14    11    1
    76    14    15    1
    77    76    75    1
    78    84    85    1
    79    84    83    1
    80    11    10    1
    81    85    86    2
    82    15    16    1
    83    65    64    1
    84    10    16    1
    85    58    57    1
    86    64    61    1
    87    75    72    1
    88    59    57    1
    89    57    54    1
    90    61    62    1
    91    61    60    1
    92    72    73    1
    93    72    71    1
    94    63    62    2
    95    73    74    2
    96    56    55    2
    97    55    54    1
    98    54    53    1
