@<TRIPOS>MOLECULE
tmp/5jcpB00.pdb
 142 134 0 0 0
SMALL
GASTEIGER

@<TRIPOS>ATOM
      1  N         12.9050    3.9100   -1.2210 N.3    37  ARG37      -0.1245
      2  CA        12.8740    4.5490    0.0950 C.3    37  ARG37       0.1563
      3  C         12.2470    5.9390    0.0350 C.2    37  ARG37       0.2260
      4  O         11.4750    6.3230    0.9240 O.2    37  ARG37      -0.2867
      5  CB        14.2940    4.6300    0.6570 C.3    37  ARG37       0.0307
      6  CG        14.4080    5.1700    2.0650 C.3    37  ARG37       0.0489
      7  CD        15.8780    5.2660    2.4160 C.3    37  ARG37       0.2205
      8  NE        16.1160    5.6260    3.8060 N.pl3  37  ARG37      -0.0865
      9  CZ        17.3290    5.7870    4.3190 C.cat  37  ARG37       0.5346
     10  NH1       18.4000    5.6230    3.5390 N.pl3  37  ARG37       0.1354
     11  NH2       17.4760    6.1070    5.6030 N.pl3  37  ARG37       0.1354
     12  N         22.3140    2.8080   -3.6960 N.3   144  GLN144     -0.1245
     13  CA        22.5100    2.6290   -2.2530 C.3   144  GLN144      0.1566
     14  C         21.4560    1.7230   -1.5920 C.2   144  GLN144      0.2260
     15  O         21.3430    1.6990   -0.3610 O.2   144  GLN144     -0.2867
     16  CB        22.5740    3.9920   -1.5400 C.3   144  GLN144      0.0367
     17  CG        23.6330    4.9420   -2.1420 C.3   144  GLN144      0.0905
     18  CD        23.6200    6.3360   -1.5320 C.2   144  GLN144      0.2608
     19  OE1       22.5660    6.8710   -1.1950 O.2   144  GLN144     -0.2717
     20  NE2       24.8010    6.9330   -1.3950 N.am  144  GLN144     -0.0878
     21  N         10.5580   10.0190    3.7180 N.3   209  GLY209     -0.1210
     22  CA        11.6060    9.0210    3.7070 C.3   209  GLY209      0.1956
     23  C         12.9140    9.5380    3.1250 C.2   209  GLY209      0.2612
     24  O         12.9180   10.2550    2.1100 O.2   209  GLY209     -0.2717
     25  N         14.0250    9.2080    3.7920 N.am  210  ALA210     -0.1965
     26  CA        15.3850    9.5330    3.3460 C.3   210  ALA210      0.1728
     27  C         15.6590   11.0290    3.2900 C.2   210  ALA210      0.2616
     28  O         16.6290   11.4390    2.6570 O.2   210  ALA210     -0.2715
     29  CB        15.7070    8.9130    1.9770 C.3   210  ALA210      0.0334
     30  N         14.8400   11.8790    3.9260 N.am  211  CYS211     -0.1954
     31  CA        15.1340   13.3080    3.8400 C.3   211  CYS211      0.1843
     32  C         16.1830   13.7550    4.8530 C.2   211  CYS211      0.2626
     33  O         16.4870   14.9440    4.9090 O.2   211  CYS211     -0.2714
     34  CB        13.8580   14.1550    3.9870 C.3   211  CYS211      0.0997
     35  SG        13.2260   14.3160    5.6920 S.3   211  CYS211     -0.0797
     36  N         16.7380   12.8500    5.6440 N.am  212  GLY212     -0.1940
     37  CA        17.8620   13.1550    6.4990 C.3   212  GLY212      0.2014
     38  C         17.5720   13.2420    7.9870 C.2   212  GLY212      0.2639
     39  O         18.3770   13.8410    8.7220 O.2   212  GLY212     -0.2714
     40  N         16.4540   12.6820    8.4500 N.am  213  LYS213     -0.1963
     41  CA        16.0470   12.8750    9.8400 C.3   213  LYS213      0.1728
     42  C         17.0170   12.1970   10.8030 C.2   213  LYS213      0.2617
     43  O         17.4660   12.8100   11.7750 O.2   213  LYS213     -0.2715
     44  CB        14.6220   12.3470   10.0510 C.3   213  LYS213      0.0311
     45  CG        13.5690   13.0220    9.1600 C.3   213  LYS213      0.0038
     46  CD        12.1780   12.3840    9.3390 C.3   213  LYS213      0.0206
     47  CE        12.1660   10.8960    8.9050 C.3   213  LYS213      0.1093
     48  NZ        12.4360   10.6520    7.4350 N.3   213  LYS213     -0.1314
     49  N         17.3400   10.9220   10.5560 N.am  214  THR214     -0.1937
     50  CA        18.1770   10.1730   11.4950 C.3   214  THR214      0.2028
     51  C         19.5980   10.7310   11.5460 C.2   214  THR214      0.2642
     52  O         20.1830   10.8580   12.6290 O.2   214  THR214     -0.2714
     53  CB        18.1910    8.6890   11.1270 C.3   214  THR214      0.1808
     54  OG1       16.8730    8.1410   11.3100 O.3   214  THR214     -0.2208
     55  CG2       19.2070    7.9130   11.9950 C.3   214  THR214      0.0379
     56  N         20.1640   11.0790   10.3920 N.am  215  CYS215     -0.1967
     57  CA        21.4890   11.7020   10.3810 C.3   215  CYS215      0.1712
     58  C         21.4980   13.0240   11.1540 C.2   215  CYS215      0.2296
     59  O         22.4710   13.3370   11.8500 O.2   215  CYS215     -0.2864
     60  CB        21.9530   11.8990    8.9370 C.3   215  CYS215      0.0983
     61  SG        22.3800   10.3020    8.1260 S.3   215  CYS215     -0.0798
     62  N         12.9440    9.6200   17.0650 N.3   240  ASP240     -0.1225
     63  CA        13.0450    9.4530   15.6230 C.3   240  ASP240      0.1805
     64  C         11.8030    8.7390   15.0910 C.2   240  ASP240      0.2598
     65  O         11.2080    7.9110   15.7770 O.2   240  ASP240     -0.2718
     66  CB        14.3060    8.6410   15.3160 C.3   240  ASP240      0.1424
     67  CG        14.8490    8.8840   13.9160 C.2   240  ASP240      0.3668
     68  OD1       14.2850    9.7210   13.1870 O.co2 240  ASP240     -0.2456
     69  OD2       15.8790    8.2600   13.5660 O.co2 240  ASP240     -0.2456
     70  N         11.4050    9.0610   13.8580 N.am  241  THR241     -0.1953
     71  CA        10.2680    8.3870   13.2340 C.3   241  THR241      0.1897
     72  C         10.6040    8.1170   11.7820 C.2   241  THR241      0.2313
     73  O         11.4100    8.8230   11.1770 O.2   241  THR241     -0.2863
     74  CB         8.9640    9.2230   13.2720 C.3   241  THR241      0.1794
     75  OG1        9.1340   10.3820   12.4420 O.3   241  THR241     -0.2208
     76  CG2        8.6100    9.6610   14.6900 C.3   241  THR241      0.0378
     77  N          9.7260    7.8650    7.7060 N.3   243  GLY243     -0.1210
     78  CA         8.9710    8.6900    6.7820 C.3   243  GLY243      0.1956
     79  C          7.9540    7.9450    5.9370 C.2   243  GLY243      0.2611
     80  O          7.0520    8.5770    5.3870 O.2   243  GLY243     -0.2717
     81  N          8.0890    6.6270    5.8050 N.am  244  GLN244     -0.1979
     82  CA         7.2600    5.8650    4.8800 C.3   244  GLN244      0.1601
     83  C          5.8370    5.6910    5.4140 C.2   244  GLN244      0.2287
     84  O          5.5960    5.6760    6.6290 O.2   244  GLN244     -0.2864
     85  CB         7.8820    4.4800    4.6130 C.3   244  GLN244      0.0394
     86  CG         9.1920    4.4900    3.7890 C.3   244  GLN244      0.0908
     87  CD        10.3940    5.0240    4.5750 C.2   244  GLN244      0.2608
     88  OE1       10.4370    4.9180    5.7940 O.2   244  GLN244     -0.2717
     89  NE2       11.3580    5.6190    3.8740 N.am  244  GLN244     -0.0878
     90  N         16.8250   20.0000    5.1760 N.3   298  ASN298     -0.1225
     91  CA        18.0220   19.1860    5.3330 C.3   298  ASN298      0.1785
     92  C         18.8490   19.1730    4.0440 C.2   298  ASN298      0.2597
     93  O         18.4020   19.6160    2.9880 O.2   298  ASN298     -0.2718
     94  CB        17.6350   17.7570    5.7220 C.3   298  ASN298      0.1169
     95  CG        17.1880   17.6470    7.1630 C.2   298  ASN298      0.2627
     96  OD1       17.6010   18.4370    8.0130 O.2   298  ASN298     -0.2716
     97  ND2       16.3270   16.6740    7.4420 N.am  298  ASN298     -0.0877
     98  N         20.0730   18.6490    4.1500 N.am  299  LYS299     -0.1980
     99  CA        20.9530   18.4140    2.9940 C.3   299  LYS299      0.1596
    100  C         21.2160   19.6980    2.2060 C.2   299  LYS299      0.2287
    101  O         21.2160   19.6950    0.9700 O.2   299  LYS299     -0.2864
    102  CB        20.3900   17.3190    2.0760 C.3   299  LYS299      0.0298
    103  CG        19.9630   16.0460    2.8260 C.3   299  LYS299      0.0038
    104  CD        19.6490   14.9310    1.8420 C.3   299  LYS299      0.0206
    105  CE        19.0140   13.7160    2.5320 C.3   299  LYS299      0.1093
    106  NZ        19.0090   12.5300    1.6150 N.3   299  LYS299     -0.1314
    107  N         23.8690   21.0320    1.6410 N.3   301  ASP301     -0.1225
    108  CA        25.0690   20.8500    0.8300 C.3   301  ASP301      0.1805
    109  C         24.7510   20.3790   -0.5810 C.2   301  ASP301      0.2597
    110  O         25.6310   20.4240   -1.4570 O.2   301  ASP301     -0.2718
    111  CB        25.9770   19.8330    1.5080 C.3   301  ASP301      0.1424
    112  CG        25.2840   18.4870    1.6900 C.2   301  ASP301      0.3668
    113  OD1       24.3960   18.3680    2.5730 O.co2 301  ASP301     -0.2456
    114  OD2       25.6230   17.5520    0.9390 O.co2 301  ASP301     -0.2456
    115  N         23.5360   19.8900   -0.8200 N.am  302  LEU302     -0.1979
    116  CA        23.1560   19.4350   -2.1550 C.3   302  LEU302      0.1596
    117  C         22.5350   20.5350   -3.0090 C.2   302  LEU302      0.2287
    118  O         22.2250   20.2870   -4.1770 O.2   302  LEU302     -0.2864
    119  CB        22.1960   18.2430   -2.0600 C.3   302  LEU302      0.0297
    120  CG        22.8050   16.9510   -1.4770 C.3   302  LEU302      0.0022
    121  CD1       21.8020   15.8050   -1.4290 C.3   302  LEU302      0.0001
    122  CD2       24.0400   16.5140   -2.2940 C.3   302  LEU302      0.0001
    123  N         23.0220   20.9420    7.0870 N.3   341  SER341     -0.1202
    124  CA        23.5890   19.7740    6.4190 C.3   341  SER341      0.2020
    125  C         24.1600   18.8600    7.4890 C.2   341  SER341      0.2619
    126  O         25.1820   19.1830    8.0970 O.2   341  SER341     -0.2717
    127  CB        24.6810   20.1750    5.4240 C.3   341  SER341      0.2103
    128  OG        25.4210   19.0230    5.0510 O.3   341  SER341     -0.2182
    129  N         23.5080   17.7270    7.7330 N.am  342  ALA342     -0.1965
    130  CA        24.1150   16.7320    8.6090 C.3   342  ALA342      0.1728
    131  C         25.4900   16.3050    8.0930 C.2   342  ALA342      0.2616
    132  O         26.3870   15.9990    8.8880 O.2   342  ALA342     -0.2715
    133  CB        23.1910   15.5230    8.7530 C.3   342  ALA342      0.0334
    134  N         25.6810   16.3150    6.7730 N.am  343  LYS343     -0.1977
    135  CA        26.9310   15.8450    6.1890 C.3   343  LYS343      0.1596
    136  C         28.1070   16.7410    6.5770 C.2   343  LYS343      0.2287
    137  O         29.1540   16.2400    7.0020 O.2   343  LYS343     -0.2864
    138  CB        26.7900   15.7540    4.6690 C.3   343  LYS343      0.0298
    139  CG        28.1010   15.4180    3.9510 C.3   343  LYS343      0.0038
    140  CD        27.8680   15.1170    2.4780 C.3   343  LYS343      0.0206
    141  CE        29.1880   15.0140    1.7170 C.3   343  LYS343      0.1093
    142  NZ        28.9470   14.7400    0.2790 N.3   343  LYS343     -0.1314
@<TRIPOS>BOND
     1   118   117    2
     2    12    13    1
     3   117   116    1
     4   122   120    1
     5    13    14    1
     6    13    16    1
     7   116   119    1
     8   116   115    1
     9    17    16    1
    10    17    18    1
    11   119   120    1
    12    14    15    2
    13    18    20   am
    14    18    19    2
    15   120   121    1
    16   110   109    2
    17     1     2    1
    18   115   109   am
    19   109   108    1
    20     3     2    1
    21     3     4    2
    22     2     5    1
    23   142   141    1
    24     5     6    1
    25   108   111    1
    26   108   107    1
    27   114   112   ar
    28   101   100    2
    29   111   112    1
    30   106   105    1
    31   112   113   ar
    32   141   140    1
    33   104   105    1
    34   104   103    1
    35    29    26    1
    36     6     7    1
    37   102   103    1
    38   102    99    1
    39    24    23    2
    40   100    99    1
    41     7     8    1
    42   140   139    1
    43    28    27    2
    44    93    92    2
    45    99    98    1
    46    23    22    1
    47    23    25   am
    48    27    26    1
    49    27    30   am
    50    26    25    1
    51    10     9    1
    52    22    21    1
    53    86    87    1
    54    86    85    1
    55     8     9    2
    56    31    30    1
    57    31    34    1
    58    31    32    1
    59    89    87   am
    60   139   138    1
    61    34    35    1
    62    92    98   am
    63    92    91    1
    64     9    11    1
    65    87    88    2
    66    85    82    1
    67   138   135    1
    68    32    33    2
    69    32    36   am
    70    82    83    1
    71    82    81    1
    72   128   127    1
    73    90    91    1
    74    91    94    1
    75    80    79    2
    76    83    84    2
    77   127   124    1
    78    36    37    1
    79    94    95    1
    80    81    79   am
    81    79    78    1
    82   135   136    1
    83   135   134    1
    84   124   123    1
    85   124   125    1
    86    37    38    1
    87   136   137    2
    88   134   131   am
    89    78    77    1
    90    95    97   am
    91    95    96    2
    92    48    47    1
    93   125   129   am
    94   125   126    2
    95   129   130    1
    96    38    40   am
    97    38    39    2
    98   131   130    1
    99   131   132    2
   100    61    60    1
   101    40    41    1
   102   130   133    1
   103    47    46    1
   104    60    57    1
   105    45    46    1
   106    45    44    1
   107    41    44    1
   108    41    42    1
   109    57    56    1
   110    57    58    1
   111    56    51   am
   112    49    42   am
   113    49    50    1
   114    42    43    2
   115    53    54    1
   116    53    50    1
   117    53    55    1
   118    58    59    2
   119    73    72    2
   120    50    51    1
   121    51    52    2
   122    72    71    1
   123    75    74    1
   124    68    67   ar
   125    71    74    1
   126    71    70    1
   127    74    76    1
   128    69    67   ar
   129    70    64   am
   130    67    66    1
   131    64    63    1
   132    64    65    2
   133    66    63    1
   134    63    62    1
