@<TRIPOS>MOLECULE
tmp/5jcrB00.pdb
 123 117 0 0 0
SMALL
GASTEIGER

@<TRIPOS>ATOM
      1  N        -43.2390    3.5030   -3.2980 N.3     1  PHE1       -0.1241
      2  CA       -43.1010    3.4790   -1.8200 C.3     1  PHE1        0.1605
      3  C        -44.4310    3.1540   -1.1660 C.2     1  PHE1        0.2264
      4  O        -45.4410    3.7960   -1.4460 O.2     1  PHE1       -0.2867
      5  CB       -42.5810    4.8200   -1.3020 C.3     1  PHE1        0.0534
      6  CG       -42.4070    4.8690    0.1960 C.ar    1  PHE1       -0.0203
      7  CD1      -43.4630    5.2280    1.0180 C.ar    1  PHE1       -0.0042
      8  CD2      -41.1870    4.5560    0.7750 C.ar    1  PHE1       -0.0042
      9  CE1      -43.3060    5.2770    2.3930 C.ar    1  PHE1       -0.0003
     10  CE2      -41.0230    4.6050    2.1490 C.ar    1  PHE1       -0.0003
     11  CZ       -42.0870    4.9630    2.9580 C.ar    1  PHE1       -0.0000
     12  N        -49.0170    3.0090   -2.2780 N.3    13  ILE13      -0.1231
     13  CA       -48.4560    4.1330   -3.0090 C.3    13  ILE13       0.1692
     14  C        -49.4100    5.3220   -2.9580 C.2    13  ILE13       0.2592
     15  O        -50.6010    5.1760   -3.2330 O.2    13  ILE13      -0.2718
     16  CB       -48.1780    3.7280   -4.4700 C.3    13  ILE13       0.0266
     17  CG1      -46.9560    2.8140   -4.5310 C.3    13  ILE13       0.0019
     18  CG2      -48.0030    4.9490   -5.3750 C.3    13  ILE13       0.0020
     19  CD1      -46.8080    2.0890   -5.8510 C.3    13  ILE13       0.0001
     20  N        -48.8870    6.4880   -2.5880 N.am   14  GLY14      -0.1957
     21  CA       -49.6860    7.7010   -2.5320 C.3    14  GLY14       0.1869
     22  C        -50.1420    8.0450   -1.1270 C.2    14  GLY14       0.2309
     23  O        -50.6790    9.1240   -0.8880 O.2    14  GLY14      -0.2863
     24  N        -39.0790    0.7590   -0.7370 N.3    46  ASN46      -0.1225
     25  CA       -38.9300    1.5140   -1.9750 C.3    46  ASN46       0.1785
     26  C        -39.3170    0.6150   -3.1530 C.2    46  ASN46       0.2597
     27  O        -38.7830   -0.4820   -3.2870 O.2    46  ASN46      -0.2718
     28  CB       -37.4760    2.0020   -2.0720 C.3    46  ASN46       0.1169
     29  CG       -37.1880    2.8310   -3.3130 C.2    46  ASN46       0.2627
     30  OD1      -37.7940    2.6550   -4.3680 O.2    46  ASN46      -0.2716
     31  ND2      -36.2100    3.7220   -3.1930 N.am   46  ASN46      -0.0877
     32  N        -40.2380    1.0680   -4.0040 N.am   47  ASP47      -0.1960
     33  CA       -40.7160    0.2600   -5.1310 C.3    47  ASP47       0.1840
     34  C        -39.8530    0.3520   -6.3980 C.2    47  ASP47       0.2622
     35  O        -40.0870   -0.3780   -7.3630 O.2    47  ASP47      -0.2715
     36  CB       -42.1560    0.6600   -5.4890 C.3    47  ASP47       0.1450
     37  CG       -43.1860    0.0660   -4.5440 C.2    47  ASP47       0.3671
     38  OD1      -43.3070   -1.1770   -4.5040 O.co2  47  ASP47      -0.2456
     39  OD2      -43.8850    0.8400   -3.8490 O.co2  47  ASP47      -0.2456
     40  N        -38.8530    1.2270   -6.3980 N.am   48  TYR48      -0.1974
     41  CA       -38.0630    1.4690   -7.6050 C.3    48  TYR48       0.1639
     42  C        -36.6470    1.9150   -7.2540 C.2    48  TYR48       0.2290
     43  O        -36.1840    2.9570   -7.7160 O.2    48  TYR48      -0.2864
     44  CB       -38.7810    2.5240   -8.4520 C.3    48  TYR48       0.0560
     45  CG       -38.3530    2.6820   -9.8960 C.ar   48  TYR48      -0.0198
     46  CD1      -37.5490    1.7430  -10.5380 C.ar   48  TYR48      -0.0009
     47  CD2      -38.7870    3.7780  -10.6310 C.ar   48  TYR48      -0.0009
     48  CE1      -37.1820    1.9070  -11.8680 C.ar   48  TYR48       0.0417
     49  CE2      -38.4270    3.9490  -11.9450 C.ar   48  TYR48       0.0417
     50  CZ       -37.6280    3.0150  -12.5640 C.ar   48  TYR48       0.1957
     51  OH       -37.2820    3.2090  -13.8810 O.3    48  TYR48      -0.2866
     52  N        -34.7700    5.4320   -8.0230 N.3    52  ILE52      -0.1245
     53  CA       -35.2580    6.4030   -7.0480 C.3    52  ILE52       0.1561
     54  C        -34.7320    6.1660   -5.6320 C.2    52  ILE52       0.2260
     55  O        -34.6010    5.0260   -5.1790 O.2    52  ILE52      -0.2867
     56  CB       -36.8050    6.3920   -7.0120 C.3    52  ILE52       0.0252
     57  CG1      -37.3580    6.6870   -8.4110 C.3    52  ILE52       0.0019
     58  CG2      -37.3370    7.3980   -5.9780 C.3    52  ILE52       0.0019
     59  CD1      -38.8640    6.6340   -8.5170 C.3    52  ILE52       0.0001
     60  N        -35.9720    7.1370   -1.8490 N.3    54  ASP54      -0.1239
     61  CA       -37.0830    7.6500   -1.0580 C.3    54  ASP54       0.1674
     62  C        -36.5820    8.2660    0.2430 C.2    54  ASP54       0.2266
     63  O        -35.6350    7.7640    0.8610 O.2    54  ASP54      -0.2867
     64  CB       -38.0930    6.5390   -0.7550 C.3    54  ASP54       0.1410
     65  CG       -38.9050    6.1370   -1.9720 C.2    54  ASP54       0.3668
     66  OD1      -39.2770    7.0290   -2.7650 O.co2  54  ASP54      -0.2456
     67  OD2      -39.1800    4.9290   -2.1300 O.co2  54  ASP54      -0.2456
     68  N        -43.3390   10.9880    3.1010 N.3   133  GLN133     -0.1245
     69  CA       -42.4480   10.3940    2.1150 C.3   133  GLN133      0.1566
     70  C        -42.2870   11.2860    0.8900 C.2   133  GLN133      0.2260
     71  O        -43.2620   11.7150    0.2830 O.2   133  GLN133     -0.2867
     72  CB       -42.9670    9.0170    1.6950 C.3   133  GLN133      0.0367
     73  CG       -42.1560    8.3480    0.5820 C.3   133  GLN133      0.0905
     74  CD       -42.8910    8.3000   -0.7480 C.2   133  GLN133      0.2608
     75  OE1      -44.1070    8.0950   -0.7940 O.2   133  GLN133     -0.2717
     76  NE2      -42.1520    8.4660   -1.8390 N.am  133  GLN133     -0.0878
     77  N        -39.0710   11.9620   -2.4650 N.3   135  ASN135     -0.1240
     78  CA       -38.0220   11.2420   -3.1800 C.3   135  ASN135      0.1653
     79  C        -37.0960   12.2010   -3.9230 C.2   135  ASN135      0.2266
     80  O        -37.2200   13.4170   -3.7900 O.2   135  ASN135     -0.2867
     81  CB       -38.6390   10.2180   -4.1460 C.3   135  ASN135      0.1155
     82  CG       -39.5440   10.8550   -5.1890 C.2   135  ASN135      0.2627
     83  OD1      -39.2480   11.9210   -5.7190 O.2   135  ASN135     -0.2716
     84  ND2      -40.6520   10.1910   -5.4930 N.am  135  ASN135     -0.0877
     85  N        -36.8310   12.0680   -7.2740 N.3   137  TYR137     -0.1227
     86  CA       -37.2450   11.7260   -8.6270 C.3   137  TYR137      0.1736
     87  C        -38.3010   12.6720   -9.1850 C.2   137  TYR137      0.2595
     88  O        -38.2060   13.1130  -10.3340 O.2   137  TYR137     -0.2718
     89  CB       -37.7730   10.2930   -8.6420 C.3   137  TYR137      0.0548
     90  CG       -38.2100    9.8130   -9.9980 C.ar  137  TYR137     -0.0200
     91  CD1      -37.2780    9.4690  -10.9670 C.ar  137  TYR137     -0.0009
     92  CD2      -39.5550    9.6860  -10.3040 C.ar  137  TYR137     -0.0009
     93  CE1      -37.6780    9.0180  -12.2070 C.ar  137  TYR137      0.0417
     94  CE2      -39.9650    9.2370  -11.5380 C.ar  137  TYR137      0.0417
     95  CZ       -39.0240    8.9030  -12.4850 C.ar  137  TYR137      0.1957
     96  OH       -39.4360    8.4560  -13.7170 O.3   137  TYR137     -0.2866
     97  N        -39.3050   12.9790   -8.3730 N.am  138  ASN138     -0.1974
     98  CA       -40.3960   13.8490   -8.7900 C.3   138  ASN138      0.1688
     99  C        -40.9080   14.6690   -7.6070 C.2   138  ASN138      0.2292
    100  O        -40.2100   14.8140   -6.6050 O.2   138  ASN138     -0.2864
    101  CB       -41.5230   13.0250   -9.4240 C.3   138  ASN138      0.1181
    102  CG       -42.1040   11.9920   -8.4750 C.2   138  ASN138      0.2629
    103  OD1      -41.9630   12.0960   -7.2590 O.2   138  ASN138     -0.2716
    104  ND2      -42.7680   10.9900   -9.0320 N.am  138  ASN138     -0.0877
    105  N        -43.4840   14.0670   -5.6380 N.3   140  ASP140     -0.1239
    106  CA       -44.3020   13.3010   -4.6960 C.3   140  ASP140      0.1674
    107  C        -44.0470   13.7100   -3.2510 C.2   140  ASP140      0.2266
    108  O        -42.9070   13.8220   -2.8160 O.2   140  ASP140     -0.2867
    109  CB       -44.0550   11.7960   -4.8340 C.3   140  ASP140      0.1410
    110  CG       -44.6200   11.2180   -6.1180 C.2   140  ASP140      0.3668
    111  OD1      -45.3100   11.9490   -6.8630 O.co2 140  ASP140     -0.2456
    112  OD2      -44.3890   10.0170   -6.3670 O.co2 140  ASP140     -0.2456
    113  N        -46.1160   12.6110    0.1460 N.3   142  PHE142     -0.1241
    114  CA       -47.2250   11.7750    0.5960 C.3   142  PHE142      0.1605
    115  C        -47.2080   11.5890    2.0990 C.2   142  PHE142      0.2264
    116  O        -46.1440   11.5090    2.7080 O.2   142  PHE142     -0.2867
    117  CB       -47.1730   10.3990   -0.0760 C.3   142  PHE142      0.0534
    118  CG       -47.3230   10.4340   -1.5730 C.ar  142  PHE142     -0.0203
    119  CD1      -48.3020   11.2030   -2.1740 C.ar  142  PHE142     -0.0042
    120  CD2      -46.4890    9.6740   -2.3770 C.ar  142  PHE142     -0.0042
    121  CE1      -48.4400   11.2200   -3.5540 C.ar  142  PHE142     -0.0003
    122  CE2      -46.6200    9.6850   -3.7510 C.ar  142  PHE142     -0.0003
    123  CZ       -47.5950   10.4580   -4.3410 C.ar  142  PHE142     -0.0000
@<TRIPOS>BOND
     1    51    50    1
     2    96    95    1
     3    50    49   ar
     4    50    48   ar
     5    95    93   ar
     6    95    94   ar
     7    93    91   ar
     8    49    47   ar
     9    48    46   ar
    10    94    92   ar
    11    91    90   ar
    12    47    45   ar
    13    46    45   ar
    14    88    87    2
    15    92    90   ar
    16    90    89    1
    17    45    44    1
    18   101    98    1
    19   101   102    1
    20    87    86    1
    21    87    97   am
    22   104   102   am
    23    98    97    1
    24    98    99    1
    25    89    86    1
    26    86    85    1
    27    59    57    1
    28   102   103    2
    29    44    41    1
    30    57    56    1
    31    52    53    1
    32    43    42    2
    33    99   100    2
    34    41    42    1
    35    41    40    1
    36    35    34    2
    37    53    56    1
    38    53    54    1
    39    56    58    1
    40   111   110   ar
    41    34    40   am
    42    34    33    1
    43   112   110   ar
    44   110   109    1
    45    19    17    1
    46    83    82    2
    47   105   106    1
    48    54    55    2
    49    84    82   am
    50    36    33    1
    51    36    37    1
    52    18    16    1
    53    82    81    1
    54    33    32    1
    55   109   106    1
    56   106   107    1
    57    37    38   ar
    58    37    39   ar
    59    17    16    1
    60    16    13    1
    61    30    29    2
    62   123   122   ar
    63   123   121   ar
    64    81    78    1
    65    32    26   am
    66    79    80    2
    67    79    78    1
    68   122   120   ar
    69   121   119   ar
    70    29    31   am
    71    29    28    1
    72     1     2    1
    73    27    26    2
    74   107   108    2
    75    15    14    2
    76    78    77    1
    77    26    25    1
    78    13    14    1
    79    13    12    1
    80    14    20   am
    81    66    65   ar
    82    20    21    1
    83    21    22    1
    84   120   118   ar
    85   119   118   ar
    86    67    65   ar
    87    28    25    1
    88    25    24    1
    89    65    64    1
    90    60    61    1
    91    76    74   am
    92     2     5    1
    93     2     3    1
    94   118   117    1
    95     4     3    2
    96     5     6    1
    97    22    23    2
    98    61    64    1
    99    61    62    1
   100    75    74    2
   101    74    73    1
   102   117   114    1
   103   113   114    1
   104     6     8   ar
   105     6     7   ar
   106    62    63    2
   107    71    70    2
   108    73    72    1
   109   114   115    1
   110     8    10   ar
   111    70    69    1
   112     7     9   ar
   113    72    69    1
   114   115   116    2
   115    69    68    1
   116    10    11   ar
   117     9    11   ar
