@<TRIPOS>MOLECULE
tmp/5jcxA01.pdb
 127 122 0 0 0
SMALL
GASTEIGER

@<TRIPOS>ATOM
      1  N        -22.0900  -14.0500    4.8230 N.3    13  ARG13      -0.1245
      2  CA       -23.4930  -14.0400    5.2130 C.3    13  ARG13       0.1563
      3  C        -24.2320  -12.7830    4.7270 C.2    13  ARG13       0.2260
      4  O        -24.0410  -12.3690    3.5780 O.2    13  ARG13      -0.2867
      5  CB       -23.5910  -14.3090    6.7330 C.3    13  ARG13       0.0307
      6  CG       -23.1920  -15.7490    7.0490 C.3    13  ARG13       0.0489
      7  CD       -22.9930  -16.0610    8.5290 C.3    13  ARG13       0.2205
      8  NE       -24.1470  -15.7320    9.3830 N.pl3  13  ARG13      -0.0865
      9  CZ       -25.1380  -16.5720    9.6970 C.cat  13  ARG13       0.5346
     10  NH1      -25.1610  -17.8090    9.2100 N.pl3  13  ARG13       0.1354
     11  NH2      -26.1240  -16.1710   10.5070 N.pl3  13  ARG13       0.1354
     12  N        -22.6410   -7.5820   13.9440 N.3    94  SER94      -0.1217
     13  CA       -23.3720   -7.8700   15.1590 C.3    94  SER94       0.1889
     14  C        -22.7870   -9.0470   15.9290 C.2    94  SER94       0.2288
     15  O        -22.3850  -10.0470   15.3280 O.2    94  SER94      -0.2866
     16  CB       -24.8340   -8.1530   14.8110 C.3    94  SER94       0.2089
     17  OG       -25.5610   -8.5790   15.9500 O.3    94  SER94      -0.2183
     18  N        -23.9900  -11.9220   18.6680 N.3    96  PHE96      -0.1241
     19  CA       -25.2460  -12.5900   18.9900 C.3    96  PHE96       0.1605
     20  C        -24.9740  -13.8470   19.7970 C.2    96  PHE96       0.2264
     21  O        -24.4050  -14.8190   19.2910 O.2    96  PHE96      -0.2867
     22  CB       -26.0170  -12.9280   17.7000 C.3    96  PHE96       0.0534
     23  CG       -27.2520  -13.7600   17.9180 C.ar   96  PHE96      -0.0203
     24  CD1      -28.4250  -13.1790   18.4120 C.ar   96  PHE96      -0.0042
     25  CD2      -27.2540  -15.1330   17.6180 C.ar   96  PHE96      -0.0042
     26  CE1      -29.5700  -13.9460   18.6040 C.ar   96  PHE96      -0.0003
     27  CE2      -28.3950  -15.9060   17.8220 C.ar   96  PHE96      -0.0003
     28  CZ       -29.5550  -15.3120   18.3140 C.ar   96  PHE96      -0.0000
     29  N        -33.9090   -5.9280   14.0340 N.3   142  ASP142     -0.1239
     30  CA       -34.3590   -7.2930   14.3170 C.3   142  ASP142      0.1674
     31  C        -35.8880   -7.2190   14.4280 C.2   142  ASP142      0.2266
     32  O        -36.4130   -6.5050   15.2660 O.2   142  ASP142     -0.2867
     33  CB       -33.7260   -7.7930   15.6350 C.3   142  ASP142      0.1410
     34  CG       -33.9930   -9.2580   15.9020 C.2   142  ASP142      0.3668
     35  OD1      -35.1010   -9.7470   15.6010 O.co2 142  ASP142     -0.2456
     36  OD2      -33.0910   -9.9440   16.4330 O.co2 142  ASP142     -0.2456
     37  N        -37.9130   -9.2450   15.6090 N.3   144  MET144     -0.1245
     38  CA       -38.4380   -9.8930   16.7940 C.3   144  MET144      0.1570
     39  C        -38.0400   -9.1660   18.0840 C.2   144  MET144      0.2261
     40  O        -38.1220   -9.7480   19.1780 O.2   144  MET144     -0.2867
     41  CB       -38.0020  -11.3610   16.8020 C.3   144  MET144      0.0387
     42  CG       -38.4320  -12.1170   15.5480 C.3   144  MET144      0.0595
     43  SD       -40.2300  -12.2560   15.4900 S.3   144  MET144     -0.1393
     44  CE       -40.4670  -13.5490   16.7040 C.3   144  MET144      0.0692
     45  N        -28.3240   -8.7830   23.9600 N.3   154  TYR154     -0.1241
     46  CA       -28.5380   -8.7060   22.5180 C.3   154  TYR154      0.1605
     47  C        -29.7980   -7.8650   22.2390 C.2   154  TYR154      0.2264
     48  O        -29.7810   -6.9400   21.4230 O.2   154  TYR154     -0.2867
     49  CB       -28.6670  -10.1030   21.9000 C.3   154  TYR154      0.0534
     50  CG       -29.1110  -10.0170   20.4710 C.ar  154  TYR154     -0.0201
     51  CD1      -28.2170   -9.6540   19.4540 C.ar  154  TYR154     -0.0009
     52  CD2      -30.4480  -10.2380   20.1370 C.ar  154  TYR154     -0.0009
     53  CE1      -28.6520   -9.5310   18.1370 C.ar  154  TYR154      0.0417
     54  CE2      -30.8840  -10.1260   18.8300 C.ar  154  TYR154      0.0417
     55  CZ       -29.9880   -9.7780   17.8380 C.ar  154  TYR154      0.1957
     56  OH       -30.4290   -9.6560   16.5550 O.3   154  TYR154     -0.2866
     57  N        -30.2170   -4.2530   20.2030 N.3   158  LYS158     -0.1245
     58  CA       -31.0710   -4.0290   19.0350 C.3   158  LYS158      0.1561
     59  C        -32.1540   -2.9840   19.2910 C.2   158  LYS158      0.2260
     60  O        -32.4910   -2.2080   18.3880 O.2   158  LYS158     -0.2867
     61  CB       -31.6520   -5.3470   18.5310 C.3   158  LYS158      0.0271
     62  CG       -30.6200   -6.2740   17.8780 C.3   158  LYS158      0.0035
     63  CD       -29.9060   -5.6240   16.6750 C.3   158  LYS158      0.0206
     64  CE       -29.1640   -6.6550   15.8510 C.3   158  LYS158      0.1093
     65  NZ       -28.3260   -6.0290   14.7990 N.3   158  LYS158     -0.1314
     66  N        -36.3290  -11.3700   10.3410 N.3   185  GLY185     -0.1210
     67  CA       -36.9170  -12.2360   11.3820 C.3   185  GLY185      0.1956
     68  C        -35.9470  -13.3830   11.5540 C.2   185  GLY185      0.2612
     69  O        -34.9850  -13.3000   12.3350 O.2   185  GLY185     -0.2717
     70  N        -36.2000  -14.4810   10.8570 N.am  186  VAL186     -0.1965
     71  CA       -35.1680  -15.5120   10.7180 C.3   186  VAL186      0.1727
     72  C        -34.5940  -15.4630    9.3070 C.2   186  VAL186      0.2617
     73  O        -35.3210  -15.5570    8.3160 O.2   186  VAL186     -0.2715
     74  CB       -35.6370  -16.9410   11.0680 C.3   186  VAL186      0.0290
     75  CG1      -36.1670  -17.0100   12.4940 C.3   186  VAL186      0.0023
     76  CG2      -36.6410  -17.4690   10.0640 C.3   186  VAL186      0.0023
     77  N        -33.2850  -15.2670    9.2150 N.am  187  SER187     -0.1936
     78  CA       -32.6300  -15.3300    7.9230 C.3   187  SER187      0.2055
     79  C        -31.6110  -16.4370    8.0690 C.2   187  SER187      0.2643
     80  O        -31.9350  -17.4990    8.6090 O.2   187  SER187     -0.2714
     81  CB       -32.0250  -13.9780    7.5570 C.3   187  SER187      0.2130
     82  OG       -31.3600  -14.0150    6.2970 O.3   187  SER187     -0.2179
     83  N        -30.3820  -16.2070    7.6260 N.am  188  LEU188     -0.1963
     84  CA       -29.3580  -17.2600    7.7020 C.3   188  LEU188      0.1728
     85  C        -29.1760  -17.6960    9.1460 C.2   188  LEU188      0.2616
     86  O        -28.8120  -16.8800   10.0080 O.2   188  LEU188     -0.2715
     87  CB       -28.0240  -16.7750    7.1240 C.3   188  LEU188      0.0311
     88  CG       -28.0270  -16.3360    5.6530 C.3   188  LEU188      0.0022
     89  CD1      -26.6410  -15.8810    5.2060 C.3   188  LEU188      0.0001
     90  CD2      -28.5490  -17.4550    4.7560 C.3   188  LEU188      0.0001
     91  N        -29.4420  -18.9750    9.4050 N.am  189  LEU189     -0.1964
     92  CA       -29.3570  -19.5150   10.7490 C.3   189  LEU189      0.1713
     93  C        -27.8830  -19.6610   11.1440 C.2   189  LEU189      0.2458
     94  O        -27.0130  -19.7340   10.2640 O.2   189  LEU189     -0.2730
     95  CB       -30.0980  -20.8630   10.8510 C.3   189  LEU189      0.0310
     96  CG       -31.6330  -20.9190   11.0010 C.3   189  LEU189      0.0022
     97  CD1      -32.1570  -19.8430   11.9430 C.3   189  LEU189      0.0001
     98  CD2      -32.3400  -20.8890    9.6590 C.3   189  LEU189      0.0001
     99  N        -27.5980  -19.6870   12.4660 N.am  190  PRO190     -0.2727
    100  CA       -26.2350  -19.8980   12.9450 C.3   190  PRO190      0.1402
    101  C        -25.6450  -21.1670   12.3430 C.2   190  PRO190      0.2269
    102  O        -26.3330  -22.1910   12.2360 O.2   190  PRO190     -0.2865
    103  CB       -26.4160  -20.0560   14.4600 C.3   190  PRO190      0.0296
    104  CG       -27.6610  -19.2900   14.7730 C.3   190  PRO190      0.0237
    105  CD       -28.5540  -19.5330   13.5820 C.3   190  PRO190      0.0939
    106  N        -25.8760  -24.3730   14.3500 N.3   193  MET193     -0.1245
    107  CA       -27.2050  -24.8730   14.6810 C.3   193  MET193      0.1570
    108  C        -27.5150  -26.1340   13.8880 C.2   193  MET193      0.2261
    109  O        -27.2710  -26.1930   12.6770 O.2   193  MET193     -0.2867
    110  CB       -28.2570  -23.8000   14.4080 C.3   193  MET193      0.0387
    111  CG       -29.6510  -24.1240   14.9210 C.3   193  MET193      0.0595
    112  SD       -30.7590  -22.7280   14.6360 S.3   193  MET193     -0.1393
    113  CE       -32.1490  -23.1370   15.6810 C.3   193  MET193      0.0692
    114  N        -37.5670  -23.6180   13.5110 N.3   201  TRP201     -0.1241
    115  CA       -37.7530  -22.1980   13.2560 C.3   201  TRP201      0.1605
    116  C        -38.3580  -21.9350   11.8820 C.2   201  TRP201      0.2264
    117  O        -39.2520  -21.0990   11.7450 O.2   201  TRP201     -0.2867
    118  CB       -36.4400  -21.4460   13.4510 C.3   201  TRP201      0.0550
    119  CG       -36.2010  -21.2380   14.8960 C.ar  201  TRP201      0.0003
    120  CD1      -35.5640  -22.0890   15.7600 C.ar  201  TRP201      0.0946
    121  CD2      -36.6590  -20.1290   15.6830 C.ar  201  TRP201      0.0152
    122  NE1      -35.5740  -21.5580   17.0340 N.ar  201  TRP201     -0.2442
    123  CE2      -36.2400  -20.3590   17.0140 C.ar  201  TRP201      0.0810
    124  CE3      -37.3770  -18.9540   15.3880 C.ar  201  TRP201      0.0012
    125  CZ2      -36.5070  -19.4530   18.0530 C.ar  201  TRP201      0.0191
    126  CZ3      -37.6390  -18.0490   16.4260 C.ar  201  TRP201      0.0001
    127  CH2      -37.2060  -18.3120   17.7400 C.ar  201  TRP201      0.0015
@<TRIPOS>BOND
     1     4     3    2
     2     3     2    1
     3    90    88    1
     4     1     2    1
     5    89    88    1
     6     2     5    1
     7    88    87    1
     8    82    81    1
     9     5     6    1
    10     6     7    1
    11    87    84    1
    12    81    78    1
    13    83    84    1
    14    83    79   am
    15    84    85    1
    16    78    79    1
    17    78    77    1
    18    79    80    2
    19    73    72    2
    20     7     8    1
    21    85    91   am
    22    85    86    2
    23    10     9    1
    24    77    72   am
    25    72    71    1
    26     8     9    2
    27    91    92    1
    28    98    96    1
    29     9    11    1
    30    76    74    1
    31    94    93    2
    32    66    67    1
    33    71    70    1
    34    71    74    1
    35    92    95    1
    36    92    93    1
    37    95    96    1
    38    70    68   am
    39    96    97    1
    40    74    75    1
    41    93    99   am
    42    67    68    1
    43    68    69    2
    44   117   116    2
    45   116   115    1
    46   102   101    2
    47   101   100    1
    48    99   100    1
    49    99   105    1
    50   109   108    2
    51   100   103    1
    52   115   118    1
    53   115   114    1
    54   118   119    1
    55   105   104    1
    56   108   107    1
    57    12    13    1
    58    29    30    1
    59    30    31    1
    60    30    33    1
    61   106   107    1
    62   110   107    1
    63   110   111    1
    64    31    32    2
    65   103   104    1
    66   112   111    1
    67   112   113    1
    68    65    64    1
    69    16    13    1
    70    16    17    1
    71   119   121   ar
    72   119   120   ar
    73    13    14    1
    74    15    14    2
    75   124   121   ar
    76   124   126   ar
    77    43    42    1
    78    43    44    1
    79    42    41    1
    80    35    34   ar
    81    37    38    1
    82    33    34    1
    83   121   123   ar
    84   120   122   ar
    85    64    63    1
    86    34    36   ar
    87   126   127   ar
    88    56    55    1
    89    63    62    1
    90    38    41    1
    91    38    39    1
    92   123   122   ar
    93   123   125   ar
    94    25    27   ar
    95    25    23   ar
    96    22    23    1
    97    22    19    1
    98   127   125   ar
    99    27    28   ar
   100    55    53   ar
   101    55    54   ar
   102    62    61    1
   103    23    24   ar
   104    39    40    2
   105    53    51   ar
   106    28    26   ar
   107    60    59    2
   108    24    26   ar
   109    61    58    1
   110    18    19    1
   111    54    52   ar
   112    19    20    1
   113    58    59    1
   114    58    57    1
   115    21    20    2
   116    51    50   ar
   117    52    50   ar
   118    50    49    1
   119    48    47    2
   120    49    46    1
   121    47    46    1
   122    46    45    1
