@<TRIPOS>MOLECULE
tmp/5jd4C00.pdb
 103 97 0 0 0
SMALL
GASTEIGER

@<TRIPOS>ATOM
      1  N        106.0940   80.0490    2.5030 N.3    90  GLY90      -0.1210
      2  CA       104.8330   80.5730    2.9920 C.3    90  GLY90       0.1956
      3  C        104.9600   81.1380    4.3910 C.2    90  GLY90       0.2612
      4  O        106.0250   81.0660    5.0050 O.2    90  GLY90      -0.2717
      5  N        103.8680   81.7010    4.8960 N.am   91  GLY91      -0.1942
      6  CA       103.8630   82.3120    6.2120 C.3    91  GLY91       0.2014
      7  C        103.1080   83.6280    6.2350 C.2    91  GLY91       0.2639
      8  O        103.4770   84.5500    6.9650 O.2    91  GLY91      -0.2714
      9  N        102.0560   83.7140    5.4220 N.am   92  GLY92      -0.1939
     10  CA       101.1900   84.8820    5.3770 C.3    92  GLY92       0.2014
     11  C        101.8710   86.1980    5.0300 C.2    92  GLY92       0.2638
     12  O        101.3820   87.2630    5.4080 O.2    92  GLY92      -0.2714
     13  N        102.9900   86.1190    4.3120 N.am   93  PHE93      -0.1973
     14  CA       103.8010   87.2840    3.9480 C.3    93  PHE93       0.1639
     15  C        104.3420   88.0110    5.1820 C.2    93  PHE93       0.2290
     16  O        104.7400   89.1730    5.1010 O.2    93  PHE93      -0.2864
     17  CB       103.0030   88.2690    3.0800 C.3    93  PHE93       0.0560
     18  CG       102.3860   87.6520    1.8510 C.ar   93  PHE93      -0.0200
     19  CD1      103.1490   87.4110    0.7190 C.ar   93  PHE93      -0.0042
     20  CD2      101.0360   87.3380    1.8190 C.ar   93  PHE93      -0.0042
     21  CE1      102.5790   86.8530   -0.4160 C.ar   93  PHE93      -0.0003
     22  CE2      100.4610   86.7840    0.6870 C.ar   93  PHE93      -0.0003
     23  CZ       101.2350   86.5400   -0.4310 C.ar   93  PHE93      -0.0000
     24  N        104.3820   77.5680   -1.2000 N.3   162  ASP162     -0.1225
     25  CA       103.3040   77.0510   -0.3700 C.3   162  ASP162      0.1805
     26  C        102.5430   78.1930    0.2900 C.2   162  ASP162      0.2598
     27  O        103.1470   79.1550    0.7600 O.2   162  ASP162     -0.2718
     28  CB       103.8530   76.0880    0.6880 C.3   162  ASP162      0.1424
     29  CG       104.8700   76.7420    1.6060 C.2   162  ASP162      0.3668
     30  OD1      105.9460   77.1430    1.1140 O.co2 162  ASP162     -0.2456
     31  OD2      104.6020   76.8360    2.8230 O.co2 162  ASP162     -0.2456
     32  N        101.2170   78.0800    0.3010 N.am  163  SER163     -0.1938
     33  CA       100.3410   79.0590    0.9410 C.3   163  SER163      0.2055
     34  C        100.5190   80.4490    0.3400 C.2   163  SER163      0.2642
     35  O        100.2510   80.6600   -0.8450 O.2   163  SER163     -0.2714
     36  CB       100.5870   79.0890    2.4450 C.3   163  SER163      0.2130
     37  OG        99.7150   79.9770    3.1120 O.3   163  SER163     -0.2179
     38  N        100.9700   81.3960    1.1570 N.am  164  ALA164     -0.1977
     39  CA       101.2190   82.7480    0.6750 C.3   164  ALA164      0.1597
     40  C        102.2710   82.7260   -0.4300 C.2   164  ALA164      0.2287
     41  O        102.2520   83.5590   -1.3310 O.2   164  ALA164     -0.2864
     42  CB       101.6570   83.6510    1.8140 C.3   164  ALA164      0.0319
     43  N         96.9560   80.6370   -1.4410 N.3   193  ALA193     -0.1245
     44  CA        95.8730   81.5590   -1.1250 C.3   193  ALA193      0.1562
     45  C         95.5270   82.3390   -2.3880 C.2   193  ALA193      0.2260
     46  O         96.3420   83.1080   -2.8840 O.2   193  ALA193     -0.2867
     47  CB        96.2710   82.4970    0.0000 C.3   193  ALA193      0.0290
     48  N         87.0310   77.9270    4.1580 N.3   203  ARG203     -0.1245
     49  CA        87.5430   79.0390    4.9580 C.3   203  ARG203      0.1563
     50  C         86.7540   79.1920    6.2540 C.2   203  ARG203      0.2260
     51  O         87.3170   79.4760    7.3090 O.2   203  ARG203     -0.2867
     52  CB        87.4950   80.3470    4.1650 C.3   203  ARG203      0.0307
     53  CG        88.6490   80.5450    3.1930 C.3   203  ARG203      0.0489
     54  CD        89.5020   81.7380    3.5960 C.3   203  ARG203      0.2205
     55  NE        90.5240   82.0490    2.6000 N.pl3 203  ARG203     -0.0865
     56  CZ        91.4260   83.0170    2.7340 C.cat 203  ARG203      0.5346
     57  NH1       91.4360   83.7710    3.8250 N.pl3 203  ARG203      0.1354
     58  NH2       92.3200   83.2330    1.7780 N.pl3 203  ARG203      0.1354
     59  N         96.1480   76.3140   11.0150 N.3   212  LEU212     -0.1245
     60  CA        95.8830   77.6410   10.4650 C.3   212  LEU212      0.1561
     61  C         94.4890   78.1110   10.8680 C.2   212  LEU212      0.2260
     62  O         93.4870   77.5770   10.3910 O.2   212  LEU212     -0.2867
     63  CB        96.0190   77.6320    8.9410 C.3   212  LEU212      0.0270
     64  CG        95.7740   78.9620    8.2270 C.3   212  LEU212      0.0019
     65  CD1       96.8550   79.9700    8.5870 C.3   212  LEU212      0.0001
     66  CD2       95.7010   78.7630    6.7190 C.3   212  LEU212      0.0001
     67  N         95.0110   84.2580   10.7230 N.3   217  MET217     -0.1245
     68  CA        94.9450   84.8270    9.3800 C.3   217  MET217      0.1570
     69  C         94.6450   86.3210    9.4440 C.2   217  MET217      0.2261
     70  O         95.1320   87.0930    8.6190 O.2   217  MET217     -0.2867
     71  CB        93.8920   84.1070    8.5290 C.3   217  MET217      0.0387
     72  CG        94.2240   82.6500    8.2260 C.3   217  MET217      0.0595
     73  SD        93.0700   81.8830    7.0660 S.3   217  MET217     -0.1393
     74  CE        91.5040   82.3780    7.7750 C.3   217  MET217      0.0692
     75  N         97.9390   87.9450   10.4310 N.3   220  PHE220     -0.1241
     76  CA        98.7360   88.0930    9.2190 C.3   220  PHE220      0.1605
     77  C         98.2700   89.2940    8.4070 C.2   220  PHE220      0.2264
     78  O         99.0770   90.1010    7.9430 O.2   220  PHE220     -0.2867
     79  CB        98.6460   86.8310    8.3520 C.3   220  PHE220      0.0534
     80  CG        99.4320   85.6630    8.8760 C.ar  220  PHE220     -0.0203
     81  CD1      100.6440   85.8510    9.5170 C.ar  220  PHE220     -0.0042
     82  CD2       98.9610   84.3680    8.7090 C.ar  220  PHE220     -0.0042
     83  CE1      101.3720   84.7700    9.9910 C.ar  220  PHE220     -0.0003
     84  CE2       99.6820   83.2820    9.1800 C.ar  220  PHE220     -0.0003
     85  CZ       100.8900   83.4830    9.8220 C.ar  220  PHE220     -0.0000
     86  N         92.1570   77.0820    3.0440 N.3   260  LEU260     -0.1245
     87  CA        92.4340   77.5170    1.6780 C.3   260  LEU260      0.1561
     88  C         92.0980   76.4620    0.6290 C.2   260  LEU260      0.2260
     89  O         92.3300   76.6800   -0.5610 O.2   260  LEU260     -0.2867
     90  CB        93.9070   77.9060    1.5350 C.3   260  LEU260      0.0270
     91  CG        94.4550   78.9320    2.5270 C.3   260  LEU260      0.0019
     92  CD1       95.9060   79.2550    2.1970 C.3   260  LEU260      0.0001
     93  CD2       93.6050   80.1890    2.5210 C.3   260  LEU260      0.0001
     94  N         96.6100   72.3570    6.5690 N.3   288  HIS288     -0.1241
     95  CA        97.4570   73.4210    6.0490 C.3   288  HIS288      0.1621
     96  C         98.8410   73.3290    6.6850 C.2   288  HIS288      0.2264
     97  O         98.9600   73.1040    7.8890 O.2   288  HIS288     -0.2867
     98  CB        96.8280   74.7880    6.3360 C.3   288  HIS288      0.0745
     99  CG        97.6290   75.9450    5.8280 C.ar  288  HIS288      0.0817
    100  ND1       97.4880   76.4430    4.5500 N.ar  288  HIS288     -0.2268
    101  CD2       98.5770   76.7050    6.4250 C.ar  288  HIS288      0.1154
    102  CE1       98.3130   77.4610    4.3830 C.ar  288  HIS288      0.1986
    103  NE2       98.9870   77.6390    5.5050 N.ar  288  HIS288     -0.2212
@<TRIPOS>BOND
     1    46    45    2
     2    45    44    1
     3    43    44    1
     4    41    40    2
     5    24    25    1
     6    44    47    1
     7    35    34    2
     8    89    88    2
     9    23    21   ar
    10    23    22   ar
    11    40    39    1
    12    21    19   ar
    13    25    26    1
    14    25    28    1
    15    26    32   am
    16    26    27    2
    17    32    33    1
    18    34    33    1
    19    34    38   am
    20    88    87    1
    21    39    38    1
    22    39    42    1
    23    22    20   ar
    24    28    29    1
    25    19    18   ar
    26    33    36    1
    27    30    29   ar
    28    90    87    1
    29    90    91    1
    30    29    31   ar
    31    87    86    1
    32    58    56    1
    33    20    18   ar
    34    18    17    1
    35    92    91    1
    36    36    37    1
    37     1     2    1
    38    93    91    1
    39    55    56    2
    40    55    54    1
    41    56    57    1
    42     2     3    1
    43    17    14    1
    44    53    54    1
    45    53    52    1
    46    14    13    1
    47    14    15    1
    48    48    49    1
    49    52    49    1
    50    13    11   am
    51   102   100   ar
    52   102   103   ar
    53     3     5   am
    54     3     4    2
    55   100    99   ar
    56     5     6    1
    57    49    50    1
    58    11    10    1
    59    11    12    2
    60    16    15    2
    61    10     9    1
    62     9     7   am
    63   103   101   ar
    64    99    98    1
    65    99   101   ar
    66    95    98    1
    67    95    94    1
    68    95    96    1
    69     6     7    1
    70     7     8    2
    71    50    51    2
    72    96    97    2
    73    66    64    1
    74    73    74    1
    75    73    72    1
    76    78    77    2
    77    72    71    1
    78    64    65    1
    79    64    63    1
    80    79    80    1
    81    79    76    1
    82    77    76    1
    83    71    68    1
    84    70    69    2
    85    82    80   ar
    86    82    84   ar
    87    80    81   ar
    88    63    60    1
    89    84    85   ar
    90    76    75    1
    91    68    69    1
    92    68    67    1
    93    81    83   ar
    94    85    83   ar
    95    62    61    2
    96    60    61    1
    97    60    59    1
