@<TRIPOS>MOLECULE
tmp/5jd4D00.pdb
 95 87 0 0 0
SMALL
GASTEIGER

@<TRIPOS>ATOM
      1  N        104.5330   57.8100   16.4700 N.3    11  LEU11      -0.1245
      2  CA       105.9830   57.9850   16.4730 C.3    11  LEU11       0.1561
      3  C        106.6870   56.7670   15.8830 C.2    11  LEU11       0.2260
      4  O        107.6490   56.9020   15.1260 O.2    11  LEU11      -0.2867
      5  CB       106.4980   58.2500   17.8910 C.3    11  LEU11       0.0270
      6  CG       108.0200   58.3640   18.0320 C.3    11  LEU11       0.0019
      7  CD1      108.5730   59.4530   17.1210 C.3    11  LEU11       0.0001
      8  CD2      108.4180   58.6180   19.4790 C.3    11  LEU11       0.0001
      9  N        106.1820   56.8230   12.1390 N.3    14  LEU14      -0.1231
     10  CA       107.0650   57.8230   11.5550 C.3    14  LEU14       0.1693
     11  C        108.4960   57.3020   11.4530 C.2    14  LEU14       0.2591
     12  O        109.1830   57.5350   10.4580 O.2    14  LEU14      -0.2718
     13  CB       107.0290   59.1100   12.3790 C.3    14  LEU14       0.0284
     14  CG       105.7890   59.9960   12.2700 C.3    14  LEU14       0.0019
     15  CD1      105.9040   61.1790   13.2140 C.3    14  LEU14       0.0001
     16  CD2      105.5940   60.4690   10.8390 C.3    14  LEU14       0.0001
     17  N        108.9380   56.5920   12.4860 N.am   15  MET15      -0.1979
     18  CA       110.2680   55.9920   12.4900 C.3    15  MET15       0.1605
     19  C        110.3920   54.8860   11.4460 C.2    15  MET15       0.2287
     20  O        111.4060   54.7910   10.7540 O.2    15  MET15      -0.2864
     21  CB       110.5970   55.4360   13.8740 C.3    15  MET15       0.0413
     22  CG       110.8670   56.5010   14.9230 C.3    15  MET15       0.0598
     23  SD       111.0550   55.7700   16.5580 S.3    15  MET15      -0.1393
     24  CE       112.0990   54.3680   16.1650 C.3    15  MET15       0.0692
     25  N        110.8070   56.2930    8.0890 N.3    18  ALA18      -0.1245
     26  CA       112.1650   56.7810    7.8880 C.3    18  ALA18       0.1562
     27  C        113.1180   55.6380    7.5550 C.2    18  ALA18       0.2260
     28  O        113.9700   55.7700    6.6760 O.2    18  ALA18      -0.2867
     29  CB       112.6430   57.5290    9.1180 C.3    18  ALA18       0.0290
     30  N        116.8820   55.7330    6.0850 N.3    23  ARG23      -0.1245
     31  CA       117.5710   56.0220    7.3390 C.3    23  ARG23       0.1563
     32  C        118.1960   54.7470    7.8980 C.2    23  ARG23       0.2260
     33  O        117.4900   53.7800    8.1910 O.2    23  ARG23      -0.2867
     34  CB       116.6190   56.6370    8.3660 C.3    23  ARG23       0.0307
     35  CG       117.2660   56.8920    9.7190 C.3    23  ARG23       0.0489
     36  CD       116.2340   57.2220   10.7860 C.3    23  ARG23       0.2205
     37  NE       115.7360   58.5900   10.6770 N.pl3  23  ARG23      -0.0865
     38  CZ       114.7200   59.0710   11.3860 C.cat  23  ARG23       0.5346
     39  NH1      114.0870   58.2920   12.2520 N.pl3  23  ARG23       0.1354
     40  NH2      114.3310   60.3280   11.2250 N.pl3  23  ARG23       0.1354
     41  N        123.0920   59.9320   16.1580 N.3    38  VAL38      -0.1245
     42  CA       121.9290   59.6590   16.9950 C.3    38  VAL38       0.1561
     43  C        121.7780   60.7060   18.1030 C.2    38  VAL38       0.2260
     44  O        120.6570   61.0520   18.4840 O.2    38  VAL38      -0.2867
     45  CB       121.9860   58.2320   17.6070 C.3    38  VAL38       0.0252
     46  CG1      123.1360   58.0930   18.5950 C.3    38  VAL38       0.0019
     47  CG2      120.6600   57.8810   18.2690 C.3    38  VAL38       0.0019
     48  N        119.7790   63.5020   16.8880 N.3    41  MET41      -0.1230
     49  CA       118.3740   63.1140   16.8280 C.3    41  MET41       0.1702
     50  C        117.7520   63.1050   18.2220 C.2    41  MET41       0.2593
     51  O        116.6130   63.5350   18.4050 O.2    41  MET41      -0.2718
     52  CB       118.2240   61.7450   16.1650 C.3    41  MET41       0.0401
     53  CG       118.7100   61.7140   14.7240 C.3    41  MET41       0.0596
     54  SD       118.4040   60.1320   13.9210 S.3    41  MET41      -0.1393
     55  CE       116.6310   59.9960   14.1190 C.3    41  MET41       0.0692
     56  N        118.5090   62.6230   19.2020 N.am   42  SER42      -0.1952
     57  CA       118.0550   62.6240   20.5870 C.3    42  SER42       0.1924
     58  C        117.7800   64.0440   21.0790 C.2    42  SER42       0.2314
     59  O        116.7840   64.2850   21.7610 O.2    42  SER42      -0.2863
     60  CB       119.0830   61.9410   21.4900 C.3    42  SER42       0.2116
     61  OG       119.2260   60.5720   21.1520 O.3    42  SER42      -0.2180
     62  N        114.7260   65.2180   19.6270 N.3    45  GLY45      -0.1225
     63  CA       113.6160   64.4420   20.1520 C.3    45  GLY45       0.1811
     64  C        113.0160   65.0190   21.4220 C.2    45  GLY45       0.2280
     65  O        111.8760   64.7100   21.7750 O.2    45  GLY45      -0.2866
     66  N        111.0780   50.8170   19.3710 N.3   211  PHE211     -0.1241
     67  CA       112.1740   51.7780   19.5460 C.3   211  PHE211      0.1605
     68  C        113.4740   51.1120   19.9990 C.2   211  PHE211      0.2264
     69  O        114.4620   51.1010   19.2650 O.2   211  PHE211     -0.2867
     70  CB       111.7670   52.8790   20.5350 C.3   211  PHE211      0.0534
     71  CG       112.7280   54.0300   20.5960 C.ar  211  PHE211     -0.0203
     72  CD1      112.8990   54.8660   19.5060 C.ar  211  PHE211     -0.0042
     73  CD2      113.4470   54.2900   21.7520 C.ar  211  PHE211     -0.0042
     74  CE1      113.7790   55.9330   19.5600 C.ar  211  PHE211     -0.0003
     75  CE2      114.3270   55.3570   21.8150 C.ar  211  PHE211     -0.0003
     76  CZ       114.4940   56.1790   20.7170 C.ar  211  PHE211     -0.0000
     77  N        111.6080   61.8140   24.9080 N.3   293  LEU293     -0.1245
     78  CA       111.1030   61.9830   23.5460 C.3   293  LEU293      0.1561
     79  C        109.9230   62.9470   23.5550 C.2   293  LEU293      0.2260
     80  O        108.9180   62.7380   22.8720 O.2   293  LEU293     -0.2867
     81  CB       110.6870   60.6400   22.9430 C.3   293  LEU293      0.0270
     82  CG       111.8140   59.6830   22.5510 C.3   293  LEU293      0.0019
     83  CD1      111.2570   58.3210   22.1560 C.3   293  LEU293      0.0001
     84  CD2      112.6440   60.2740   21.4220 C.3   293  LEU293      0.0001
     85  N        107.5540   64.4580   20.7760 N.3   296  PHE296     -0.1241
     86  CA       106.5710   63.6030   20.1090 C.3   296  PHE296      0.1605
     87  C        105.5610   62.9810   21.0680 C.2   296  PHE296      0.2264
     88  O        104.4320   62.6790   20.6790 O.2   296  PHE296     -0.2867
     89  CB       107.2770   62.4850   19.3390 C.3   296  PHE296      0.0534
     90  CG       108.2740   62.9770   18.3320 C.ar  296  PHE296     -0.0203
     91  CD1      107.8580   63.4590   17.1020 C.ar  296  PHE296     -0.0042
     92  CD2      109.6310   62.9480   18.6120 C.ar  296  PHE296     -0.0042
     93  CE1      108.7760   63.9120   16.1720 C.ar  296  PHE296     -0.0003
     94  CE2      110.5550   63.3980   17.6860 C.ar  296  PHE296     -0.0003
     95  CZ       110.1270   63.8810   16.4650 C.ar  296  PHE296     -0.0000
@<TRIPOS>BOND
     1    30    31    1
     2    28    27    2
     3    31    32    1
     4    31    34    1
     5    27    26    1
     6    26    25    1
     7    26    29    1
     8    32    33    2
     9    34    35    1
    10    35    36    1
    11    12    11    2
    12    37    36    1
    13    37    38    2
    14    20    19    2
    15    16    14    1
    16    40    38    1
    17    38    39    1
    18    19    18    1
    19    11    10    1
    20    11    17   am
    21    10     9    1
    22    10    13    1
    23    14    13    1
    24    14    15    1
    25    17    18    1
    26    18    21    1
    27    21    22    1
    28    54    55    1
    29    54    53    1
    30    53    52    1
    31    22    23    1
    32     4     3    2
    33     3     2    1
    34    41    42    1
    35    24    23    1
    36    52    49    1
    37    93    95   ar
    38    93    91   ar
    39    95    94   ar
    40     1     2    1
    41     2     5    1
    42    49    48    1
    43    49    50    1
    44    42    45    1
    45    42    43    1
    46    91    90   ar
    47     7     6    1
    48    45    47    1
    49    45    46    1
    50    94    92   ar
    51     5     6    1
    52     6     8    1
    53    43    44    2
    54    50    51    2
    55    50    56   am
    56    90    92   ar
    57    90    89    1
    58    56    57    1
    59    69    68    2
    60    89    86    1
    61    66    67    1
    62    72    74   ar
    63    72    71   ar
    64    67    68    1
    65    67    70    1
    66    74    76   ar
    67    62    63    1
    68    86    85    1
    69    86    87    1
    70    63    64    1
    71    70    71    1
    72    57    58    1
    73    57    60    1
    74    71    73   ar
    75    88    87    2
    76    76    75   ar
    77    58    59    2
    78    61    60    1
    79    84    82    1
    80    64    65    2
    81    73    75   ar
    82    83    82    1
    83    82    81    1
    84    80    79    2
    85    81    78    1
    86    78    79    1
    87    78    77    1
