@<TRIPOS>MOLECULE
tmp/5jd7A00.pdb
 162 156 0 0 0
SMALL
GASTEIGER

@<TRIPOS>ATOM
      1  N         -1.3770   16.0770   13.7440 N.3    43  ILE43      -0.1245
      2  CA        -1.5880   15.9160   12.3150 C.3    43  ILE43       0.1561
      3  C         -2.9620   16.4660   11.9930 C.2    43  ILE43       0.2260
      4  O         -3.9070   16.2900   12.7650 O.2    43  ILE43      -0.2867
      5  CB        -1.5280   14.4390   11.8800 C.3    43  ILE43       0.0252
      6  CG1       -0.1130   13.8870   11.9930 C.3    43  ILE43       0.0019
      7  CG2       -2.1200   14.2860   10.4470 C.3    43  ILE43       0.0019
      8  CD1       -0.0430   12.3780   11.6750 C.3    43  ILE43       0.0001
      9  N         -7.7280   10.1690   17.5000 N.3    62  VAL62      -0.1245
     10  CA        -7.7670   10.1630   16.0390 C.3    62  VAL62       0.1561
     11  C         -9.1910   10.4530   15.6060 C.2    62  VAL62       0.2260
     12  O        -10.1360    9.8400   16.1150 O.2    62  VAL62      -0.2867
     13  CB        -7.3000    8.8330   15.4260 C.3    62  VAL62       0.0252
     14  CG1       -7.2100    8.9650   13.8970 C.3    62  VAL62       0.0019
     15  CG2       -5.9660    8.4120   16.0030 C.3    62  VAL62       0.0019
     16  N        -11.6740   11.8140   11.9640 N.3    64  ARG64      -0.1245
     17  CA       -11.6740   11.9930   10.5160 C.3    64  ARG64       0.1563
     18  C        -13.0030   12.5830   10.0610 C.2    64  ARG64       0.2260
     19  O        -14.0600   12.1480   10.5270 O.2    64  ARG64      -0.2867
     20  CB       -11.4170   10.6560    9.8090 C.3    64  ARG64       0.0307
     21  CG       -11.4530   10.7360    8.3010 C.3    64  ARG64       0.0489
     22  CD       -11.1010    9.4230    7.6310 C.3    64  ARG64       0.2205
     23  NE       -11.8300    9.3180    6.3770 N.pl3  64  ARG64      -0.0865
     24  CZ       -11.4990    9.9670    5.2680 C.cat  64  ARG64       0.5346
     25  NH1      -10.4330   10.7610    5.2380 N.pl3  64  ARG64       0.1354
     26  NH2      -12.2340    9.8190    4.1880 N.pl3  64  ARG64       0.1354
     27  N        -15.4670   12.6450    7.1560 N.3    66  ASP66      -0.1239
     28  CA       -15.8370   11.8120    6.0090 C.3    66  ASP66       0.1674
     29  C        -16.9250   12.4890    5.1640 C.2    66  ASP66       0.2266
     30  O        -16.7880   12.6290    3.9450 O.2    66  ASP66      -0.2867
     31  CB       -16.3270   10.4430    6.4940 C.3    66  ASP66       0.1410
     32  CG       -16.3620    9.3800    5.4210 C.2    66  ASP66       0.3668
     33  OD1      -15.9560    9.5910    4.2890 O.co2  66  ASP66      -0.2456
     34  OD2      -16.6890    8.2350    5.7400 O.co2  66  ASP66      -0.2456
     35  N        -12.4360    8.3950   15.8410 N.3    72  LEU72      -0.1231
     36  CA       -12.0340    7.0670   15.3960 C.3    72  LEU72       0.1693
     37  C        -11.4720    6.2490   16.5520 C.2    72  LEU72       0.2591
     38  O        -12.0130    5.1900   16.8920 O.2    72  LEU72      -0.2718
     39  CB       -11.0060    7.1740   14.2700 C.3    72  LEU72       0.0284
     40  CG       -11.3850    7.9410   12.9980 C.3    72  LEU72       0.0019
     41  CD1      -10.4480    7.5680   11.8280 C.3    72  LEU72       0.0001
     42  CD2      -12.8430    7.7040   12.6530 C.3    72  LEU72       0.0001
     43  N        -10.4010    6.7230   17.1800 N.am   73  ARG73      -0.1980
     44  CA        -9.7930    5.9330   18.2410 C.3    73  ARG73       0.1597
     45  C         -8.7940    6.7780   19.0140 C.2    73  ARG73       0.2287
     46  O         -8.4130    7.8780   18.6010 O.2    73  ARG73      -0.2864
     47  CB        -9.1110    4.6830   17.6900 C.3    73  ARG73       0.0334
     48  CG        -7.7800    4.9800   16.9820 C.3    73  ARG73       0.0492
     49  CD        -7.2930    3.7740   16.2310 C.3    73  ARG73       0.2205
     50  NE        -8.0550    3.5890   14.9990 N.pl3  73  ARG73      -0.0865
     51  CZ        -8.8890    2.5820   14.7610 C.cat  73  ARG73       0.5346
     52  NH1       -9.0920    1.6170   15.6610 N.pl3  73  ARG73       0.1354
     53  NH2       -9.5230    2.5410   13.6020 N.pl3  73  ARG73       0.1354
     54  N         -4.9970    6.4020   20.8760 N.3    75  LEU75      -0.1245
     55  CA        -3.7740    5.6100   20.8730 C.3    75  LEU75       0.1561
     56  C         -2.8880    6.0680   22.0240 C.2    75  LEU75       0.2260
     57  O         -2.9630    7.2160   22.4600 O.2    75  LEU75      -0.2867
     58  CB        -3.0110    5.7310   19.5240 C.3    75  LEU75       0.0270
     59  CG        -3.7120    5.3720   18.2090 C.3    75  LEU75       0.0019
     60  CD1       -2.8650    5.8100   17.0140 C.3    75  LEU75       0.0001
     61  CD2       -3.9520    3.8910   18.1130 C.3    75  LEU75       0.0001
     62  N          1.4220    3.8930   17.2230 N.3    80  TRP80      -0.1227
     63  CA         2.0980    4.6810   16.1990 C.3    80  TRP80       0.1737
     64  C          1.0710    5.0890   15.1570 C.2    80  TRP80       0.2595
     65  O         -0.0190    4.5190   15.0770 O.2    80  TRP80      -0.2718
     66  CB         3.2410    3.9000   15.5360 C.3    80  TRP80       0.0564
     67  CG         2.8960    2.4930   15.2210 C.ar   80  TRP80       0.0003
     68  CD1        3.1770    1.3900   15.9740 C.ar   80  TRP80       0.0946
     69  CD2        2.1710    2.0110   14.0740 C.ar   80  TRP80       0.0152
     70  NE1        2.6830    0.2480   15.3720 N.ar   80  TRP80      -0.2442
     71  CE2        2.0690    0.5970   14.2030 C.ar   80  TRP80       0.0810
     72  CE3        1.6200    2.6270   12.9530 C.ar   80  TRP80       0.0012
     73  CZ2        1.4330   -0.1930   13.2550 C.ar   80  TRP80       0.0191
     74  CZ3        0.9850    1.8510   12.0250 C.ar   80  TRP80       0.0001
     75  CH2        0.8920    0.4390   12.1790 C.ar   80  TRP80       0.0015
     76  N          1.4340    6.0730   14.3500 N.am   81  PHE81      -0.1962
     77  CA         0.5110    6.6020   13.3590 C.3    81  PHE81       0.1771
     78  C          1.2920    7.4650   12.3700 C.2    81  PHE81       0.2620
     79  O          2.4700    7.7800   12.5700 O.2    81  PHE81      -0.2715
     80  CB        -0.5970    7.4150   14.0310 C.3    81  PHE81       0.0574
     81  CG        -0.0700    8.5790   14.8600 C.ar   81  PHE81      -0.0200
     82  CD1        0.1690    8.4370   16.2020 C.ar   81  PHE81      -0.0042
     83  CD2        0.2100    9.8090   14.2660 C.ar   81  PHE81      -0.0042
     84  CE1        0.6650    9.4730   16.9510 C.ar   81  PHE81      -0.0003
     85  CE2        0.6970   10.8380   14.9850 C.ar   81  PHE81      -0.0003
     86  CZ         0.9270   10.6930   16.3410 C.ar   81  PHE81      -0.0000
     87  N          0.6170    7.8090   11.2850 N.am   82  GLY82      -0.1940
     88  CA         1.1920    8.6260   10.2420 C.3    82  GLY82       0.2014
     89  C          1.7150    7.8300    9.0590 C.2    82  GLY82       0.2639
     90  O          2.4020    8.3990    8.2020 O.2    82  GLY82      -0.2714
     91  N          1.4480    6.5270    9.0080 N.am   83  GLU83      -0.1963
     92  CA         2.0090    5.7110    7.9390 C.3    83  GLU83       0.1733
     93  C          1.2760    5.9020    6.6080 C.2    83  GLU83       0.2616
     94  O          1.8530    5.6500    5.5400 O.2    83  GLU83      -0.2715
     95  CB         2.0110    4.2210    8.3290 C.3    83  GLU83       0.0429
     96  CG         0.7060    3.4310    8.1270 C.3    83  GLU83       0.1163
     97  CD        -0.3960    3.7700    9.1210 C.2    83  GLU83       0.3649
     98  OE1       -0.1490    4.5380   10.0870 O.co2  83  GLU83      -0.2457
     99  OE2       -1.5280    3.2510    8.9260 O.co2  83  GLU83      -0.2457
    100  N          0.0040    6.2880    6.6120 N.am   84  LYS84      -0.1963
    101  CA        -0.7180    6.2320    5.3360 C.3    84  LYS84       0.1728
    102  C         -0.1440    7.2460    4.3430 C.2    84  LYS84       0.2616
    103  O         -0.0010    6.9470    3.1520 O.2    84  LYS84      -0.2715
    104  CB        -2.2150    6.4510    5.5630 C.3    84  LYS84       0.0311
    105  CG        -2.7810    5.3920    6.5230 C.3    84  LYS84       0.0038
    106  CD        -4.2900    5.2890    6.4290 C.3    84  LYS84       0.0206
    107  CE        -4.7620    4.6080    5.1400 C.3    84  LYS84       0.1093
    108  NZ        -4.4610    3.1950    5.1090 N.3    84  LYS84      -0.1314
    109  N          0.2320    8.4300    4.8240 N.am   85  ALA85      -0.1977
    110  CA         0.8790    9.4300    3.9690 C.3    85  ALA85       0.1597
    111  C          2.2650    9.0060    3.5140 C.2    85  ALA85       0.2287
    112  O          2.8540    9.6740    2.6490 O.2    85  ALA85      -0.2864
    113  CB         0.9840   10.7640    4.6940 C.3    85  ALA85       0.0319
    114  N         -0.9650   12.3870    1.3920 N.3    91  VAL91      -0.1231
    115  CA        -1.9850   13.1610    2.0880 C.3    91  VAL91       0.1692
    116  C         -2.3060   12.5040    3.4270 C.2    91  VAL91       0.2592
    117  O         -2.3720   11.2660    3.5460 O.2    91  VAL91      -0.2718
    118  CB        -3.2450   13.3080    1.2210 C.3    91  VAL91       0.0266
    119  CG1       -3.8970   11.9640    1.0340 C.3    91  VAL91       0.0020
    120  CG2       -4.2080   14.3080    1.8840 C.3    91  VAL91       0.0020
    121  N         -2.5280   13.3290    4.4420 N.am   92  ARG92      -0.1966
    122  CA        -2.9600   12.8390    5.7420 C.3    92  ARG92       0.1729
    123  C         -4.4450   12.5440    5.6840 C.2    92  ARG92       0.2617
    124  O         -5.2100   13.3740    5.2060 O.2    92  ARG92      -0.2715
    125  CB        -2.6800   13.8760    6.8210 C.3    92  ARG92       0.0348
    126  CG        -1.2380   14.2070    6.9830 C.3    92  ARG92       0.0492
    127  CD        -0.4660   12.9700    7.4460 C.3    92  ARG92       0.2205
    128  NE         0.8400   13.3350    7.9910 N.pl3  92  ARG92      -0.0865
    129  CZ         1.7920   12.4870    8.3470 C.cat  92  ARG92       0.5346
    130  NH1        1.6350   11.1540    8.2420 N.pl3  92  ARG92       0.1354
    131  NH2        2.9420   13.0050    8.7990 N.pl3  92  ARG92       0.1354
    132  N         -4.8480   11.3570    6.1460 N.am   93  THR93      -0.1937
    133  CA        -6.2160   10.8850    6.0060 C.3    93  THR93       0.2028
    134  C         -7.0310   11.0140    7.2800 C.2    93  THR93       0.2642
    135  O         -8.1880   10.5880    7.2950 O.2    93  THR93      -0.2714
    136  CB        -6.2200    9.4370    5.5340 C.3    93  THR93       0.1808
    137  OG1       -5.7320    8.5540    6.5740 O.3    93  THR93      -0.2208
    138  CG2       -5.3860    9.3210    4.2990 C.3    93  THR93       0.0379
    139  N         -6.4700   11.6050    8.3350 N.am   94  ALA94      -0.1977
    140  CA        -7.1730   11.7770    9.6000 C.3    94  ALA94       0.1597
    141  C         -6.4270   12.7980   10.4450 C.2    94  ALA94       0.2287
    142  O         -5.2360   13.0470   10.2430 O.2    94  ALA94      -0.2864
    143  CB        -7.2900   10.4570   10.3690 C.3    94  ALA94       0.0319
    144  N         -4.9250   13.7490   14.1840 N.3    96  VAL96      -0.1245
    145  CA        -4.4200   13.1530   15.4200 C.3    96  VAL96       0.1561
    146  C         -4.1660   14.3040   16.3890 C.2    96  VAL96       0.2260
    147  O         -3.3510   15.1860   16.0960 O.2    96  VAL96      -0.2867
    148  CB        -3.1270   12.3380   15.2080 C.3    96  VAL96       0.0252
    149  CG1       -2.7770   11.5950   16.4880 C.3    96  VAL96       0.0019
    150  CG2       -3.2500   11.3680   14.0240 C.3    96  VAL96       0.0019
    151  N         -7.8070   -0.2480    8.9670 N.3   127  TYR127     -0.1241
    152  CA        -8.6200    0.3750   10.0120 C.3   127  TYR127      0.1605
    153  C        -10.1170    0.0160    9.9700 C.2   127  TYR127      0.2264
    154  O        -10.8980    0.6610    9.2710 O.2   127  TYR127     -0.2867
    155  CB        -8.4370    1.8730    9.9230 C.3   127  TYR127      0.0534
    156  CG        -7.0090    2.2720   10.2120 C.ar  127  TYR127     -0.0201
    157  CD1       -6.1060    2.5180    9.1820 C.ar  127  TYR127     -0.0009
    158  CD2       -6.5610    2.3690   11.5120 C.ar  127  TYR127     -0.0009
    159  CE1       -4.7870    2.8850    9.4610 C.ar  127  TYR127      0.0417
    160  CE2       -5.2590    2.7340   11.7960 C.ar  127  TYR127      0.0417
    161  CZ        -4.3750    2.9820   10.7630 C.ar  127  TYR127      0.1957
    162  OH        -3.0720    3.3500   11.0680 O.3   127  TYR127     -0.2866
@<TRIPOS>BOND
     1   119   118    1
     2   118   120    1
     3   118   115    1
     4   114   115    1
     5   115   116    1
     6   112   111    2
     7   103   102    2
     8   116   117    2
     9   116   121   am
    10   111   110    1
    11    30    29    2
    12   110   113    1
    13   110   109    1
    14    26    24    1
    15    33    32   ar
    16   138   136    1
    17   102   109   am
    18   102   101    1
    19   121   122    1
    20   108   107    1
    21   107   106    1
    22    29    28    1
    23   124   123    2
    24    25    24    1
    25    24    23    2
    26   101   104    1
    27   101   100    1
    28    32    34   ar
    29    32    31    1
    30   136   133    1
    31   136   137    1
    32    94    93    2
    33   104   105    1
    34   123   122    1
    35   123   132   am
    36   122   125    1
    37   133   132    1
    38   133   134    1
    39    28    31    1
    40    28    27    1
    41    23    22    1
    42   106   105    1
    43    93   100   am
    44    93    92    1
    45   125   126    1
    46   126   127    1
    47   134   135    2
    48   134   139   am
    49   127   128    1
    50    22    21    1
    51    92    95    1
    52    92    91    1
    53   128   129    2
    54    96    95    1
    55    96    97    1
    56    90    89    2
    57   130   129    1
    58    21    20    1
    59   139   140    1
    60   129   131    1
    61    99    97   ar
    62   151   152    1
    63    91    89   am
    64    89    88    1
    65    97    98   ar
    66   157   159   ar
    67   157   156   ar
    68   154   153    2
    69   159   161   ar
    70   140   143    1
    71   140   141    1
    72    20    17    1
    73   155   152    1
    74   155   156    1
    75   153   152    1
    76    18    17    1
    77    18    19    2
    78   156   158   ar
    79    88    87    1
    80   142   141    2
    81     7     5    1
    82    17    16    1
    83   161   162    1
    84   161   160   ar
    85    87    78   am
    86   158   160   ar
    87     8     6    1
    88    41    40    1
    89     5     6    1
    90     5     2    1
    91     3     2    1
    92     3     4    2
    93    74    75   ar
    94    74    72   ar
    95    75    73   ar
    96     2     1    1
    97    78    79    2
    98    78    77    1
    99    42    40    1
   100    72    69   ar
   101    40    39    1
   102    73    71   ar
   103    77    80    1
   104    77    76    1
   105    53    51    1
   106    14    13    1
   107   150   148    1
   108    80    81    1
   109    69    71   ar
   110    69    67   ar
   111   144   145    1
   112    71    70   ar
   113    83    81   ar
   114    83    85   ar
   115    39    36    1
   116    76    64   am
   117    51    50    2
   118    51    52    1
   119    81    82   ar
   120    85    86   ar
   121    50    49    1
   122    65    64    2
   123    64    63    1
   124   148   145    1
   125   148   149    1
   126    67    66    1
   127    67    68   ar
   128    70    68   ar
   129    36    35    1
   130    36    37    1
   131   145   146    1
   132    13    15    1
   133    13    10    1
   134    66    63    1
   135    11    10    1
   136    11    12    2
   137    10     9    1
   138   147   146    2
   139    63    62    1
   140    82    84   ar
   141    49    48    1
   142    86    84   ar
   143    37    38    2
   144    37    43   am
   145    48    47    1
   146    60    59    1
   147    43    44    1
   148    47    44    1
   149    61    59    1
   150    59    58    1
   151    44    45    1
   152    46    45    2
   153    58    55    1
   154    55    54    1
   155    55    56    1
   156    56    57    2
