@<TRIPOS>MOLECULE
tmp/5jdaA01.pdb
 105 98 0 0 0
SMALL
GASTEIGER

@<TRIPOS>ATOM
      1  N         45.7730   76.0740   48.9950 N.3    15  LEU15      -0.1245
      2  CA        44.4280   76.4970   48.6170 C.3    15  LEU15       0.1561
      3  C         44.4450   77.2650   47.3000 C.2    15  LEU15       0.2260
      4  O         43.5570   77.0860   46.4600 O.2    15  LEU15      -0.2867
      5  CB        43.8230   77.3400   49.7400 C.3    15  LEU15       0.0270
      6  CG        42.3420   77.7000   49.6470 C.3    15  LEU15       0.0019
      7  CD1       41.4740   76.4550   49.6450 C.3    15  LEU15       0.0001
      8  CD2       41.9600   78.6090   50.8050 C.3    15  LEU15       0.0001
      9  N         42.3060   76.1300   44.0320 N.3    19  LYS19      -0.1245
     10  CA        41.3480   77.0130   43.3790 C.3    19  LYS19       0.1561
     11  C         41.7740   77.4410   41.9780 C.2    19  LYS19       0.2260
     12  O         40.9560   78.0140   41.2510 O.2    19  LYS19      -0.2867
     13  CB        41.1160   78.2540   44.2470 C.3    19  LYS19       0.0271
     14  CG        40.5020   77.9440   45.5990 C.3    19  LYS19       0.0035
     15  CD        40.0980   79.2040   46.3420 C.3    19  LYS19       0.0206
     16  CE        39.1830   78.8710   47.5060 C.3    19  LYS19       0.1093
     17  NZ        38.7740   80.0780   48.2780 N.3    19  LYS19      -0.1314
     18  N         38.7870   68.4590   44.8730 N.3    45  TYR45      -0.1241
     19  CA        37.3820   68.5790   44.5120 C.3    45  TYR45       0.1605
     20  C         36.9220   67.2940   43.8340 C.2    45  TYR45       0.2264
     21  O         37.7100   66.5900   43.1940 O.2    45  TYR45      -0.2867
     22  CB        37.1620   69.7480   43.5530 C.3    45  TYR45       0.0534
     23  CG        37.4620   71.1170   44.1200 C.ar   45  TYR45      -0.0201
     24  CD1       37.1290   71.4480   45.4240 C.ar   45  TYR45      -0.0009
     25  CD2       38.0680   72.0860   43.3340 C.ar   45  TYR45      -0.0009
     26  CE1       37.4020   72.7080   45.9350 C.ar   45  TYR45       0.0417
     27  CE2       38.3420   73.3420   43.8320 C.ar   45  TYR45       0.0417
     28  CZ        38.0050   73.6510   45.1310 C.ar   45  TYR45       0.1957
     29  OH        38.2740   74.9110   45.6230 O.3    45  TYR45      -0.2866
     30  N         29.8060   77.4060   44.8150 N.3    54  GLU54      -0.1245
     31  CA        30.7450   77.9070   45.8120 C.3    54  GLU54       0.1567
     32  C         30.8860   76.9280   46.9680 C.2    54  GLU54       0.2260
     33  O         31.9700   76.8050   47.5480 O.2    54  GLU54      -0.2867
     34  CB        30.3270   79.2860   46.3260 C.3    54  GLU54       0.0388
     35  CG        31.4290   79.9550   47.1370 C.3    54  GLU54       0.1160
     36  CD        31.0570   81.3410   47.6270 C.2    54  GLU54       0.3649
     37  OE1       29.9720   81.8400   47.2600 O.co2  54  GLU54      -0.2457
     38  OE2       31.8580   81.9320   48.3840 O.co2  54  GLU54      -0.2457
     39  N         31.6810   73.7540   47.5300 N.3    56  LYS56      -0.1245
     40  CA        32.3520   72.6970   46.7920 C.3    56  LYS56       0.1561
     41  C         32.1600   71.3470   47.4770 C.2    56  LYS56       0.2260
     42  O         31.8990   71.2570   48.6790 O.2    56  LYS56      -0.2867
     43  CB        33.8490   72.9920   46.7100 C.3    56  LYS56       0.0271
     44  CG        34.2080   74.1930   45.8430 C.3    56  LYS56       0.0035
     45  CD        34.2680   73.8060   44.3740 C.3    56  LYS56       0.0206
     46  CE        34.8170   74.9190   43.4990 C.3    56  LYS56       0.1093
     47  NZ        33.8840   76.0680   43.4350 N.3    56  LYS56      -0.1314
     48  N         34.0850   67.4900   48.0700 N.3    58  TYR58      -0.1241
     49  CA        35.4710   67.0810   48.2590 C.3    58  TYR58       0.1605
     50  C         35.5960   65.5700   48.3460 C.2    58  TYR58       0.2264
     51  O         34.7170   64.8760   48.8610 O.2    58  TYR58      -0.2867
     52  CB        36.0550   67.6640   49.5550 C.3    58  TYR58       0.0534
     53  CG        36.0000   69.1720   49.6300 C.ar   58  TYR58      -0.0201
     54  CD1       34.9120   69.8130   50.1870 C.ar   58  TYR58      -0.0009
     55  CD2       37.0320   69.9470   49.1360 C.ar   58  TYR58      -0.0009
     56  CE1       34.8460   71.1820   50.2470 C.ar   58  TYR58       0.0417
     57  CE2       36.9750   71.3260   49.1950 C.ar   58  TYR58       0.0417
     58  CZ        35.8780   71.9320   49.7550 C.ar   58  TYR58       0.1957
     59  OH        35.8010   73.3060   49.8220 O.3    58  TYR58      -0.2866
     60  N         36.4100   75.1790   56.9310 N.3   112  ILE112     -0.1231
     61  CA        37.7120   75.1800   56.2790 C.3   112  ILE112      0.1692
     62  C         38.4060   76.4700   56.6740 C.2   112  ILE112      0.2592
     63  O         37.8650   77.5620   56.4630 O.2   112  ILE112     -0.2718
     64  CB        37.6070   75.0720   54.7500 C.3   112  ILE112      0.0266
     65  CG1       36.9700   73.7390   54.3660 C.3   112  ILE112      0.0019
     66  CG2       38.9910   75.1880   54.1130 C.3   112  ILE112      0.0020
     67  CD1       36.6810   73.5940   52.8850 C.3   112  ILE112      0.0001
     68  N         39.5980   76.3450   57.2530 N.am  113  ASN113     -0.1974
     69  CA        40.3860   77.5010   57.6750 C.3   113  ASN113      0.1688
     70  C         39.5790   78.4350   58.5770 C.2   113  ASN113      0.2292
     71  O         39.6940   79.6640   58.5070 O.2   113  ASN113     -0.2864
     72  CB        40.9680   78.2370   56.4720 C.3   113  ASN113      0.1181
     73  CG        42.0220   77.4240   55.7520 C.2   113  ASN113      0.2629
     74  OD1       42.4320   76.3560   56.2190 O.2   113  ASN113     -0.2716
     75  ND2       42.4580   77.9120   54.5970 N.am  113  ASN113     -0.0877
     76  N         36.3860   78.9440   58.6060 N.3   115  GLN115     -0.1245
     77  CA        35.1870   79.4890   57.9780 C.3   115  GLN115      0.1566
     78  C         34.2000   78.3590   57.7180 C.2   115  GLN115      0.2260
     79  O         34.5370   77.3780   57.0440 O.2   115  GLN115     -0.2867
     80  CB        35.5420   80.2000   56.6750 C.3   115  GLN115      0.0367
     81  CG        36.3040   81.4910   56.9070 C.3   115  GLN115      0.0905
     82  CD        36.8900   82.0720   55.6380 C.2   115  GLN115      0.2608
     83  OE1       37.1370   81.3590   54.6670 O.2   115  GLN115     -0.2717
     84  NE2       37.1270   83.3770   55.6450 N.am  115  GLN115     -0.0878
     85  N         31.6040   76.0800   56.1600 N.3   117  GLN117     -0.1245
     86  CA        31.1360   75.7370   54.8290 C.3   117  GLN117      0.1566
     87  C         29.7510   75.1090   54.8380 C.2   117  GLN117      0.2260
     88  O         29.1060   75.0660   53.7870 O.2   117  GLN117     -0.2867
     89  CB        32.1120   74.7680   54.1570 C.3   117  GLN117      0.0367
     90  CG        33.5120   75.3400   54.0030 C.3   117  GLN117      0.0905
     91  CD        33.5240   76.6320   53.2100 C.2   117  GLN117      0.2608
     92  OE1       33.0180   76.6910   52.0830 O.2   117  GLN117     -0.2717
     93  NE2       34.0850   77.6820   53.8010 N.am  117  GLN117     -0.0878
     94  N         25.4650   79.0680   52.7530 N.3   325  TYR325     -0.1241
     95  CA        24.8920   78.8260   51.4400 C.3   325  TYR325      0.1605
     96  C         23.4210   78.4640   51.5170 C.2   325  TYR325      0.2264
     97  O         22.7340   78.4970   50.4900 O.2   325  TYR325     -0.2867
     98  CB        25.6460   77.6750   50.7600 C.3   325  TYR325      0.0534
     99  CG        27.1350   77.9130   50.7040 C.ar  325  TYR325     -0.0201
    100  CD1       27.6700   78.8640   49.8490 C.ar  325  TYR325     -0.0009
    101  CD2       28.0060   77.1960   51.5190 C.ar  325  TYR325     -0.0009
    102  CE1       29.0400   79.0870   49.8020 C.ar  325  TYR325      0.0417
    103  CE2       29.3710   77.4090   51.4760 C.ar  325  TYR325      0.0417
    104  CZ        29.8810   78.3580   50.6200 C.ar  325  TYR325      0.1957
    105  OH        31.2460   78.5660   50.5850 O.3   325  TYR325     -0.2866
@<TRIPOS>BOND
     1    12    11    2
     2    11    10    1
     3    21    20    2
     4    25    27   ar
     5    25    23   ar
     6    10     9    1
     7    10    13    1
     8    47    46    1
     9    46    45    1
    10    22    23    1
    11    22    19    1
    12    27    28   ar
    13    20    19    1
    14    23    24   ar
    15    13    14    1
    16    45    44    1
    17    19    18    1
    18    30    31    1
    19    28    29    1
    20    28    26   ar
    21    24    26   ar
    22    14    15    1
    23    31    34    1
    24    31    32    1
    25    44    43    1
    26    34    35    1
    27    15    16    1
    28     4     3    2
    29    43    40    1
    30    40    41    1
    31    40    39    1
    32    32    33    2
    33    35    36    1
    34    37    36   ar
    35     3     2    1
    36    41    42    2
    37    16    17    1
    38    36    38   ar
    39    48    49    1
    40    49    50    1
    41    49    52    1
    42    50    51    2
    43     2     1    1
    44     2     5    1
    45    55    57   ar
    46    55    53   ar
    47    57    58   ar
    48    52    53    1
    49    53    54   ar
    50     7     6    1
    51     6     5    1
    52     6     8    1
    53    58    59    1
    54    58    56   ar
    55   102   100   ar
    56   102   104   ar
    57   100    99   ar
    58    54    56   ar
    59    97    96    2
    60   105   104    1
    61   104   103   ar
    62    99    98    1
    63    99   101   ar
    64    98    95    1
    65    95    96    1
    66    95    94    1
    67   103   101   ar
    68    92    91    2
    69    67    65    1
    70    91    93   am
    71    91    90    1
    72    88    87    2
    73    90    89    1
    74    66    64    1
    75    89    86    1
    76    65    64    1
    77    75    73   am
    78    83    82    2
    79    64    61    1
    80    86    87    1
    81    86    85    1
    82    82    84   am
    83    82    81    1
    84    73    74    2
    85    73    72    1
    86    61    62    1
    87    61    60    1
    88    63    62    2
    89    72    69    1
    90    62    68   am
    91    80    81    1
    92    80    77    1
    93    79    78    2
    94    68    69    1
    95    69    70    1
    96    78    77    1
    97    77    76    1
    98    71    70    2
