@<TRIPOS>MOLECULE
tmp/5jdaA00.pdb
 161 161 0 0 0
SMALL
GASTEIGER

@<TRIPOS>ATOM
      1  N         35.6330   66.9870   43.9800 N.3    46  ARG46      -0.1231
      2  CA        35.0420   65.7960   43.3810 C.3    46  ARG46       0.1694
      3  C         33.8380   66.1620   42.5220 C.2    46  ARG46       0.2593
      4  O         33.2430   67.2380   42.6510 O.2    46  ARG46      -0.2718
      5  CB        34.6360   64.7470   44.4310 C.3    46  ARG46       0.0321
      6  CG        33.4080   65.1120   45.2880 C.3    46  ARG46       0.0489
      7  CD        32.9780   63.9420   46.1920 C.3    46  ARG46       0.2205
      8  NE        32.9030   62.7260   45.3910 N.pl3  46  ARG46      -0.0865
      9  CZ        31.9300   62.4450   44.5320 C.cat  46  ARG46       0.5346
     10  NH1       30.8850   63.2530   44.3970 N.pl3  46  ARG46       0.1354
     11  NH2       32.0020   61.3370   43.8040 N.pl3  46  ARG46       0.1354
     12  N         33.4970   65.2410   41.6300 N.am   47  GLY47      -0.1942
     13  CA        32.3290   65.4020   40.7880 C.3    47  GLY47       0.2014
     14  C         32.6360   66.1810   39.5270 C.2    47  GLY47       0.2639
     15  O         33.7920   66.3840   39.1280 O.2    47  GLY47      -0.2714
     16  N         31.5540   66.6090   38.8770 N.am   48  ALA48      -0.1963
     17  CA        31.6390   67.4160   37.6680 C.3    48  ALA48       0.1728
     18  C         30.9410   68.7540   37.8800 C.2    48  ALA48       0.2616
     19  O         31.5650   69.7070   38.3540 O.2    48  ALA48      -0.2715
     20  CB        31.0500   66.6530   36.4770 C.3    48  ALA48       0.0334
     21  N         29.6480   68.8420   37.5620 N.am   49  HIS49      -0.1959
     22  CA        28.9680   70.1310   37.6480 C.3    49  HIS49       0.1787
     23  C         28.9400   70.6610   39.0750 C.2    49  HIS49       0.2620
     24  O         28.8660   71.8800   39.2790 O.2    49  HIS49      -0.2715
     25  CB        27.5560   70.0540   37.0590 C.3    49  HIS49       0.0785
     26  CG        26.6650   69.0500   37.7210 C.ar   49  HIS49       0.0821
     27  ND1       26.8620   67.6910   37.6090 N.ar   49  HIS49      -0.2267
     28  CD2       25.5560   69.2080   38.4800 C.ar   49  HIS49       0.1154
     29  CE1       25.9200   67.0540   38.2800 C.ar   49  HIS49       0.1986
     30  NE2       25.1130   67.9510   38.8180 N.ar   49  HIS49      -0.2212
     31  N         29.0160   69.7730   40.0700 N.am   50  ILE50      -0.1977
     32  CA        29.0180   70.2050   41.4640 C.3    50  ILE50       0.1596
     33  C         30.2640   70.9990   41.8310 C.2    50  ILE50       0.2287
     34  O         30.2860   71.6430   42.8850 O.2    50  ILE50      -0.2864
     35  CB        28.7620   69.0150   42.4160 C.3    50  ILE50       0.0276
     36  CG1       29.9550   68.0520   42.4140 C.3    50  ILE50       0.0022
     37  CG2       27.4870   68.2880   42.0170 C.3    50  ILE50       0.0022
     38  CD1       29.7740   66.8310   43.3150 C.3    50  ILE50       0.0001
     39  N         33.9400   60.6270   50.8360 N.3    75  HIS75      -0.1241
     40  CA        33.4650   61.6910   49.9660 C.3    75  HIS75       0.1621
     41  C         32.5890   62.6420   50.7640 C.2    75  HIS75       0.2264
     42  O         31.7620   62.2050   51.5690 O.2    75  HIS75      -0.2867
     43  CB        32.6920   61.0960   48.7900 C.3    75  HIS75       0.0745
     44  CG        33.5260   60.1740   47.9670 C.ar   75  HIS75       0.0817
     45  ND1       34.3860   60.6280   46.9890 N.ar   75  HIS75      -0.2268
     46  CD2       33.6800   58.8300   48.0110 C.ar   75  HIS75       0.1154
     47  CE1       35.0190   59.6000   46.4530 C.ar   75  HIS75       0.1986
     48  NE2       34.6090   58.4980   47.0560 N.ar   75  HIS75      -0.2212
     49  N         29.9390   65.4140   49.9870 N.3    77  ASN77      -0.1240
     50  CA        29.0890   66.0580   48.9950 C.3    77  ASN77       0.1653
     51  C         28.3270   67.2180   49.6170 C.2    77  ASN77       0.2266
     52  O         27.7270   67.0770   50.6840 O.2    77  ASN77      -0.2867
     53  CB        28.0820   65.0680   48.4170 C.3    77  ASN77       0.1155
     54  CG        28.6160   64.3200   47.2160 C.2    77  ASN77       0.2627
     55  OD1       29.7680   64.5070   46.8060 O.2    77  ASN77      -0.2716
     56  ND2       27.7870   63.4580   46.6490 N.am   77  ASN77      -0.0877
     57  N         33.2420   53.0330   48.3910 N.3   126  VAL126     -0.1245
     58  CA        33.0180   51.6270   48.0840 C.3   126  VAL126      0.1561
     59  C         34.3340   51.0430   47.5860 C.2   126  VAL126      0.2260
     60  O         34.6720   51.1410   46.4000 O.2   126  VAL126     -0.2867
     61  CB        31.8650   51.4630   47.0750 C.3   126  VAL126      0.0252
     62  CG1       31.6180   49.9900   46.7690 C.3   126  VAL126      0.0019
     63  CG2       30.5970   52.1050   47.6310 C.3   126  VAL126      0.0019
     64  N         33.7040   50.8200   39.1350 N.3   143  TYR143     -0.1227
     65  CA        32.7870   51.9570   39.1290 C.3   143  TYR143      0.1736
     66  C         32.3150   52.2330   37.7030 C.2   143  TYR143      0.2595
     67  O         33.1360   52.3470   36.7890 O.2   143  TYR143     -0.2718
     68  CB        33.5020   53.2120   39.6380 C.3   143  TYR143      0.0548
     69  CG        33.8870   53.2450   41.1040 C.ar  143  TYR143     -0.0200
     70  CD1       33.4100   52.3080   42.0120 C.ar  143  TYR143     -0.0009
     71  CD2       34.7210   54.2520   41.5830 C.ar  143  TYR143     -0.0009
     72  CE1       33.7570   52.3780   43.3620 C.ar  143  TYR143      0.0417
     73  CE2       35.0690   54.3290   42.9150 C.ar  143  TYR143      0.0417
     74  CZ        34.5940   53.3910   43.8030 C.ar  143  TYR143      0.1957
     75  OH        34.9560   53.4970   45.1360 O.3   143  TYR143     -0.2866
     76  N         31.0010   52.3700   37.5150 N.am  144  ALA144     -0.1966
     77  CA        30.4660   52.7420   36.2080 C.3   144  ALA144      0.1728
     78  C         30.7870   54.2060   35.9280 C.2   144  ALA144      0.2616
     79  O         30.3280   55.0920   36.6590 O.2   144  ALA144     -0.2715
     80  CB        28.9560   52.5260   36.1880 C.3   144  ALA144      0.0334
     81  N         31.5690   54.4730   34.8810 N.am  145  ILE145     -0.1977
     82  CA        32.0220   55.8320   34.6090 C.3   145  ILE145      0.1596
     83  C         31.5650   56.3940   33.2650 C.2   145  ILE145      0.2287
     84  O         31.5990   57.6240   33.0960 O.2   145  ILE145     -0.2864
     85  CB        33.5500   55.9850   34.7720 C.3   145  ILE145      0.0276
     86  CG1       34.2940   55.0380   33.8320 C.3   145  ILE145      0.0022
     87  CG2       33.9450   55.7670   36.2370 C.3   145  ILE145      0.0022
     88  CD1       35.7910   55.2960   33.7690 C.3   145  ILE145      0.0001
     89  N         35.8540   52.1560   35.9500 N.3   170  GLU170     -0.1245
     90  CA        37.0800   52.3800   36.6980 C.3   170  GLU170      0.1567
     91  C         37.3270   51.1670   37.5810 C.2   170  GLU170      0.2260
     92  O         36.4250   50.7290   38.3030 O.2   170  GLU170     -0.2867
     93  CB        36.9240   53.6250   37.5670 C.3   170  GLU170      0.0388
     94  CG        38.0270   53.8200   38.6080 C.3   170  GLU170      0.1160
     95  CD        37.7750   55.0450   39.4680 C.2   170  GLU170      0.3649
     96  OE1       36.9050   55.8530   39.0910 O.co2 170  GLU170     -0.2457
     97  OE2       38.4340   55.1970   40.5210 O.co2 170  GLU170     -0.2457
     98  N         24.3000   53.8610   34.7220 N.3   228  HIS228     -0.1226
     99  CA        25.1940   54.7580   35.4350 C.3   228  HIS228      0.1752
    100  C         24.7990   54.7380   36.9040 C.2   228  HIS228      0.2596
    101  O         23.7990   54.1350   37.2900 O.2   228  HIS228     -0.2718
    102  CB        25.1150   56.1930   34.8900 C.3   228  HIS228      0.0759
    103  CG        26.2370   57.0730   35.3460 C.ar  228  HIS228      0.0818
    104  ND1       27.5620   56.7130   35.2240 N.ar  228  HIS228     -0.2268
    105  CD2       26.2310   58.2890   35.9450 C.ar  228  HIS228      0.1154
    106  CE1       28.3250   57.6750   35.7140 C.ar  228  HIS228      0.1986
    107  NE2       27.5420   58.6420   36.1590 N.ar  228  HIS228     -0.2212
    108  N         25.5980   55.4160   37.7260 N.am  229  ASN229     -0.1960
    109  CA        25.2940   55.5730   39.1450 C.3   229  ASN229      0.1819
    110  C         25.3120   54.2250   39.8660 C.2   229  ASN229      0.2621
    111  O         24.4110   53.8850   40.6330 O.2   229  ASN229     -0.2715
    112  CB        23.9640   56.3080   39.3510 C.3   229  ASN229      0.1195
    113  CG        24.0170   57.7500   38.8890 C.2   229  ASN229      0.2630
    114  OD1       25.0740   58.3940   38.9110 O.2   229  ASN229     -0.2716
    115  ND2       22.8740   58.2700   38.4700 N.am  229  ASN229     -0.0877
    116  N         26.3600   53.4460   39.6180 N.am  230  TYR230     -0.1960
    117  CA        26.5000   52.1880   40.3320 C.3   230  TYR230      0.1771
    118  C         27.9460   51.7290   40.2880 C.2   230  TYR230      0.2619
    119  O         28.7580   52.2040   39.4840 O.2   230  TYR230     -0.2715
    120  CB        25.5780   51.0930   39.7690 C.3   230  TYR230      0.0574
    121  CG        25.9650   50.5700   38.3950 C.ar  230  TYR230     -0.0198
    122  CD1       25.4420   51.1370   37.2420 C.ar  230  TYR230     -0.0009
    123  CD2       26.8400   49.4960   38.2500 C.ar  230  TYR230     -0.0009
    124  CE1       25.7820   50.6650   35.9850 C.ar  230  TYR230      0.0417
    125  CE2       27.1890   49.0270   36.9980 C.ar  230  TYR230      0.0417
    126  CZ        26.6560   49.6090   35.8710 C.ar  230  TYR230      0.1957
    127  OH        26.9990   49.1310   34.6250 O.3   230  TYR230     -0.2866
    128  N         28.2440   50.7860   41.1730 N.am  231  ALA231     -0.1977
    129  CA        29.4820   50.0280   41.1530 C.3   231  ALA231      0.1597
    130  C         29.1250   48.5540   41.0660 C.2   231  ALA231      0.2287
    131  O         28.0350   48.1390   41.4720 O.2   231  ALA231     -0.2864
    132  CB        30.3110   50.2700   42.4270 C.3   231  ALA231      0.0319
    133  N         24.5320   50.7840   44.5070 N.3   245  PRO245     -0.2102
    134  CA        24.1660   52.1240   44.0190 C.3   245  PRO245      0.1504
    135  C         25.1590   53.1960   44.4470 C.2   245  PRO245      0.2576
    136  O         25.8710   53.0680   45.4470 O.2   245  PRO245     -0.2718
    137  CB        22.8080   52.3700   44.6840 C.3   245  PRO245      0.0282
    138  CG        22.9140   51.5900   45.9760 C.3   245  PRO245      0.0208
    139  CD        23.6140   50.3260   45.5650 C.3   245  PRO245      0.0893
    140  N         25.1770   54.2820   43.6710 N.am  246  TRP246     -0.1963
    141  CA        25.9760   55.4640   43.9690 C.3   246  TRP246      0.1771
    142  C         25.3090   56.6730   43.3220 C.2   246  TRP246      0.2619
    143  O         24.7410   56.5570   42.2410 O.2   246  TRP246     -0.2715
    144  CB        27.3950   55.2940   43.4070 C.3   246  TRP246      0.0590
    145  CG        28.2600   56.4700   43.6260 C.ar  246  TRP246      0.0006
    146  CD1       28.6660   57.3780   42.6950 C.ar  246  TRP246      0.0946
    147  CD2       28.8300   56.8870   44.8690 C.ar  246  TRP246      0.0152
    148  NE1       29.4600   58.3330   43.2790 N.ar  246  TRP246     -0.2442
    149  CE2       29.5740   58.0540   44.6150 C.ar  246  TRP246      0.0810
    150  CE3       28.7950   56.3760   46.1720 C.ar  246  TRP246      0.0012
    151  CZ2       30.2700   58.7280   45.6180 C.ar  246  TRP246      0.0191
    152  CZ3       29.4800   57.0480   47.1680 C.ar  246  TRP246      0.0001
    153  CH2       30.2120   58.2090   46.8850 C.ar  246  TRP246      0.0015
    154  N         25.3610   57.8250   43.9950 N.am  247  ASP247     -0.1971
    155  CA        24.9030   59.1010   43.4310 C.3   247  ASP247      0.1709
    156  C         23.3980   59.0770   43.1370 C.2   247  ASP247      0.2293
    157  O         22.9460   59.1300   41.9860 O.2   247  ASP247     -0.2864
    158  CB        25.7030   59.4700   42.1720 C.3   247  ASP247      0.1436
    159  CG        25.3460   60.8430   41.6320 C.2   247  ASP247      0.3671
    160  OD1       24.8700   61.6900   42.4200 O.co2 247  ASP247     -0.2456
    161  OD2       25.5460   61.0790   40.4210 O.co2 247  ASP247     -0.2456
@<TRIPOS>BOND
     1    84    83    2
     2    83    82    1
     3    88    86    1
     4    86    85    1
     5    82    85    1
     6    82    81    1
     7   127   126    1
     8    98    99    1
     9    85    87    1
    10    81    78   am
    11   102   103    1
    12   102    99    1
    13   104   103   ar
    14   104   106   ar
    15   103   105   ar
    16    99   100    1
    17   106   107   ar
    18   126   124   ar
    19   126   125   ar
    20    78    77    1
    21    78    79    2
    22   105   107   ar
    23    89    90    1
    24   124   122   ar
    25    80    77    1
    26    77    76    1
    27    20    17    1
    28    90    93    1
    29    90    91    1
    30    67    66    2
    31   100   101    2
    32   100   108   am
    33   125   123   ar
    34    25    22    1
    35    25    26    1
    36   122   121   ar
    37    76    66   am
    38    21    22    1
    39    21    18   am
    40    93    94    1
    41    91    92    2
    42    27    26   ar
    43    27    29   ar
    44    22    23    1
    45    17    18    1
    46    17    16    1
    47    66    65    1
    48    26    28   ar
    49   108   109    1
    50    18    19    2
    51   123   121   ar
    52    29    30   ar
    53   121   120    1
    54   115   113   am
    55    28    30   ar
    56    94    95    1
    57    16    14   am
    58   113   114    2
    59   113   112    1
    60    23    24    2
    61    23    31   am
    62    96    95   ar
    63    15    14    2
    64    65    64    1
    65    65    68    1
    66   109   112    1
    67   109   110    1
    68    95    97   ar
    69   119   118    2
    70    14    13    1
    71   116   110   am
    72   116   117    1
    73    68    69    1
    74   120   117    1
    75   110   111    2
    76    31    32    1
    77   118   117    1
    78   118   128   am
    79   161   159   ar
    80    13    12    1
    81   130   129    1
    82   130   131    2
    83    69    71   ar
    84    69    70   ar
    85   129   128    1
    86   129   132    1
    87    32    33    1
    88    32    35    1
    89    71    73   ar
    90    12     3   am
    91   159   158    1
    92   159   160   ar
    93    33    34    2
    94   157   156    2
    95    70    72   ar
    96    37    35    1
    97   158   155    1
    98   143   142    2
    99    36    35    1
   100    36    38    1
   101     3     4    2
   102     3     2    1
   103   146   148   ar
   104   146   145   ar
   105    73    74   ar
   106   156   155    1
   107   148   149   ar
   108   142   141    1
   109   142   154   am
   110    72    74   ar
   111     2     1    1
   112     2     5    1
   113   144   145    1
   114   144   141    1
   115   155   154    1
   116   145   147   ar
   117   140   141    1
   118   140   135   am
   119    74    75    1
   120    11     9    1
   121   134   135    1
   122   134   133    1
   123   134   137    1
   124    10     9    1
   125     5     6    1
   126   135   136    2
   127   133   139    1
   128     9     8    2
   129   149   147   ar
   130   149   151   ar
   131   137   138    1
   132   147   150   ar
   133     6     7    1
   134     8     7    1
   135   139   138    1
   136   151   153   ar
   137   150   152   ar
   138    60    59    2
   139    47    45   ar
   140    47    48   ar
   141    56    54   am
   142    62    61    1
   143    55    54    2
   144   153   152   ar
   145    45    44   ar
   146    48    46   ar
   147    61    63    1
   148    61    58    1
   149    54    53    1
   150    59    58    1
   151    44    46   ar
   152    44    43    1
   153    58    57    1
   154    53    50    1
   155    43    40    1
   156    50    51    1
   157    50    49    1
   158    51    52    2
   159    40    41    1
   160    40    39    1
   161    41    42    2
