@<TRIPOS>MOLECULE
tmp/5jdcB01.pdb
 151 145 0 0 0
SMALL
GASTEIGER

@<TRIPOS>ATOM
      1  N        -54.4140   12.3830   -7.8830 N.3    13  ARG13      -0.1245
      2  CA       -53.4950   12.4580   -6.7650 C.3    13  ARG13       0.1563
      3  C        -52.7600   11.1360   -6.5410 C.2    13  ARG13       0.2260
      4  O        -52.1030   10.6330   -7.4290 O.2    13  ARG13      -0.2867
      5  CB       -54.3170   12.9490   -5.5400 C.3    13  ARG13       0.0307
      6  CG       -54.9220   14.3590   -5.7940 C.3    13  ARG13       0.0489
      7  CD       -56.0460   14.7930   -4.8740 C.3    13  ARG13       0.2205
      8  NE       -55.6560   14.5650   -3.4940 N.pl3  13  ARG13      -0.0865
      9  CZ       -54.9590   15.4020   -2.7090 C.cat  13  ARG13       0.5346
     10  NH1      -54.5820   16.6260   -3.1340 N.pl3  13  ARG13       0.1354
     11  NH2      -54.6580   15.0010   -1.4620 N.pl3  13  ARG13       0.1354
     12  N        -60.1310    6.7130   -0.0290 N.3    94  SER94      -0.1217
     13  CA       -60.2410    7.1500    1.3110 C.3    94  SER94       0.1889
     14  C        -61.0900    8.3870    1.4230 C.2    94  SER94       0.2288
     15  O        -60.8620    9.3470    0.7200 O.2    94  SER94      -0.2866
     16  CB       -58.8540    7.5390    1.8330 C.3    94  SER94       0.2089
     17  OG       -58.9040    7.9850    3.1980 O.3    94  SER94      -0.2183
     18  N        -61.9180   11.4870    4.0830 N.3    96  PHE96      -0.1241
     19  CA       -61.1440   12.1450    5.0760 C.3    96  PHE96       0.1605
     20  C        -61.7850   13.4740    5.4220 C.2    96  PHE96       0.2264
     21  O        -61.7280   14.4280    4.6400 O.2    96  PHE96      -0.2867
     22  CB       -59.7180   12.3160    4.5780 C.3    96  PHE96       0.0534
     23  CG       -58.8780   13.2190    5.4120 C.ar   96  PHE96      -0.0203
     24  CD1      -58.3570   12.7850    6.6350 C.ar   96  PHE96      -0.0042
     25  CD2      -58.6130   14.5500    4.9910 C.ar   96  PHE96      -0.0042
     26  CE1      -57.5810   13.6190    7.4130 C.ar   96  PHE96      -0.0003
     27  CE2      -57.8650   15.4000    5.7910 C.ar   96  PHE96      -0.0003
     28  CZ       -57.3150   14.9380    6.9710 C.ar   96  PHE96      -0.0000
     29  N        -51.4390    5.4450    7.2310 N.3   140  ASP140     -0.1239
     30  CA       -51.2500    6.8180    7.6450 C.3   140  ASP140      0.1674
     31  C        -50.1360    6.7600    8.6990 C.2   140  ASP140      0.2266
     32  O        -50.2300    6.0480    9.6930 O.2   140  ASP140     -0.2867
     33  CB       -52.5780    7.3540    8.2390 C.3   140  ASP140      0.1410
     34  CG       -52.4660    8.8100    8.6960 C.2   140  ASP140      0.3668
     35  OD1      -51.3200    9.3710    8.8110 O.co2 140  ASP140     -0.2456
     36  OD2      -53.5390    9.4150    8.8680 O.co2 140  ASP140     -0.2456
     37  N        -49.2080    8.9240   10.7870 N.3   142  MET142     -0.1245
     38  CA       -49.6020    9.6680   11.9590 C.3   142  MET142      0.1570
     39  C        -50.7420    8.9960   12.7260 C.2   142  MET142      0.2261
     40  O        -51.3560    9.6020   13.5520 O.2   142  MET142     -0.2867
     41  CB       -49.9520   11.1230   11.5240 C.3   142  MET142      0.0387
     42  CG       -48.7730   11.8040   10.8370 C.3   142  MET142      0.0595
     43  SD       -47.3120   11.9580   11.8650 S.3   142  MET142     -0.1393
     44  CE       -47.8570   13.2010   13.0330 C.3   142  MET142      0.0692
     45  N        -50.5800    9.6220   16.3780 N.3   145  GLN145     -0.1231
     46  CA       -50.5880   10.9810   16.8390 C.3   145  GLN145      0.1683
     47  C        -51.6620   11.6870   16.0340 C.2   145  GLN145      0.2434
     48  O        -51.3550   12.4550   15.1220 O.2   145  GLN145     -0.2733
     49  CB       -49.2400   11.6420   16.5310 C.3   145  GLN145      0.0380
     50  CG       -48.0640   11.1880   17.3730 C.3   145  GLN145      0.0905
     51  CD       -46.8520   10.8840   16.5030 C.2   145  GLN145      0.2608
     52  OE1      -46.7040    9.7890   15.9480 O.2   145  GLN145     -0.2717
     53  NE2      -45.9670   11.8410   16.4110 N.am  145  GLN145     -0.0878
     54  N        -52.9150   11.4180   16.3250 N.am  146  PRO146     -0.2729
     55  CA       -53.9260   11.7650   15.3220 C.3   146  PRO146      0.1401
     56  C        -54.3060   13.2470   15.2680 C.2   146  PRO146      0.2269
     57  O        -54.0350   13.9600   16.2310 O.2   146  PRO146     -0.2865
     58  CB       -55.1170   10.9310   15.7670 C.3   146  PRO146      0.0296
     59  CG       -54.9390   10.8320   17.2220 C.3   146  PRO146      0.0237
     60  CD       -53.4660   10.6270   17.4150 C.3   146  PRO146      0.0939
     61  N        -62.0630    8.8740   11.1370 N.3   152  TYR152     -0.1241
     62  CA       -60.9440    8.6960   10.1880 C.3   152  TYR152      0.1605
     63  C        -59.8190    7.9000   10.8300 C.2   152  TYR152      0.2264
     64  O        -59.3260    6.9290   10.2570 O.2   152  TYR152     -0.2867
     65  CB       -60.3920   10.0500    9.6650 C.3   152  TYR152      0.0534
     66  CG       -59.1540    9.9090    8.8250 C.ar  152  TYR152     -0.0201
     67  CD1      -59.2300    9.4540    7.5010 C.ar  152  TYR152     -0.0009
     68  CD2      -57.9050   10.1380    9.3670 C.ar  152  TYR152     -0.0009
     69  CE1      -58.0640    9.2950    6.7480 C.ar  152  TYR152      0.0417
     70  CE2      -56.7400    9.9600    8.6430 C.ar  152  TYR152      0.0417
     71  CZ       -56.8190    9.5670    7.3090 C.ar  152  TYR152      0.1957
     72  OH       -55.6860    9.3870    6.5780 O.3   152  TYR152     -0.2866
     73  N        -58.3360    4.1320    9.7920 N.3   156  LYS156     -0.1245
     74  CA       -56.9420    3.8290    9.4580 C.3   156  LYS156      0.1561
     75  C        -56.2930    2.8080   10.4180 C.2   156  LYS156      0.2260
     76  O        -55.4770    1.9820    9.9730 O.2   156  LYS156     -0.2867
     77  CB       -56.1310    5.1390    9.3880 C.3   156  LYS156      0.0271
     78  CG       -56.5060    6.0310    8.1870 C.3   156  LYS156      0.0035
     79  CD       -56.1750    5.2880    6.8390 C.3   156  LYS156      0.0206
     80  CE       -56.2230    6.1590    5.6190 C.3   156  LYS156      0.1093
     81  NZ       -56.2560    5.4400    4.3460 N.3   156  LYS156     -0.1314
     82  N        -47.0570   10.4750    5.3510 N.3   183  GLY183     -0.1210
     83  CA       -47.2640   11.4430    6.4100 C.3   183  GLY183      0.1956
     84  C        -48.0270   12.5730    5.7880 C.2   183  GLY183      0.2612
     85  O        -49.2500   12.5480    5.6980 O.2   183  GLY183     -0.2717
     86  N        -47.3220   13.6140    5.3910 N.am  184  VAL184     -0.1965
     87  CA       -48.0020   14.6690    4.6130 C.3   184  VAL184      0.1727
     88  C        -47.5460   14.4600    3.1760 C.2   184  VAL184      0.2617
     89  O        -46.3470   14.4130    2.8680 O.2   184  VAL184     -0.2715
     90  CB       -47.8380   16.0630    5.2200 C.3   184  VAL184      0.0290
     91  CG1      -46.4190   16.4090    5.3390 C.3   184  VAL184      0.0023
     92  CG2      -48.4910   17.1070    4.3470 C.3   184  VAL184      0.0023
     93  N        -48.5020   14.2230    2.3010 N.am  185  SER185     -0.1936
     94  CA       -48.2390   14.0630    0.8930 C.3   185  SER185      0.2055
     95  C        -49.0730   15.1640    0.2480 C.2   185  SER185      0.2643
     96  O        -49.2320   16.2410    0.8530 O.2   185  SER185     -0.2714
     97  CB       -48.5660   12.6130    0.3970 C.3   185  SER185      0.2130
     98  OG       -48.2320   12.4510   -1.0010 O.3   185  SER185     -0.2179
     99  N        -49.5840   14.9500   -0.9450 N.am  186  LEU186     -0.1963
    100  CA       -50.3220   15.9970   -1.6170 C.3   186  LEU186      0.1728
    101  C        -51.4040   16.5960   -0.7470 C.2   186  LEU186      0.2616
    102  O        -52.2500   15.8660   -0.2040 O.2   186  LEU186     -0.2715
    103  CB       -50.9480   15.4500   -2.8840 C.3   186  LEU186      0.0311
    104  CG       -50.0300   15.0170   -4.0020 C.3   186  LEU186      0.0022
    105  CD1      -50.8990   14.7400   -5.2340 C.3   186  LEU186      0.0001
    106  CD2      -48.9460   16.0640   -4.2990 C.3   186  LEU186      0.0001
    107  N        -51.3030   17.8980   -0.5210 N.am  187  LEU187     -0.1964
    108  CA       -52.2220   18.6040    0.3500 C.3   187  LEU187      0.1713
    109  C        -53.5320   18.9980   -0.3800 C.2   187  LEU187      0.2458
    110  O        -53.5660   19.0250   -1.6230 O.2   187  LEU187     -0.2730
    111  CB       -51.5080   19.8110    0.9490 C.3   187  LEU187      0.0310
    112  CG       -50.4530   19.4270    2.0080 C.3   187  LEU187      0.0022
    113  CD1      -49.4050   20.5230    2.1980 C.3   187  LEU187      0.0001
    114  CD2      -51.1180   19.0680    3.3310 C.3   187  LEU187      0.0001
    115  N        -54.6290   19.2850    0.3670 N.am  188  PRO188     -0.2727
    116  CA       -55.9570   19.5580   -0.3150 C.3   188  PRO188      0.1402
    117  C        -55.9140   20.7140   -1.3270 C.2   188  PRO188      0.2269
    118  O        -54.9820   21.5750   -1.2160 O.2   188  PRO188     -0.2865
    119  CB       -56.8960   19.8910    0.8600 C.3   188  PRO188      0.0296
    120  CG       -56.3300   19.0950    1.9850 C.3   188  PRO188      0.0237
    121  CD       -54.8040   19.2770    1.8290 C.3   188  PRO188      0.0939
    122  N        -56.5040   24.2060   -0.0910 N.3   190  MET190     -0.1245
    123  CA       -55.8910   24.6430    1.1710 C.3   190  MET190      0.1570
    124  C        -54.9770   25.8220    0.8710 C.2   190  MET190      0.2261
    125  O        -54.1610   25.7570   -0.0500 O.2   190  MET190     -0.2867
    126  CB       -55.0930   23.5130    1.8420 C.3   190  MET190      0.0387
    127  CG       -54.2930   23.9350    3.0700 C.3   190  MET190      0.0595
    128  SD       -53.3460   22.5970    3.8520 S.3   190  MET190     -0.1393
    129  CE       -54.7370   21.7410    4.6420 C.3   190  MET190      0.0692
    130  N        -47.5350   22.8840    7.5680 N.3   198  TRP198     -0.1241
    131  CA       -47.3360   21.4060    7.5830 C.3   198  TRP198      0.1605
    132  C        -45.9650   21.0470    7.0070 C.2   198  TRP198      0.2264
    133  O        -45.1990   20.2550    7.5600 O.2   198  TRP198     -0.2867
    134  CB       -48.4820   20.7080    6.8110 C.3   198  TRP198      0.0550
    135  CG       -49.7110   20.6330    7.6040 C.ar  198  TRP198      0.0003
    136  CD1      -50.8210   21.4010    7.4580 C.ar  198  TRP198      0.0946
    137  CD2      -49.9360   19.8070    8.7500 C.ar  198  TRP198      0.0152
    138  NE1      -51.7500   21.0910    8.4340 N.ar  198  TRP198     -0.2442
    139  CE2      -51.2270   20.1180    9.2440 C.ar  198  TRP198      0.0810
    140  CE3      -49.1830   18.8010    9.3940 C.ar  198  TRP198      0.0012
    141  CZ2      -51.7860   19.4630   10.3490 C.ar  198  TRP198      0.0191
    142  CZ3      -49.7400   18.1420   10.5070 C.ar  198  TRP198      0.0001
    143  CH2      -51.0270   18.4860   10.9680 C.ar  198  TRP198      0.0015
    144  N        -41.6360   12.9340    9.6880 N.3   240  LEU240     -0.1245
    145  CA       -42.7360   13.6610   10.3740 C.3   240  LEU240      0.1561
    146  C        -43.2800   12.9640   11.6730 C.2   240  LEU240      0.2260
    147  O        -43.4490   13.6080   12.6790 O.2   240  LEU240     -0.2867
    148  CB       -43.9060   13.8930    9.4020 C.3   240  LEU240      0.0270
    149  CG       -44.9790   14.8350    9.9680 C.3   240  LEU240      0.0019
    150  CD1      -44.4040   16.2160   10.3340 C.3   240  LEU240      0.0001
    151  CD2      -46.1230   14.8890    9.0030 C.3   240  LEU240      0.0001
@<TRIPOS>BOND
     1     1     2    1
     2     4     3    2
     3     2     3    1
     4     2     5    1
     5     6     5    1
     6     6     7    1
     7   105   104    1
     8     7     8    1
     9   106   104    1
    10   104   103    1
    11     8     9    2
    12    10     9    1
    13   103   100    1
    14     9    11    1
    15   110   109    2
    16   100    99    1
    17   100   101    1
    18   117   118    2
    19   117   116    1
    20    98    97    1
    21    99    95   am
    22   101   107   am
    23   101   102    2
    24   107   108    1
    25   109   108    1
    26   109   115   am
    27   116   115    1
    28   116   119    1
    29   122   123    1
    30   125   124    2
    31    12    13    1
    32    95    96    2
    33    95    94    1
    34   108   111    1
    35   115   121    1
    36    97    94    1
    37    15    14    2
    38   119   120    1
    39   124   123    1
    40    94    93    1
    41   111   112    1
    42   123   126    1
    43    13    14    1
    44    13    16    1
    45   121   120    1
    46    16    17    1
    47   126   127    1
    48   112   113    1
    49   112   114    1
    50    93    88   am
    51    89    88    2
    52   127   128    1
    53    88    87    1
    54   128   129    1
    55    18    19    1
    56    81    80    1
    57    92    90    1
    58    22    19    1
    59    22    23    1
    60    87    90    1
    61    87    86    1
    62    21    20    2
    63    25    23   ar
    64    25    27   ar
    65    19    20    1
    66    90    91    1
    67    82    83    1
    68    86    84   am
    69    23    24   ar
    70    80    79    1
    71    85    84    2
    72    84    83    1
    73    27    28   ar
    74    72    71    1
    75    24    26   ar
    76    69    71   ar
    77    69    67   ar
    78   134   131    1
    79   134   135    1
    80    79    78    1
    81    28    26   ar
    82   132   133    2
    83   132   131    1
    84    29    30    1
    85    71    70   ar
    86   136   135   ar
    87   136   138   ar
    88    67    66   ar
    89   130   131    1
    90   135   137   ar
    91    30    33    1
    92    30    31    1
    93    78    77    1
    94    33    34    1
    95   138   139   ar
    96    70    68   ar
    97    34    35   ar
    98    34    36   ar
    99    31    32    2
   100   137   139   ar
   101   137   140   ar
   102    66    68   ar
   103    66    65    1
   104   151   149    1
   105   139   141   ar
   106    77    74    1
   107   140   142   ar
   108   148   149    1
   109   148   145    1
   110    74    73    1
   111    74    75    1
   112    65    62    1
   113   144   145    1
   114   149   150    1
   115    76    75    2
   116    62    63    1
   117    62    61    1
   118    64    63    2
   119   141   143   ar
   120   145   146    1
   121   142   143   ar
   122    37    38    1
   123    42    41    1
   124    42    43    1
   125    41    38    1
   126   146   147    2
   127    43    44    1
   128    38    39    1
   129    39    40    2
   130    48    47    2
   131    56    55    1
   132    56    57    2
   133    55    58    1
   134    55    54    1
   135    58    59    1
   136    52    51    2
   137    47    54   am
   138    47    46    1
   139    54    60    1
   140    45    46    1
   141    53    51   am
   142    51    50    1
   143    49    46    1
   144    49    50    1
   145    59    60    1
