@<TRIPOS>MOLECULE
tmp/5jdfA02.pdb
 70 64 0 0 0
SMALL
GASTEIGER

@<TRIPOS>ATOM
      1  N         10.1420   16.5290   24.2810 N.3    52  LEU52      -0.1231
      2  CA        11.0010   16.1360   25.3970 C.3    52  LEU52       0.1678
      3  C         10.9060   17.0830   26.6060 C.2    52  LEU52       0.2434
      4  O         10.9580   16.6180   27.7450 O.2    52  LEU52      -0.2733
      5  CB        12.4590   16.0270   24.9340 C.3    52  LEU52       0.0284
      6  CG        12.8110   14.8150   24.0700 C.3    52  LEU52       0.0019
      7  CD1       14.2460   14.9050   23.5710 C.3    52  LEU52       0.0001
      8  CD2       12.5900   13.5280   24.8460 C.3    52  LEU52       0.0001
      9  N         10.7860   18.4090   26.3730 N.am   53  PRO53      -0.2729
     10  CA        10.5430   19.2940   27.5200 C.3    53  PRO53       0.1401
     11  C          9.3000   18.9440   28.3440 C.2    53  PRO53       0.2269
     12  O          9.4010   18.8770   29.5690 O.2    53  PRO53      -0.2865
     13  CB        10.3790   20.6640   26.8620 C.3    53  PRO53       0.0296
     14  CG        11.2520   20.5980   25.6790 C.3    53  PRO53       0.0237
     15  CD        11.1440   19.1880   25.1700 C.3    53  PRO53       0.0939
     16  N          9.7490   15.5540   30.4250 N.3    56  LEU56      -0.1245
     17  CA        10.6210   15.6620   31.5870 C.3    56  LEU56       0.1561
     18  C         10.0500   16.6030   32.6430 C.2    56  LEU56       0.2260
     19  O         10.3790   16.4910   33.8230 O.2    56  LEU56      -0.2867
     20  CB        12.0150   16.1280   31.1640 C.3    56  LEU56       0.0270
     21  CG        12.7610   15.1640   30.2380 C.3    56  LEU56       0.0019
     22  CD1       14.1310   15.7110   29.8710 C.3    56  LEU56       0.0001
     23  CD2       12.8800   13.7860   30.8780 C.3    56  LEU56       0.0001
     24  N         16.5880   22.9580   22.0410 N.3   169  LEU169     -0.1245
     25  CA        16.3250   22.5000   23.4010 C.3   169  LEU169      0.1561
     26  C         17.1890   23.2540   24.4070 C.2   169  LEU169      0.2260
     27  O         16.7130   23.6500   25.4710 O.2   169  LEU169     -0.2867
     28  CB        16.5530   20.9920   23.5210 C.3   169  LEU169      0.0270
     29  CG        15.5140   20.1150   22.8160 C.3   169  LEU169      0.0019
     30  CD1       15.7270   18.6500   23.1550 C.3   169  LEU169      0.0001
     31  CD2       14.1020   20.5500   23.1810 C.3   169  LEU169      0.0001
     32  N         15.9770   26.8810   24.2960 N.3   172  ALA172     -0.1231
     33  CA        14.7520   27.0550   25.0650 C.3   172  ALA172      0.1694
     34  C         15.0660   27.1400   26.5540 C.2   172  ALA172      0.2591
     35  O         14.3640   27.8140   27.3080 O.2   172  ALA172     -0.2718
     36  CB        13.7790   25.9200   24.7900 C.3   172  ALA172      0.0304
     37  N         16.1260   26.4550   26.9720 N.am  173  GLU173     -0.1979
     38  CA        16.5430   26.4710   28.3690 C.3   173  GLU173      0.1602
     39  C         17.1890   27.8000   28.7450 C.2   173  GLU173      0.2287
     40  O         16.8750   28.3730   29.7880 O.2   173  GLU173     -0.2864
     41  CB        17.5100   25.3210   28.6590 C.3   173  GLU173      0.0415
     42  CG        16.8780   24.1460   29.3910 C.3   173  GLU173      0.1163
     43  CD        16.3490   24.5220   30.7650 C.2   173  GLU173      0.3649
     44  OE1       16.8740   25.4820   31.3680 O.co2 173  GLU173     -0.2457
     45  OE2       15.4080   23.8550   31.2440 O.co2 173  GLU173     -0.2457
     46  N         14.6140   30.3010   29.0120 N.3   176  VAL176     -0.1245
     47  CA        13.8890   30.0750   30.2560 C.3   176  VAL176      0.1561
     48  C         14.7320   30.4760   31.4680 C.2   176  VAL176      0.2260
     49  O         14.2590   31.1930   32.3510 O.2   176  VAL176     -0.2867
     50  CB        13.4530   28.5910   30.3850 C.3   176  VAL176      0.0252
     51  CG1       13.4370   28.1380   31.8420 C.3   176  VAL176      0.0019
     52  CG2       12.1000   28.3680   29.7160 C.3   176  VAL176      0.0019
     53  N          7.7310   28.0080   31.7570 N.3   198  VAL198     -0.1245
     54  CA         8.0980   26.7330   31.1680 C.3   198  VAL198      0.1561
     55  C          6.8950   26.1010   30.4950 C.2   198  VAL198      0.2260
     56  O          7.0550   25.2660   29.6140 O.2   198  VAL198     -0.2867
     57  CB         8.7170   25.7540   32.1880 C.3   198  VAL198      0.0252
     58  CG1       10.2080   26.0510   32.3750 C.3   198  VAL198      0.0019
     59  CG2        7.9700   25.7720   33.5130 C.3   198  VAL198      0.0019
     60  N          7.7800   27.6760   27.8210 N.3   201  GLY201     -0.1210
     61  CA         9.1400   27.2440   27.5490 C.3   201  GLY201      0.1956
     62  C          9.2100   25.8980   26.8600 C.2   201  GLY201      0.2612
     63  O         10.0730   25.6720   26.0140 O.2   201  GLY201     -0.2717
     64  N          8.2990   25.0010   27.2220 N.am  202  THR202     -0.1952
     65  CA         8.2260   23.6940   26.5820 C.3   202  THR202      0.1897
     66  C          7.6750   23.7920   25.1620 C.2   202  THR202      0.2313
     67  O          7.9170   22.9140   24.3360 O.2   202  THR202     -0.2863
     68  CB         7.3520   22.7120   27.3920 C.3   202  THR202      0.1794
     69  OG1        6.0370   23.2580   27.5580 O.3   202  THR202     -0.2208
     70  CG2        7.9680   22.4270   28.7550 C.3   202  THR202      0.0378
@<TRIPOS>BOND
     1    24    25    1
     2    29    30    1
     3    29    31    1
     4    29    28    1
     5    25    28    1
     6    25    26    1
     7     7     6    1
     8     6     8    1
     9     6     5    1
    10     1     2    1
    11    32    33    1
    12    67    66    2
    13    26    27    2
    14    36    33    1
    15     5     2    1
    16    33    34    1
    17    66    65    1
    18    15    14    1
    19    15     9    1
    20     2     3    1
    21    14    13    1
    22    63    62    2
    23     9     3   am
    24     9    10    1
    25    34    37   am
    26    34    35    2
    27    65    64    1
    28    65    68    1
    29     3     4    2
    30    62    64   am
    31    62    61    1
    32    13    10    1
    33    37    38    1
    34    68    69    1
    35    68    70    1
    36    10    11    1
    37    61    60    1
    38    11    12    2
    39    38    41    1
    40    38    39    1
    41    41    42    1
    42    39    40    2
    43    46    47    1
    44    42    43    1
    45    56    55    2
    46    52    50    1
    47    22    21    1
    48    21    23    1
    49    21    20    1
    50    47    50    1
    51    47    48    1
    52    50    51    1
    53    16    17    1
    54    55    54    1
    55    43    45   ar
    56    43    44   ar
    57    20    17    1
    58    54    53    1
    59    54    57    1
    60    48    49    2
    61    17    18    1
    62    57    58    1
    63    57    59    1
    64    18    19    2
