@<TRIPOS>MOLECULE
tmp/5jdfA01.pdb
 68 61 0 0 0
SMALL
GASTEIGER

@<TRIPOS>ATOM
      1  N        -10.3570   12.6570   21.8730 N.3   113  ILE113     -0.1245
      2  CA       -11.6780   12.4470   22.4560 C.3   113  ILE113      0.1561
      3  C        -11.6260   11.3280   23.4930 C.2   113  ILE113      0.2260
      4  O        -12.2130   11.4350   24.5710 O.2   113  ILE113     -0.2867
      5  CB       -12.7280   12.1030   21.3790 C.3   113  ILE113      0.0252
      6  CG1      -12.9790   13.3070   20.4710 C.3   113  ILE113      0.0019
      7  CG2      -14.0340   11.6590   22.0210 C.3   113  ILE113      0.0019
      8  CD1      -14.0400   13.0640   19.4180 C.3   113  ILE113      0.0001
      9  N         -9.9970   12.5300   26.6720 N.3   116  ALA116     -0.1231
     10  CA       -10.8790   13.4300   27.4020 C.3   116  ALA116      0.1694
     11  C        -11.9140   12.6630   28.2210 C.2   116  ALA116      0.2591
     12  O        -12.2250   13.0380   29.3520 O.2   116  ALA116     -0.2718
     13  CB       -11.5650   14.3840   26.4380 C.3   116  ALA116      0.0304
     14  N        -12.4370   11.5850   27.6450 N.am  117  VAL117     -0.1980
     15  CA       -13.4540   10.7770   28.3080 C.3   117  VAL117      0.1595
     16  C        -12.8980   10.0640   29.5370 C.2   117  VAL117      0.2287
     17  O        -13.4920   10.1090   30.6150 O.2   117  VAL117     -0.2864
     18  CB       -14.0530    9.7310   27.3460 C.3   117  VAL117      0.0276
     19  CG1      -14.8920    8.7160   28.1110 C.3   117  VAL117      0.0022
     20  CG2      -14.8760   10.4140   26.2650 C.3   117  VAL117      0.0022
     21  N        -12.0980   12.3860   32.7490 N.3   120  ILE120     -0.1245
     22  CA       -13.1530   13.0760   33.4890 C.3   120  ILE120      0.1561
     23  C        -12.9930   12.9000   34.9970 C.2   120  ILE120      0.2260
     24  O        -13.1810   13.8400   35.7680 O.2   120  ILE120     -0.2867
     25  CB       -14.5440   12.5680   33.0700 C.3   120  ILE120      0.0252
     26  CG1      -14.7720   12.8200   31.5800 C.3   120  ILE120      0.0019
     27  CG2      -15.6340   13.2470   33.8870 C.3   120  ILE120      0.0019
     28  CD1      -16.0880   12.2840   31.0730 C.3   120  ILE120      0.0001
     29  N         -8.4540   16.0310   37.3490 N.3   249  ALA249     -0.1245
     30  CA        -9.2330   16.2180   36.1310 C.3   249  ALA249      0.1562
     31  C         -9.2440   17.6700   35.6640 C.2   249  ALA249      0.2260
     32  O         -9.5750   18.5780   36.4270 O.2   249  ALA249     -0.2867
     33  CB       -10.6550   15.7280   36.3410 C.3   249  ALA249      0.0290
     34  N        -11.2350   19.0720   33.0360 N.3   251  ASN251     -0.1225
     35  CA       -12.3140   18.9020   32.0680 C.3   251  ASN251      0.1785
     36  C        -12.5720   20.1240   31.1910 C.2   251  ASN251      0.2597
     37  O        -12.9740   19.9830   30.0350 O.2   251  ASN251     -0.2718
     38  CB       -13.6040   18.5170   32.7930 C.3   251  ASN251      0.1169
     39  CG       -13.6500   17.0480   33.1600 C.2   251  ASN251      0.2627
     40  OD1      -13.2750   16.1870   32.3650 O.2   251  ASN251     -0.2716
     41  ND2      -14.1070   16.7550   34.3720 N.am  251  ASN251     -0.0877
     42  N        -12.3510   21.3160   31.7360 N.am  252  VAL252     -0.1980
     43  CA       -12.5740   22.5450   30.9770 C.3   252  VAL252      0.1595
     44  C        -11.6260   22.6340   29.7870 C.2   252  VAL252      0.2287
     45  O        -12.0570   22.8440   28.6530 O.2   252  VAL252     -0.2864
     46  CB       -12.3960   23.8030   31.8500 C.3   252  VAL252      0.0276
     47  CG1      -12.4380   25.0540   30.9890 C.3   252  VAL252      0.0022
     48  CG2      -13.4650   23.8660   32.9230 C.3   252  VAL252      0.0022
     49  N         -9.7940   20.2520   28.4650 N.3   254  MET254     -0.1230
     50  CA        -9.9690   19.1110   27.5720 C.3   254  MET254      0.1702
     51  C        -11.0660   19.4020   26.5590 C.2   254  MET254      0.2592
     52  O        -10.9160   19.1190   25.3720 O.2   254  MET254     -0.2718
     53  CB       -10.2990   17.8400   28.3570 C.3   254  MET254      0.0401
     54  CG        -9.1170   17.2480   29.1050 C.3   254  MET254      0.0596
     55  SD        -7.6660   17.0190   28.0580 S.3   254  MET254     -0.1393
     56  CE        -8.2880   15.8830   26.8230 C.3   254  MET254      0.0692
     57  N        -12.1660   19.9730   27.0410 N.am  255  ALA255     -0.1980
     58  CA       -13.2590   20.3940   26.1750 C.3   255  ALA255      0.1597
     59  C        -12.7500   21.3910   25.1400 C.2   255  ALA255      0.2287
     60  O        -13.0760   21.2920   23.9580 O.2   255  ALA255     -0.2864
     61  CB       -14.3870   21.0000   26.9940 C.3   255  ALA255      0.0319
     62  N        -10.5960   19.4910   22.7050 N.3   258  VAL258     -0.1245
     63  CA       -11.4560   18.6920   21.8380 C.3   258  VAL258      0.1561
     64  C        -12.0950   19.5690   20.7620 C.2   258  VAL258      0.2260
     65  O        -12.1920   19.1710   19.6000 O.2   258  VAL258     -0.2867
     66  CB       -12.5530   17.9640   22.6500 C.3   258  VAL258      0.0252
     67  CG1      -13.6530   17.4400   21.7390 C.3   258  VAL258      0.0019
     68  CG2      -11.9440   16.8280   23.4570 C.3   258  VAL258      0.0019
@<TRIPOS>BOND
     1     8     6    1
     2    65    64    2
     3     6     5    1
     4    64    63    1
     5     5     7    1
     6     5     2    1
     7    67    66    1
     8    63    66    1
     9    63    62    1
    10     1     2    1
    11     2     3    1
    12    66    68    1
    13     3     4    2
    14    60    59    2
    15    59    58    1
    16    52    51    2
    17    58    61    1
    18    58    57    1
    19    20    18    1
    20    13    10    1
    21    51    57   am
    22    51    50    1
    23     9    10    1
    24    56    55    1
    25    18    19    1
    26    18    15    1
    27    10    11    1
    28    50    53    1
    29    50    49    1
    30    14    11   am
    31    14    15    1
    32    55    54    1
    33    11    12    2
    34    15    16    1
    35    53    54    1
    36    45    44    2
    37    16    17    2
    38    44    43    1
    39    37    36    2
    40    43    42    1
    41    43    46    1
    42    47    46    1
    43    28    26    1
    44    36    42   am
    45    36    35    1
    46    26    25    1
    47    46    48    1
    48    35    38    1
    49    35    34    1
    50    40    39    2
    51    21    22    1
    52    38    39    1
    53    25    22    1
    54    25    27    1
    55    39    41   am
    56    22    23    1
    57    23    24    2
    58    31    30    1
    59    31    32    2
    60    30    33    1
    61    30    29    1
