@<TRIPOS>MOLECULE
tmp/5jdhA06.pdb
 80 72 0 0 0
SMALL
GASTEIGER

@<TRIPOS>ATOM
      1  N         -7.8770   13.0980   16.2170 N.3   109  LEU109     -0.1245
      2  CA        -9.1050   13.5590   16.8550 C.3   109  LEU109      0.1561
      3  C         -9.7200   12.4870   17.7610 C.2   109  LEU109      0.2260
      4  O        -10.1010   12.7740   18.8960 O.2   109  LEU109     -0.2867
      5  CB       -10.1200   13.9930   15.7960 C.3   109  LEU109      0.0270
      6  CG       -11.4830   14.4560   16.3170 C.3   109  LEU109      0.0019
      7  CD1      -11.3290   15.6620   17.2290 C.3   109  LEU109      0.0001
      8  CD2      -12.4170   14.7690   15.1570 C.3   109  LEU109      0.0001
      9  N        -10.2970   12.6880   21.8570 N.3   113  ILE113     -0.1245
     10  CA       -11.6120   12.4540   22.4380 C.3   113  ILE113      0.1561
     11  C        -11.5530   11.3200   23.4570 C.2   113  ILE113      0.2260
     12  O        -12.0970   11.4350   24.5570 O.2   113  ILE113     -0.2867
     13  CB       -12.6560   12.1220   21.3560 C.3   113  ILE113      0.0252
     14  CG1      -12.8500   13.3170   20.4210 C.3   113  ILE113      0.0019
     15  CG2      -13.9800   11.7270   21.9960 C.3   113  ILE113      0.0019
     16  CD1      -13.8420   13.0630   19.3060 C.3   113  ILE113      0.0001
     17  N         -9.8630   12.5440   26.4990 N.3   116  ALA116     -0.1231
     18  CA       -10.7290   13.4520   27.2410 C.3   116  ALA116      0.1694
     19  C        -11.7430   12.6830   28.0780 C.2   116  ALA116      0.2591
     20  O        -11.9740   13.0090   29.2420 O.2   116  ALA116     -0.2718
     21  CB       -11.4410   14.4000   26.2900 C.3   116  ALA116      0.0304
     22  N        -12.3440   11.6600   27.4780 N.am  117  VAL117     -0.1980
     23  CA       -13.3750   10.8820   28.1530 C.3   117  VAL117      0.1595
     24  C        -12.8230   10.1480   29.3720 C.2   117  VAL117      0.2287
     25  O        -13.4090   10.2090   30.4520 O.2   117  VAL117     -0.2864
     26  CB       -14.0280    9.8620   27.2000 C.3   117  VAL117      0.0276
     27  CG1      -14.9680    8.9510   27.9690 C.3   117  VAL117      0.0022
     28  CG2      -14.7810   10.5820   26.0930 C.3   117  VAL117      0.0022
     29  N        -12.0740   12.3590   32.4820 N.3   120  ILE120     -0.1231
     30  CA       -13.1660   13.0450   33.1740 C.3   120  ILE120      0.1692
     31  C        -13.0330   12.9090   34.6890 C.2   120  ILE120      0.2592
     32  O        -13.2810   13.8580   35.4320 O.2   120  ILE120     -0.2718
     33  CB       -14.5400   12.5060   32.7240 C.3   120  ILE120      0.0266
     34  CG1      -14.8110   12.9050   31.2740 C.3   120  ILE120      0.0019
     35  CG2      -15.6550   13.0290   33.6230 C.3   120  ILE120      0.0020
     36  CD1      -16.0870   12.3200   30.7110 C.3   120  ILE120      0.0001
     37  N        -12.6230   11.7250   35.1350 N.am  121  ASP121     -0.1974
     38  CA       -12.3700   11.4770   36.5480 C.3   121  ASP121      0.1709
     39  C        -10.8750   11.5290   36.8500 C.2   121  ASP121      0.2293
     40  O        -10.4080   10.9360   37.8240 O.2   121  ASP121     -0.2864
     41  CB       -12.9480   10.1220   36.9650 C.3   121  ASP121      0.1436
     42  CG       -12.3090    8.9620   36.2230 C.2   121  ASP121      0.3671
     43  OD1      -11.7960    9.1780   35.1050 O.co2 121  ASP121     -0.2456
     44  OD2      -12.3210    7.8320   36.7530 O.co2 121  ASP121     -0.2456
     45  N        -11.2100   19.1730   32.9000 N.3   254  ASN254     -0.1240
     46  CA       -12.2890   18.9980   31.9340 C.3   254  ASN254      0.1653
     47  C        -12.5460   20.2200   31.0640 C.2   254  ASN254      0.2266
     48  O        -12.9460   20.0870   29.9080 O.2   254  ASN254     -0.2867
     49  CB       -13.5740   18.6040   32.6580 C.3   254  ASN254      0.1155
     50  CG       -13.5270   17.1870   33.1820 C.2   254  ASN254      0.2627
     51  OD1      -13.1170   16.2660   32.4750 O.2   254  ASN254     -0.2716
     52  ND2      -13.9290   17.0060   34.4310 N.am  254  ASN254     -0.0877
     53  N         -9.5670   20.2260   28.5220 N.3   257  MET257     -0.1230
     54  CA        -9.7720   19.1130   27.6010 C.3   257  MET257      0.1702
     55  C        -10.8800   19.4260   26.6050 C.2   257  MET257      0.2592
     56  O        -10.7620   19.1110   25.4240 O.2   257  MET257     -0.2718
     57  CB       -10.1070   17.8220   28.3520 C.3   257  MET257      0.0401
     58  CG        -8.9100   17.1020   28.9580 C.3   257  MET257      0.0596
     59  SD        -7.5230   16.8630   27.8210 S.3   257  MET257     -0.1393
     60  CE        -8.2880   15.9780   26.4770 C.3   257  MET257      0.0692
     61  N        -11.9560   20.0410   27.0850 N.am  258  ALA258     -0.1980
     62  CA       -13.0540   20.4300   26.2070 C.3   258  ALA258      0.1597
     63  C        -12.5720   21.4420   25.1690 C.2   258  ALA258      0.2287
     64  O        -12.9420   21.3640   23.9980 O.2   258  ALA258     -0.2864
     65  CB       -14.2140   20.9990   27.0160 C.3   258  ALA258      0.0319
     66  N        -10.5040   19.4970   22.6330 N.3   261  VAL261     -0.1245
     67  CA       -11.3710   18.7040   21.7670 C.3   261  VAL261      0.1561
     68  C        -12.0060   19.5840   20.6910 C.2   261  VAL261      0.2260
     69  O        -12.0400   19.2150   19.5160 O.2   261  VAL261     -0.2867
     70  CB       -12.4760   17.9840   22.5740 C.3   261  VAL261      0.0252
     71  CG1      -13.5390   17.4140   21.6420 C.3   261  VAL261      0.0019
     72  CG2      -11.8720   16.8760   23.4350 C.3   261  VAL261      0.0019
     73  N        -11.2860   19.2750   16.8160 N.3   265  LEU265     -0.1245
     74  CA       -12.3960   19.0520   15.8940 C.3   265  LEU265      0.1561
     75  C        -12.3740   20.0730   14.7570 C.2   265  LEU265      0.2260
     76  O        -12.5240   19.7190   13.5860 O.2   265  LEU265     -0.2867
     77  CB       -13.7300   19.1180   16.6390 C.3   265  LEU265      0.0270
     78  CG       -14.9940   19.0530   15.7800 C.3   265  LEU265      0.0019
     79  CD1      -15.0380   17.7620   14.9700 C.3   265  LEU265      0.0001
     80  CD2      -16.2290   19.1810   16.6540 C.3   265  LEU265      0.0001
@<TRIPOS>BOND
     1    76    75    2
     2    75    74    1
     3    79    78    1
     4     8     6    1
     5    78    77    1
     6    78    80    1
     7     5     6    1
     8     5     2    1
     9    74    77    1
    10    74    73    1
    11     1     2    1
    12     6     7    1
    13     2     3    1
    14     3     4    2
    15    16    14    1
    16    69    68    2
    17    14    13    1
    18    68    67    1
    19    13    15    1
    20    13    10    1
    21    71    70    1
    22    67    70    1
    23    67    66    1
    24     9    10    1
    25    10    11    1
    26    70    72    1
    27    11    12    2
    28    64    63    2
    29    63    62    1
    30    56    55    2
    31    28    26    1
    32    62    65    1
    33    62    61    1
    34    21    18    1
    35    60    59    1
    36    17    18    1
    37    55    61   am
    38    55    54    1
    39    26    27    1
    40    26    23    1
    41    18    19    1
    42    22    19   am
    43    22    23    1
    44    54    57    1
    45    54    53    1
    46    59    58    1
    47    19    20    2
    48    23    24    1
    49    57    58    1
    50    24    25    2
    51    48    47    2
    52    36    34    1
    53    47    46    1
    54    34    33    1
    55    46    49    1
    56    46    45    1
    57    51    50    2
    58    29    30    1
    59    49    50    1
    60    33    30    1
    61    33    35    1
    62    30    31    1
    63    50    52   am
    64    31    37   am
    65    31    32    2
    66    43    42   ar
    67    37    38    1
    68    42    44   ar
    69    42    41    1
    70    38    39    1
    71    38    41    1
    72    39    40    2
