@<TRIPOS>MOLECULE
tmp/5jdmA03.pdb
 87 79 0 0 0
SMALL
GASTEIGER

@<TRIPOS>ATOM
      1  N          9.1360   17.6130   31.9060 N.3    57  THR57      -0.1218
      2  CA         8.4860   18.5330   32.8250 C.3    57  THR57       0.1862
      3  C          7.3310   17.8380   33.5360 C.2    57  THR57       0.2287
      4  O          7.1530   17.9900   34.7440 O.2    57  THR57      -0.2866
      5  CB         7.9530   19.7860   32.1320 C.3    57  THR57       0.1770
      6  OG1        9.0430   20.5420   31.5870 O.3    57  THR57      -0.2211
      7  CG2        7.2600   20.6290   33.1600 C.3    57  THR57       0.0375
      8  N          8.7830   15.2150   35.9580 N.3    60  TYR60      -0.1241
      9  CA         9.3470   15.8790   37.1260 C.3    60  TYR60       0.1605
     10  C          8.2670   16.4550   38.0340 C.2    60  TYR60       0.2264
     11  O          8.3180   16.2820   39.2520 O.2    60  TYR60      -0.2867
     12  CB        10.3070   16.9880   36.6950 C.3    60  TYR60       0.0534
     13  CG        10.9460   17.7250   37.8480 C.ar   60  TYR60      -0.0201
     14  CD1       12.0520   17.2010   38.5030 C.ar   60  TYR60      -0.0009
     15  CD2       10.4450   18.9450   38.2820 C.ar   60  TYR60      -0.0009
     16  CE1       12.6410   17.8690   39.5580 C.ar   60  TYR60       0.0417
     17  CE2       11.0260   19.6210   39.3350 C.ar   60  TYR60       0.0417
     18  CZ        12.1240   19.0780   39.9690 C.ar   60  TYR60       0.1957
     19  OH        12.7090   19.7480   41.0190 O.3    60  TYR60      -0.2866
     20  N         16.0790   26.4540   26.7620 N.3   174  GLU174     -0.1245
     21  CA        16.6160   26.4910   28.1200 C.3   174  GLU174      0.1567
     22  C         17.1530   27.8700   28.4860 C.2   174  GLU174      0.2260
     23  O         16.7740   28.4450   29.5080 O.2   174  GLU174     -0.2867
     24  CB        17.7300   25.4540   28.2780 C.3   174  GLU174      0.0388
     25  CG        17.2650   24.0970   28.7480 C.3   174  GLU174      0.1160
     26  CD        17.0950   24.0400   30.2500 C.2   174  GLU174      0.3649
     27  OE1       18.1050   23.8320   30.9560 O.co2 174  GLU174     -0.2457
     28  OE2       15.9540   24.2110   30.7260 O.co2 174  GLU174     -0.2457
     29  N         14.4330   30.5640   28.8160 N.3   177  VAL177     -0.1231
     30  CA        13.7600   30.4740   30.1020 C.3   177  VAL177      0.1692
     31  C         14.6890   30.9260   31.2240 C.2   177  VAL177      0.2592
     32  O         14.3560   31.8440   31.9690 O.2   177  VAL177     -0.2718
     33  CB        13.2660   29.0450   30.3830 C.3   177  VAL177      0.0266
     34  CG1       12.6640   28.9580   31.7740 C.3   177  VAL177      0.0020
     35  CG2       12.2520   28.6270   29.3340 C.3   177  VAL177      0.0020
     36  N         15.8530   30.2880   31.3270 N.am  178  ASP178     -0.1974
     37  CA        16.8510   30.6400   32.3360 C.3   178  ASP178      0.1709
     38  C         17.1740   32.1280   32.3290 C.2   178  ASP178      0.2293
     39  O         17.1350   32.7820   33.3700 O.2   178  ASP178     -0.2864
     40  CB        18.1370   29.8360   32.1270 C.3   178  ASP178      0.1436
     41  CG        18.0660   28.4560   32.7420 C.2   178  ASP178      0.3671
     42  OD1       17.2040   28.2470   33.6190 O.co2 178  ASP178     -0.2456
     43  OD2       18.8710   27.5830   32.3540 O.co2 178  ASP178     -0.2456
     44  N         14.2370   34.0330   33.7270 N.3   181  LYS181     -0.1245
     45  CA        14.1050   33.8530   35.1710 C.3   181  LYS181      0.1561
     46  C         15.1010   34.7260   35.9320 C.2   181  LYS181      0.2260
     47  O         14.8010   35.2290   37.0130 O.2   181  LYS181     -0.2867
     48  CB        14.3120   32.3840   35.5560 C.3   181  LYS181      0.0271
     49  CG        13.3930   31.3950   34.8520 C.3   181  LYS181      0.0035
     50  CD        12.1790   31.0250   35.6860 C.3   181  LYS181      0.0206
     51  CE        11.3510   29.9660   34.9730 C.3   181  LYS181      0.1093
     52  NZ        10.3710   29.2920   35.8640 N.3   181  LYS181     -0.1314
     53  N         14.0520   38.5100   35.8940 N.3   184  ALA184     -0.1231
     54  CA        12.9400   38.6750   36.8220 C.3   184  ALA184      0.1694
     55  C         13.4160   38.6200   38.2700 C.2   184  ALA184      0.2591
     56  O         12.8890   39.3220   39.1320 O.2   184  ALA184     -0.2718
     57  CB        11.8820   37.6140   36.5750 C.3   184  ALA184      0.0304
     58  N         14.4160   37.7830   38.5310 N.am  185  LEU185     -0.1980
     59  CA        14.9560   37.6300   39.8770 C.3   185  LEU185      0.1596
     60  C         15.7800   38.8460   40.2740 C.2   185  LEU185      0.2287
     61  O         15.6290   39.3810   41.3730 O.2   185  LEU185     -0.2864
     62  CB        15.8040   36.3610   39.9760 C.3   185  LEU185      0.0297
     63  CG        15.7680   35.6180   41.3140 C.3   185  LEU185      0.0022
     64  CD1       14.3900   35.0310   41.5750 C.3   185  LEU185      0.0001
     65  CD2       16.8310   34.5310   41.3570 C.3   185  LEU185      0.0001
     66  N         10.0990   38.5160   40.0120 N.3   190  SER190     -0.1217
     67  CA         9.7110   37.1060   40.0550 C.3   190  SER190      0.1889
     68  C          8.4370   36.7610   40.8300 C.2   190  SER190      0.2288
     69  O          8.4710   36.5450   42.0460 O.2   190  SER190     -0.2866
     70  CB        10.8560   36.2720   40.6380 C.3   190  SER190      0.2089
     71  OG        12.0850   36.5210   39.9840 O.3   190  SER190     -0.2183
     72  N          5.6240   33.5280   40.4550 N.3   192  LYS192     -0.1245
     73  CA         5.8930   32.1600   40.0430 C.3   192  LYS192      0.1561
     74  C          4.6630   31.3820   39.5860 C.2   192  LYS192      0.2260
     75  O          4.7350   30.1710   39.4310 O.2   192  LYS192     -0.2867
     76  CB         6.6110   31.4160   41.1710 C.3   192  LYS192      0.0271
     77  CG         7.8260   30.6440   40.7360 C.3   192  LYS192      0.0035
     78  CD         8.7890   31.5060   39.9100 C.3   192  LYS192      0.0206
     79  CE         9.7260   30.6260   39.0620 C.3   192  LYS192      0.1093
     80  NZ         9.0440   29.5090   38.3380 N.3   192  LYS192     -0.1314
     81  N          7.4270   28.9180   32.0320 N.3   199  VAL199     -0.1245
     82  CA         8.1530   27.6800   31.7570 C.3   199  VAL199      0.1561
     83  C          7.1390   26.7420   31.0820 C.2   199  VAL199      0.2260
     84  O          7.4900   25.8160   30.3560 O.2   199  VAL199     -0.2867
     85  CB         8.7860   27.0530   33.0380 C.3   199  VAL199      0.0252
     86  CG1        7.7710   26.8040   34.1190 C.3   199  VAL199      0.0019
     87  CG2        9.5390   25.7730   32.7260 C.3   199  VAL199      0.0019
@<TRIPOS>BOND
     1    20    21    1
     2    21    24    1
     3    21    22    1
     4    24    25    1
     5    22    23    2
     6    25    26    1
     7    29    30    1
     8    35    33    1
     9    30    33    1
    10    30    31    1
    11    26    28   ar
    12    26    27   ar
    13    84    83    2
    14    33    34    1
    15    83    82    1
    16    31    36   am
    17    31    32    2
    18    36    37    1
    19     6     5    1
    20    82    81    1
    21    82    85    1
    22     1     2    1
    23    40    37    1
    24    40    41    1
    25     5     2    1
    26     5     7    1
    27    38    37    1
    28    38    39    2
    29    43    41   ar
    30    87    85    1
    31    41    42   ar
    32     2     3    1
    33    85    86    1
    34     3     4    2
    35    44    45    1
    36    49    48    1
    37    49    50    1
    38    51    50    1
    39    51    52    1
    40    45    48    1
    41    45    46    1
    42    53    54    1
    43    46    47    2
    44     8     9    1
    45    57    54    1
    46    12     9    1
    47    12    13    1
    48    54    55    1
    49     9    10    1
    50    13    15   ar
    51    13    14   ar
    52    10    11    2
    53    55    58   am
    54    55    56    2
    55    15    17   ar
    56    80    79    1
    57    14    16   ar
    58    58    59    1
    59    79    78    1
    60    17    18   ar
    61    75    74    2
    62    16    18   ar
    63    74    73    1
    64    59    62    1
    65    59    60    1
    66    78    77    1
    67    18    19    1
    68    62    63    1
    69    71    70    1
    70    66    67    1
    71    73    72    1
    72    73    76    1
    73    67    70    1
    74    67    68    1
    75    60    61    2
    76    77    76    1
    77    68    69    2
    78    63    65    1
    79    63    64    1
