@<TRIPOS>MOLECULE
tmp/5jdmA01.pdb
 77 71 0 0 0
SMALL
GASTEIGER

@<TRIPOS>ATOM
      1  N         10.2580   16.6820   24.1970 N.3    52  LEU52      -0.1231
      2  CA        11.1240   16.2800   25.3040 C.3    52  LEU52       0.1678
      3  C         10.9870   17.1880   26.5390 C.2    52  LEU52       0.2434
      4  O         10.9970   16.6840   27.6620 O.2    52  LEU52      -0.2733
      5  CB        12.5880   16.2290   24.8510 C.3    52  LEU52       0.0284
      6  CG        12.9620   15.0870   23.9060 C.3    52  LEU52       0.0019
      7  CD1       14.4510   15.1130   23.5860 C.3    52  LEU52       0.0001
      8  CD2       12.5640   13.7500   24.5110 C.3    52  LEU52       0.0001
      9  N         10.8680   18.5220   26.3460 N.am   53  PRO53      -0.2729
     10  CA        10.5950   19.3620   27.5200 C.3    53  PRO53       0.1401
     11  C          9.3090   18.9990   28.2660 C.2    53  PRO53       0.2269
     12  O          9.3580   18.9000   29.4910 O.2    53  PRO53      -0.2865
     13  CB        10.4890   20.7650   26.9210 C.3    53  PRO53       0.0296
     14  CG        11.3950   20.7190   25.7540 C.3    53  PRO53       0.0237
     15  CD        11.2130   19.3490   25.1710 C.3    53  PRO53       0.0939
     16  N          9.7540   15.6020   30.1820 N.3    56  LEU56      -0.1231
     17  CA        10.6050   15.7490   31.3560 C.3    56  LEU56       0.1693
     18  C         10.0140   16.7280   32.3660 C.2    56  LEU56       0.2592
     19  O         10.3480   16.6810   33.5470 O.2    56  LEU56      -0.2718
     20  CB        12.0120   16.1910   30.9480 C.3    56  LEU56       0.0284
     21  CG        12.9480   15.0280   30.6060 C.3    56  LEU56       0.0019
     22  CD1       14.2760   15.5290   30.0630 C.3    56  LEU56       0.0001
     23  CD2       13.1620   14.1390   31.8230 C.3    56  LEU56       0.0001
     24  N          9.1360   17.6130   31.9060 N.am   57  THR57      -0.1953
     25  CA         8.4860   18.5330   32.8250 C.3    57  THR57       0.1897
     26  C          7.3310   17.8380   33.5360 C.2    57  THR57       0.2313
     27  O          7.1530   17.9900   34.7440 O.2    57  THR57      -0.2863
     28  CB         7.9530   19.7860   32.1320 C.3    57  THR57       0.1794
     29  OG1        9.0430   20.5420   31.5870 O.3    57  THR57      -0.2208
     30  CG2        7.2600   20.6290   33.1600 C.3    57  THR57       0.0378
     31  N         16.6120   22.9850   21.8230 N.3   170  LEU170     -0.1245
     32  CA        16.3840   22.5350   23.1910 C.3   170  LEU170      0.1561
     33  C         17.2290   23.3590   24.1580 C.2   170  LEU170      0.2260
     34  O         16.7450   23.8010   25.1990 O.2   170  LEU170     -0.2867
     35  CB        16.6960   21.0430   23.3330 C.3   170  LEU170      0.0270
     36  CG        15.7220   20.0770   22.6470 C.3   170  LEU170      0.0019
     37  CD1       16.1590   18.6310   22.8350 C.3   170  LEU170      0.0001
     38  CD2       14.3000   20.2760   23.1550 C.3   170  LEU170      0.0001
     39  N         15.9700   27.0040   24.0420 N.3   173  ALA173     -0.1231
     40  CA        14.7760   27.1890   24.8570 C.3   173  ALA173      0.1694
     41  C         15.1510   27.3060   26.3310 C.2   173  ALA173      0.2591
     42  O         14.6090   28.1450   27.0550 O.2   173  ALA173     -0.2718
     43  CB        13.8010   26.0430   24.6430 C.3   173  ALA173      0.0304
     44  N         16.0790   26.4540   26.7620 N.am  174  GLU174     -0.1979
     45  CA        16.6160   26.4910   28.1200 C.3   174  GLU174      0.1602
     46  C         17.1530   27.8700   28.4860 C.2   174  GLU174      0.2287
     47  O         16.7740   28.4450   29.5080 O.2   174  GLU174     -0.2864
     48  CB        17.7300   25.4540   28.2780 C.3   174  GLU174      0.0415
     49  CG        17.2650   24.0970   28.7480 C.3   174  GLU174      0.1163
     50  CD        17.0950   24.0400   30.2500 C.2   174  GLU174      0.3649
     51  OE1       18.1050   23.8320   30.9560 O.co2 174  GLU174     -0.2457
     52  OE2       15.9540   24.2110   30.7260 O.co2 174  GLU174     -0.2457
     53  N         14.4330   30.5640   28.8160 N.3   177  VAL177     -0.1245
     54  CA        13.7600   30.4740   30.1020 C.3   177  VAL177      0.1561
     55  C         14.6890   30.9260   31.2240 C.2   177  VAL177      0.2260
     56  O         14.3560   31.8440   31.9690 O.2   177  VAL177     -0.2867
     57  CB        13.2660   29.0450   30.3830 C.3   177  VAL177      0.0252
     58  CG1       12.6640   28.9580   31.7740 C.3   177  VAL177      0.0019
     59  CG2       12.2520   28.6270   29.3340 C.3   177  VAL177      0.0019
     60  N          7.4270   28.9180   32.0320 N.3   199  VAL199     -0.1245
     61  CA         8.1530   27.6800   31.7570 C.3   199  VAL199      0.1561
     62  C          7.1390   26.7420   31.0820 C.2   199  VAL199      0.2260
     63  O          7.4900   25.8160   30.3560 O.2   199  VAL199     -0.2867
     64  CB         8.7860   27.0530   33.0380 C.3   199  VAL199      0.0252
     65  CG1        7.7710   26.8040   34.1190 C.3   199  VAL199      0.0019
     66  CG2        9.5390   25.7730   32.7260 C.3   199  VAL199      0.0019
     67  N          8.0280   28.2520   27.5660 N.3   202  GLY202     -0.1210
     68  CA         9.3300   27.8070   27.0900 C.3   202  GLY202      0.1956
     69  C          9.3440   26.3290   26.7290 C.2   202  GLY202      0.2612
     70  O         10.1850   25.8610   25.9550 O.2   202  GLY202     -0.2717
     71  N          8.3830   25.5950   27.2860 N.am  203  THR203     -0.1952
     72  CA         8.1700   24.1920   26.9450 C.3   203  THR203      0.1897
     73  C          7.7780   24.0790   25.4680 C.2   203  THR203      0.2313
     74  O          8.0490   23.0840   24.8120 O.2   203  THR203     -0.2863
     75  CB         7.0670   23.5510   27.8030 C.3   203  THR203      0.1794
     76  OG1        6.7820   22.2520   27.2910 O.3   203  THR203     -0.2208
     77  CG2        5.8180   24.3280   27.6640 C.3   203  THR203      0.0378
@<TRIPOS>BOND
     1    31    32    1
     2    36    37    1
     3    36    38    1
     4    36    35    1
     5    32    35    1
     6    32    33    1
     7     7     6    1
     8     6     8    1
     9     6     5    1
    10    39    40    1
    11    33    34    2
    12     1     2    1
    13    43    40    1
    14    74    73    2
    15     5     2    1
    16    40    41    1
    17    15    14    1
    18    15     9    1
    19     2     3    1
    20    73    72    1
    21    14    13    1
    22    70    69    2
    23    41    44   am
    24    41    42    2
    25     9     3   am
    26     9    10    1
    27     3     4    2
    28    69    68    1
    29    69    71   am
    30    44    45    1
    31    13    10    1
    32    72    71    1
    33    72    75    1
    34    68    67    1
    35    76    75    1
    36    10    11    1
    37    77    75    1
    38    45    48    1
    39    45    46    1
    40    11    12    2
    41    48    49    1
    42    46    47    2
    43    49    50    1
    44    53    54    1
    45    59    57    1
    46    22    21    1
    47    54    57    1
    48    54    55    1
    49    16    17    1
    50    50    52   ar
    51    50    51   ar
    52    63    62    2
    53    57    58    1
    54    21    20    1
    55    21    23    1
    56    20    17    1
    57    62    61    1
    58    55    56    2
    59    17    18    1
    60    29    28    1
    61    61    60    1
    62    61    64    1
    63    24    18   am
    64    24    25    1
    65    28    25    1
    66    28    30    1
    67    18    19    2
    68    66    64    1
    69    25    26    1
    70    64    65    1
    71    26    27    2
