@<TRIPOS>MOLECULE
tmp/5jdnA04.pdb
 77 71 0 0 0
SMALL
GASTEIGER

@<TRIPOS>ATOM
      1  N         10.3580   16.4870   24.1550 N.3    52  LEU52      -0.1231
      2  CA        11.2260   16.0830   25.2590 C.3    52  LEU52       0.1678
      3  C         11.0960   16.9850   26.5050 C.2    52  LEU52       0.2434
      4  O         11.0580   16.4600   27.6160 O.2    52  LEU52      -0.2733
      5  CB        12.6900   16.0260   24.8060 C.3    52  LEU52       0.0284
      6  CG        13.0550   14.9130   23.8160 C.3    52  LEU52       0.0019
      7  CD1       14.5670   14.9190   23.5350 C.3    52  LEU52       0.0001
      8  CD2       12.5970   13.5560   24.3320 C.3    52  LEU52       0.0001
      9  N         11.0180   18.3310   26.3320 N.am   53  PRO53      -0.2729
     10  CA        10.8110   19.1850   27.5160 C.3    53  PRO53       0.1401
     11  C          9.5370   18.8670   28.2960 C.2    53  PRO53       0.2269
     12  O          9.5980   18.7470   29.5240 O.2    53  PRO53      -0.2865
     13  CB        10.7200   20.5990   26.9230 C.3    53  PRO53       0.0296
     14  CG        11.5170   20.5320   25.6840 C.3    53  PRO53       0.0237
     15  CD        11.2650   19.1460   25.1240 C.3    53  PRO53       0.0939
     16  N          9.9560   15.4730   30.2630 N.3    56  LEU56      -0.1231
     17  CA        10.7730   15.6350   31.4620 C.3    56  LEU56       0.1693
     18  C         10.0330   16.4490   32.5180 C.2    56  LEU56       0.2592
     19  O         10.0440   16.1020   33.6930 O.2    56  LEU56      -0.2718
     20  CB        12.1130   16.2940   31.1180 C.3    56  LEU56       0.0284
     21  CG        12.9660   15.4510   30.1580 C.3    56  LEU56       0.0019
     22  CD1       14.3400   16.0710   29.9080 C.3    56  LEU56       0.0001
     23  CD2       13.1140   14.0090   30.6690 C.3    56  LEU56       0.0001
     24  N          9.3760   17.5180   32.0840 N.am   57  THR57      -0.1953
     25  CA         8.6560   18.4220   32.9830 C.3    57  THR57       0.1897
     26  C          7.4970   17.7310   33.6980 C.2    57  THR57       0.2313
     27  O          7.3470   17.8550   34.9130 O.2    57  THR57      -0.2863
     28  CB         8.1090   19.6570   32.2150 C.3    57  THR57       0.1794
     29  OG1        9.1990   20.4820   31.8050 O.3    57  THR57      -0.2208
     30  CG2        7.1650   20.4770   33.0820 C.3    57  THR57       0.0378
     31  N         16.5510   22.9360   21.8390 N.3   172  LEU172     -0.1245
     32  CA        16.3480   22.5080   23.2200 C.3   172  LEU172      0.1561
     33  C         17.2050   23.3180   24.2070 C.2   172  LEU172      0.2260
     34  O         16.7220   23.7130   25.2690 O.2   172  LEU172     -0.2867
     35  CB        16.6450   21.0130   23.3620 C.3   172  LEU172      0.0270
     36  CG        15.6720   20.0740   22.6300 C.3   172  LEU172      0.0019
     37  CD1       16.0660   18.6220   22.8340 C.3   172  LEU172      0.0001
     38  CD2       14.2310   20.2990   23.0720 C.3   172  LEU172      0.0001
     39  N         15.9730   27.0060   24.1510 N.3   175  ALA175     -0.1231
     40  CA        14.7560   27.1540   24.9400 C.3   175  ALA175      0.1694
     41  C         15.0600   27.2550   26.4400 C.2   175  ALA175      0.2591
     42  O         14.5340   28.1390   27.1350 O.2   175  ALA175     -0.2718
     43  CB        13.8120   26.0060   24.6680 C.3   175  ALA175      0.0304
     44  N         15.8970   26.3460   26.9340 N.am  176  GLU176     -0.1979
     45  CA        16.3400   26.4010   28.3200 C.3   176  GLU176      0.1602
     46  C         16.9670   27.7630   28.6640 C.2   176  GLU176      0.2287
     47  O         16.5780   28.3940   29.6480 O.2   176  GLU176     -0.2864
     48  CB        17.3320   25.2770   28.6060 C.3   176  GLU176      0.0415
     49  CG        16.7550   24.1810   29.4760 C.3   176  GLU176      0.1163
     50  CD        16.3940   24.6860   30.8610 C.2   176  GLU176      0.3649
     51  OE1       17.2860   25.2250   31.5520 O.co2 176  GLU176     -0.2457
     52  OE2       15.2200   24.5440   31.2630 O.co2 176  GLU176     -0.2457
     53  N         14.3730   30.4950   28.9770 N.3   179  VAL179     -0.1245
     54  CA        13.6760   30.3730   30.2490 C.3   179  VAL179      0.1561
     55  C         14.5850   30.7790   31.4140 C.2   179  VAL179      0.2260
     56  O         14.2060   31.5940   32.2600 O.2   179  VAL179     -0.2867
     57  CB        13.1710   28.9310   30.4870 C.3   179  VAL179      0.0252
     58  CG1       12.6130   28.7950   31.8910 C.3   179  VAL179      0.0019
     59  CG2       12.1210   28.5400   29.4520 C.3   179  VAL179      0.0019
     60  N          7.8420   28.6090   32.2180 N.3   201  VAL201     -0.1245
     61  CA         8.3960   27.3420   31.7750 C.3   201  VAL201      0.1561
     62  C          7.3490   26.5710   30.9730 C.2   201  VAL201      0.2260
     63  O          7.6920   25.8040   30.0700 O.2   201  VAL201     -0.2867
     64  CB         8.8820   26.4670   32.9570 C.3   201  VAL201      0.0252
     65  CG1       10.0480   25.5870   32.5160 C.3   201  VAL201      0.0019
     66  CG2        9.2920   27.3350   34.1350 C.3   201  VAL201      0.0019
     67  N          7.7210   27.8530   27.8930 N.3   204  GLY204     -0.1210
     68  CA         9.0850   27.4450   27.6090 C.3   204  GLY204      0.1956
     69  C          9.1570   26.1210   26.8770 C.2   204  GLY204      0.2612
     70  O          9.8870   26.0000   25.8950 O.2   204  GLY204     -0.2717
     71  N          8.3730   25.1410   27.3230 N.am  205  THR205     -0.1952
     72  CA         8.3960   23.8270   26.6950 C.3   205  THR205      0.1897
     73  C          7.8390   23.8740   25.2700 C.2   205  THR205      0.2313
     74  O          8.1320   22.9910   24.4780 O.2   205  THR205     -0.2863
     75  CB         7.6050   22.7720   27.5160 C.3   205  THR205      0.1794
     76  OG1        6.2070   23.0850   27.5140 O.3   205  THR205     -0.2208
     77  CG2        8.1140   22.7250   28.9490 C.3   205  THR205      0.0378
@<TRIPOS>BOND
     1    31    32    1
     2    36    37    1
     3    36    38    1
     4    36    35    1
     5    32    35    1
     6    32    33    1
     7     7     6    1
     8     6     8    1
     9     6     5    1
    10    39    40    1
    11     1     2    1
    12    33    34    2
    13    74    73    2
    14    43    40    1
    15     5     2    1
    16    40    41    1
    17    15    14    1
    18    15     9    1
    19     2     3    1
    20    73    72    1
    21    14    13    1
    22    70    69    2
    23     9     3   am
    24     9    10    1
    25    41    44   am
    26    41    42    2
    27     3     4    2
    28    72    71    1
    29    72    75    1
    30    69    71   am
    31    69    68    1
    32    13    10    1
    33    44    45    1
    34    76    75    1
    35    75    77    1
    36    10    11    1
    37    68    67    1
    38    11    12    2
    39    45    48    1
    40    45    46    1
    41    48    49    1
    42    46    47    2
    43    53    54    1
    44    59    57    1
    45    49    50    1
    46    22    21    1
    47    63    62    2
    48    21    23    1
    49    21    20    1
    50    54    57    1
    51    54    55    1
    52    16    17    1
    53    57    58    1
    54    50    52   ar
    55    50    51   ar
    56    62    61    1
    57    20    17    1
    58    55    56    2
    59    17    18    1
    60    61    60    1
    61    61    64    1
    62    29    28    1
    63    24    18   am
    64    24    25    1
    65    28    25    1
    66    28    30    1
    67    65    64    1
    68    18    19    2
    69    64    66    1
    70    25    26    1
    71    26    27    2
