@<TRIPOS>MOLECULE
tmp/5jdnA01.pdb
 72 70 0 0 0
SMALL
GASTEIGER

@<TRIPOS>ATOM
      1  N          9.8470    9.0850    3.0180 N.3    36  VAL36      -0.1231
      2  CA         8.6050    9.3480    3.7290 C.3    36  VAL36       0.1692
      3  C          8.2650   10.8230    3.5790 C.2    36  VAL36       0.2593
      4  O          9.1350   11.6400    3.2660 O.2    36  VAL36      -0.2718
      5  CB         8.6930    8.9580    5.2280 C.3    36  VAL36       0.0266
      6  CG1        9.0120    7.4750    5.3780 C.3    36  VAL36       0.0020
      7  CG2        9.7370    9.8030    5.9590 C.3    36  VAL36       0.0020
      8  N          6.9970   11.1610    3.7850 N.am   37  SER37      -0.1938
      9  CA         6.5590   12.5390    3.6490 C.3    37  SER37       0.2055
     10  C          7.1060   13.4060    4.7730 C.2    37  SER37       0.2643
     11  O          7.5790   12.8940    5.7970 O.2    37  SER37      -0.2714
     12  CB         5.0350   12.6300    3.6360 C.3    37  SER37       0.2130
     13  OG         4.5090   12.3780    4.9300 O.3    37  SER37      -0.2179
     14  N          7.0340   14.7180    4.5630 N.am   38  ASN38      -0.1957
     15  CA         7.4000   15.6940    5.5750 C.3    38  ASN38       0.1819
     16  C          6.4710   15.6270    6.7950 C.2    38  ASN38       0.2621
     17  O          6.9090   15.8600    7.9200 O.2    38  ASN38      -0.2715
     18  CB         7.3890   17.1160    4.9820 C.3    38  ASN38       0.1195
     19  CG         8.5870   17.3930    4.0720 C.2    38  ASN38       0.2630
     20  OD1        9.6390   16.7500    4.1820 O.2    38  ASN38      -0.2716
     21  ND2        8.4340   18.3620    3.1800 N.am   38  ASN38      -0.0877
     22  N          5.1880   15.3380    6.5670 N.am   39  PHE39      -0.1974
     23  CA         4.2510   15.1730    7.6760 C.3    39  PHE39       0.1639
     24  C          4.7740   14.0910    8.6090 C.2    39  PHE39       0.2290
     25  O          4.7630   14.2550    9.8290 O.2    39  PHE39      -0.2864
     26  CB         2.8470   14.8070    7.1770 C.3    39  PHE39       0.0560
     27  CG         1.8640   14.4930    8.2800 C.ar   39  PHE39      -0.0200
     28  CD1        1.8130   13.2240    8.8560 C.ar   39  PHE39      -0.0042
     29  CD2        0.9700   15.4620    8.7230 C.ar   39  PHE39      -0.0042
     30  CE1        0.9100   12.9370    9.8760 C.ar   39  PHE39      -0.0003
     31  CE2        0.0540   15.1840    9.7350 C.ar   39  PHE39      -0.0003
     32  CZ         0.0220   13.9210   10.3130 C.ar   39  PHE39      -0.0000
     33  N         -3.5500   12.3570    4.6880 N.3   101  LEU101     -0.1245
     34  CA        -3.2190   13.0780    5.9040 C.3   101  LEU101      0.1561
     35  C         -4.4670   13.4010    6.7310 C.2   101  LEU101      0.2260
     36  O         -4.3770   13.5880    7.9440 O.2   101  LEU101     -0.2867
     37  CB        -2.4610   14.3590    5.5770 C.3   101  LEU101      0.0270
     38  CG        -0.9750   14.3600    5.9270 C.3   101  LEU101      0.0019
     39  CD1       -0.3010   13.0970    5.4170 C.3   101  LEU101      0.0001
     40  CD2       -0.3050   15.6150    5.3770 C.3   101  LEU101      0.0001
     41  N          7.6700   27.0430    3.3300 N.3   220  ASN220     -0.1225
     42  CA         6.4730   26.4060    2.7850 C.3   220  ASN220      0.1785
     43  C          6.3560   24.9150    3.0530 C.2   220  ASN220      0.2597
     44  O          5.7730   24.1900    2.2580 O.2   220  ASN220     -0.2718
     45  CB         6.3940   26.6360    1.2820 C.3   220  ASN220      0.1169
     46  CG         5.9320   28.0270    0.9390 C.2   220  ASN220      0.2627
     47  OD1        4.9980   28.5480    1.5510 O.2   220  ASN220     -0.2716
     48  ND2        6.5730   28.6370   -0.0470 N.am  220  ASN220     -0.0877
     49  N          6.8980   24.4500    4.1710 N.am  221  LEU221     -0.1966
     50  CA         6.8290   23.0280    4.4710 C.3   221  LEU221      0.1728
     51  C          5.5910   22.7220    5.3100 C.2   221  LEU221      0.2617
     52  O          5.6870   22.3030    6.4710 O.2   221  LEU221     -0.2715
     53  CB         8.1090   22.5620    5.1620 C.3   221  LEU221      0.0311
     54  CG         9.3220   22.7020    4.2410 C.3   221  LEU221      0.0022
     55  CD1       10.5790   22.1710    4.8920 C.3   221  LEU221      0.0001
     56  CD2        9.0590   21.9990    2.9080 C.3   221  LEU221      0.0001
     57  N          4.4310   22.9110    4.6800 N.am  222  GLY222     -0.1940
     58  CA         3.1440   22.8930    5.3540 C.3   222  GLY222      0.2014
     59  C          2.8320   21.5730    6.0210 C.2   222  GLY222      0.2639
     60  O          2.3860   21.5340    7.1680 O.2   222  GLY222     -0.2714
     61  N          3.0740   20.4870    5.3010 N.am  223  GLY223     -0.1939
     62  CA         2.8600   19.1700    5.8480 C.3   223  GLY223      0.2014
     63  C          3.7120   18.9140    7.0760 C.2   223  GLY223      0.2638
     64  O          3.2500   18.2660    8.0160 O.2   223  GLY223     -0.2714
     65  N          4.9520   19.4140    7.0680 N.am  224  MET224     -0.1976
     66  CA         5.8630   19.2540    8.2080 C.3   224  MET224      0.1605
     67  C          5.3310   19.9720    9.4520 C.2   224  MET224      0.2287
     68  O          5.3700   19.4350   10.5550 O.2   224  MET224     -0.2864
     69  CB         7.2660   19.7800    7.8650 C.3   224  MET224      0.0413
     70  CG         8.2430   19.7380    9.0380 C.3   224  MET224      0.0598
     71  SD         9.9310   20.2650    8.6420 S.3   224  MET224     -0.1393
     72  CE        10.4720   18.9270    7.5640 C.3   224  MET224      0.0692
@<TRIPOS>BOND
     1    48    46   am
     2    46    45    1
     3    46    47    2
     4    45    42    1
     5    44    43    2
     6    42    43    1
     7    42    41    1
     8    56    54    1
     9     1     2    1
    10    43    49   am
    11    21    19   am
    12     4     3    2
    13     3     2    1
    14     3     8   am
    15    12     9    1
    16    12    13    1
    17     9     8    1
    18     9    10    1
    19     2     5    1
    20    19    20    2
    21    19    18    1
    22    49    50    1
    23    54    55    1
    24    54    53    1
    25    50    53    1
    26    50    51    1
    27    14    10   am
    28    14    15    1
    29    57    51   am
    30    57    58    1
    31    33    34    1
    32    10    11    2
    33    18    15    1
    34     5     6    1
    35     5     7    1
    36    61    62    1
    37    61    59   am
    38    51    52    2
    39    58    59    1
    40    40    38    1
    41    39    38    1
    42    15    16    1
    43    37    34    1
    44    37    38    1
    45    62    63    1
    46    34    35    1
    47    59    60    2
    48    22    16   am
    49    22    23    1
    50    35    36    2
    51    16    17    2
    52    65    63   am
    53    65    66    1
    54    63    64    2
    55    26    23    1
    56    26    27    1
    57    72    71    1
    58    23    24    1
    59    69    66    1
    60    69    70    1
    61    66    67    1
    62    27    29   ar
    63    27    28   ar
    64    24    25    2
    65    71    70    1
    66    29    31   ar
    67    28    30   ar
    68    67    68    2
    69    31    32   ar
    70    30    32   ar
