@<TRIPOS>MOLECULE
tmp/5jdnA03.pdb
 87 83 0 0 0
SMALL
GASTEIGER

@<TRIPOS>ATOM
      1  N         16.6930   30.4350   17.0160 N.3    17  TYR17      -0.1227
      2  CA        16.5160   30.9200   15.6510 C.3    17  TYR17       0.1736
      3  C         17.2490   30.0600   14.6220 C.2    17  TYR17       0.2595
      4  O         16.6490   29.5920   13.6530 O.2    17  TYR17      -0.2718
      5  CB        16.9880   32.3720   15.5330 C.3    17  TYR17       0.0548
      6  CG        16.5530   33.0260   14.2470 C.ar   17  TYR17      -0.0200
      7  CD1       15.2610   33.5000   14.0990 C.ar   17  TYR17      -0.0009
      8  CD2       17.4290   33.1560   13.1730 C.ar   17  TYR17      -0.0009
      9  CE1       14.8470   34.0890   12.9220 C.ar   17  TYR17       0.0417
     10  CE2       17.0250   33.7470   11.9890 C.ar   17  TYR17       0.0417
     11  CZ        15.7310   34.2140   11.8740 C.ar   17  TYR17       0.1957
     12  OH        15.3050   34.8060   10.7100 O.3    17  TYR17      -0.2866
     13  N         18.5450   29.8510   14.8280 N.am   18  TYR18      -0.1976
     14  CA        19.3350   29.1140   13.8510 C.3    18  TYR18       0.1639
     15  C         19.1710   27.6150   14.0430 C.2    18  TYR18       0.2290
     16  O         19.1230   26.8630   13.0690 O.2    18  TYR18      -0.2864
     17  CB        20.8100   29.5120   13.9310 C.3    18  TYR18       0.0560
     18  CG        21.0780   30.9220   13.4450 C.ar   18  TYR18      -0.0198
     19  CD1       21.0020   31.2350   12.0940 C.ar   18  TYR18      -0.0009
     20  CD2       21.3980   31.9400   14.3360 C.ar   18  TYR18      -0.0009
     21  CE1       21.2370   32.5220   11.6380 C.ar   18  TYR18       0.0417
     22  CE2       21.6390   33.2370   13.8890 C.ar   18  TYR18       0.0417
     23  CZ        21.5560   33.5180   12.5390 C.ar   18  TYR18       0.1957
     24  OH        21.7910   34.7910   12.0820 O.3    18  TYR18      -0.2866
     25  N         16.5170   26.0900   14.9560 N.3    20  SER20      -0.1202
     26  CA        15.2420   25.6470   14.3950 C.3    20  SER20       0.2020
     27  C         15.3500   25.4220   12.8930 C.2    20  SER20       0.2618
     28  O         14.8490   24.4190   12.3780 O.2    20  SER20      -0.2717
     29  CB        14.1200   26.6460   14.7190 C.3    20  SER20       0.2103
     30  OG        14.2390   27.8380   13.9680 O.3    20  SER20      -0.2182
     31  N         16.0350   26.3260   12.1980 N.am   21  ASP21      -0.1973
     32  CA        16.1600   26.2030   10.7480 C.3    21  ASP21       0.1709
     33  C         16.9700   24.9640   10.3670 C.2    21  ASP21       0.2293
     34  O         16.6210   24.2760    9.4050 O.2    21  ASP21      -0.2864
     35  CB        16.7990   27.4430   10.1230 C.3    21  ASP21       0.1436
     36  CG        16.5380   27.5330    8.6180 C.2    21  ASP21       0.3671
     37  OD1       15.3710   27.3720    8.2010 O.co2  21  ASP21      -0.2456
     38  OD2       17.4960   27.7360    7.8430 O.co2  21  ASP21      -0.2456
     39  N          1.1860   32.1430    7.6380 N.3    92  ILE92      -0.1245
     40  CA         2.4190   32.2480    6.8690 C.3    92  ILE92       0.1561
     41  C          2.4080   31.3650    5.6160 C.2    92  ILE92       0.2260
     42  O          2.9120   31.7630    4.5610 O.2    92  ILE92      -0.2867
     43  CB         3.6330   31.8610    7.7300 C.3    92  ILE92       0.0252
     44  CG1        3.8120   32.8500    8.8810 C.3    92  ILE92       0.0019
     45  CG2        4.9070   31.7410    6.8790 C.3    92  ILE92       0.0019
     46  CD1        4.9720   32.5030    9.7880 C.3    92  ILE92       0.0001
     47  N          9.2860   27.6870   17.1660 N.3   211  MET211     -0.1245
     48  CA        10.3520   28.1330   16.2870 C.3   211  MET211      0.1570
     49  C         10.5320   27.1810   15.1180 C.2   211  MET211      0.2261
     50  O         10.7270   27.6100   13.9860 O.2   211  MET211     -0.2867
     51  CB        11.6480   28.2780   17.0690 C.3   211  MET211      0.0387
     52  CG        11.5360   29.2760   18.2160 C.3   211  MET211      0.0595
     53  SD        11.0790   30.9160   17.6210 S.3   211  MET211     -0.1393
     54  CE        12.5790   31.4270   16.7830 C.3   211  MET211      0.0692
     55  N          7.5990   27.6020   12.7060 N.3   214  LEU214     -0.1231
     56  CA         7.7120   28.8650   11.9920 C.3   214  LEU214      0.1693
     57  C          8.7870   28.7560   10.9280 C.2   214  LEU214      0.2591
     58  O          8.6190   29.2600    9.8170 O.2   214  LEU214     -0.2718
     59  CB         8.0250   30.0260   12.9460 C.3   214  LEU214      0.0284
     60  CG         6.9260   30.5450   13.8780 C.3   214  LEU214      0.0019
     61  CD1        7.4850   31.6800   14.7370 C.3   214  LEU214      0.0001
     62  CD2        5.6810   30.9940   13.1030 C.3   214  LEU214      0.0001
     63  N          9.8890   28.0910   11.2680 N.am  215  ALA215     -0.1980
     64  CA        10.9540   27.8740   10.2950 C.3   215  ALA215      0.1597
     65  C         10.4280   27.0370    9.1260 C.2   215  ALA215      0.2287
     66  O         10.6550   27.3840    7.9730 O.2   215  ALA215     -0.2864
     67  CB        12.1590   27.2010   10.9440 C.3   215  ALA215      0.0319
     68  N          8.1350   29.1320    7.0030 N.3   218  LYS218     -0.1231
     69  CA         8.8330   30.0740    6.1190 C.3   218  LYS218      0.1693
     70  C          9.3480   29.4260    4.8450 C.2   218  LYS218      0.2591
     71  O          9.6080   30.1080    3.8550 O.2   218  LYS218     -0.2718
     72  CB        10.0180   30.7190    6.8210 C.3   218  LYS218      0.0285
     73  CG         9.7040   31.7490    7.8760 C.3   218  LYS218      0.0035
     74  CD        11.0290   32.1920    8.4770 C.3   218  LYS218      0.0206
     75  CE        10.8570   33.2520    9.5230 C.3   218  LYS218      0.1093
     76  NZ        12.1720   33.5730   10.1510 N.3   218  LYS218     -0.1314
     77  N          9.5360   28.1120    4.8900 N.am  219  ARG219     -0.1980
     78  CA        10.0390   27.3810    3.7450 C.3   219  ARG219      0.1597
     79  C          8.9030   26.6060    3.0750 C.2   219  ARG219      0.2287
     80  O          9.1420   25.6330    2.3660 O.2   219  ARG219     -0.2864
     81  CB        11.1570   26.4340    4.1780 C.3   219  ARG219      0.0334
     82  CG        12.3690   27.1270    4.7670 C.3   219  ARG219      0.0492
     83  CD        13.4630   26.1220    5.0970 C.3   219  ARG219      0.2205
     84  NE        14.6750   26.7840    5.5760 N.pl3 219  ARG219     -0.0865
     85  CZ        15.6540   27.2170    4.7870 C.cat 219  ARG219      0.5346
     86  NH1       15.5660   27.0590    3.4740 N.pl3 219  ARG219      0.1354
     87  NH2       16.7210   27.8130    5.3100 N.pl3 219  ARG219      0.1354
@<TRIPOS>BOND
     1    80    79    2
     2    79    78    1
     3    86    85    1
     4    78    81    1
     5    78    77    1
     6    71    70    2
     7    81    82    1
     8    42    41    2
     9    82    83    1
    10    85    87    1
    11    85    84    2
    12    70    77   am
    13    70    69    1
    14    83    84    1
    15    41    40    1
    16    69    72    1
    17    69    68    1
    18    72    73    1
    19    40    39    1
    20    40    43    1
    21    45    43    1
    22    43    44    1
    23    38    36   ar
    24    73    74    1
    25    66    65    2
    26    37    36   ar
    27    74    75    1
    28    36    35    1
    29    44    46    1
    30    65    64    1
    31    34    33    2
    32    75    76    1
    33    58    57    2
    34    35    32    1
    35    64    67    1
    36    64    63    1
    37    33    32    1
    38    12    11    1
    39    32    31    1
    40    57    63   am
    41    57    56    1
    42    21    19   ar
    43    21    23   ar
    44    11    10   ar
    45    11     9   ar
    46    10     8   ar
    47    56    55    1
    48    56    59    1
    49    24    23    1
    50    19    18   ar
    51    31    27   am
    52    28    27    2
    53    23    22   ar
    54    27    26    1
    55     9     7   ar
    56    59    60    1
    57    16    15    2
    58    62    60    1
    59     8     6   ar
    60    18    17    1
    61    18    20   ar
    62     4     3    2
    63    14    17    1
    64    14    15    1
    65    14    13    1
    66    60    61    1
    67    22    20   ar
    68    30    29    1
    69    50    49    2
    70     7     6   ar
    71     6     5    1
    72    26    29    1
    73    26    25    1
    74     3    13   am
    75     3     2    1
    76    49    48    1
    77     5     2    1
    78     2     1    1
    79    48    51    1
    80    48    47    1
    81    54    53    1
    82    51    52    1
    83    53    52    1
