@<TRIPOS>MOLECULE
tmp/5jdqA01.pdb
 70 65 0 0 0
SMALL
GASTEIGER

@<TRIPOS>ATOM
      1  N         10.4090   16.5760   24.2600 N.3    52  LEU52      -0.1231
      2  CA        11.2750   16.1280   25.3510 C.3    52  LEU52       0.1678
      3  C         11.1970   17.0370   26.5900 C.2    52  LEU52       0.2434
      4  O         11.2260   16.5360   27.7120 O.2    52  LEU52      -0.2733
      5  CB        12.7300   16.0160   24.8750 C.3    52  LEU52       0.0284
      6  CG        13.0530   14.9800   23.7930 C.3    52  LEU52       0.0019
      7  CD1       14.5140   15.0770   23.3770 C.3    52  LEU52       0.0001
      8  CD2       12.7220   13.5690   24.2610 C.3    52  LEU52       0.0001
      9  N         11.1140   18.3710   26.4010 N.am   53  PRO53      -0.2729
     10  CA        10.8740   19.2070   27.5850 C.3    53  PRO53       0.1401
     11  C          9.5780   18.8740   28.3310 C.2    53  PRO53       0.2269
     12  O          9.6070   18.7600   29.5570 O.2    53  PRO53      -0.2865
     13  CB        10.8050   20.6180   27.0010 C.3    53  PRO53       0.0296
     14  CG        11.6740   20.5580   25.8090 C.3    53  PRO53       0.0237
     15  CD        11.4620   19.1970   25.2260 C.3    53  PRO53       0.0939
     16  N          9.8410   15.5040   30.2020 N.3    56  LEU56      -0.1231
     17  CA        10.6870   15.6540   31.3760 C.3    56  LEU56       0.1693
     18  C         10.0370   16.5430   32.4240 C.2    56  LEU56       0.2592
     19  O         10.1800   16.2920   33.6180 O.2    56  LEU56      -0.2718
     20  CB        12.0550   16.2150   30.9890 C.3    56  LEU56       0.0284
     21  CG        12.9190   15.2630   30.1610 C.3    56  LEU56       0.0019
     22  CD1       14.3640   15.7290   30.1510 C.3    56  LEU56       0.0001
     23  CD2       12.8120   13.8340   30.6780 C.3    56  LEU56       0.0001
     24  N          9.3190   17.5760   31.9930 N.am   57  THR57      -0.1953
     25  CA         8.7060   18.4630   32.9740 C.3    57  THR57       0.1897
     26  C          7.5350   17.7760   33.6680 C.2    57  THR57       0.2313
     27  O          7.4030   17.8700   34.8860 O.2    57  THR57      -0.2863
     28  CB         8.1880   19.7770   32.3720 C.3    57  THR57       0.1794
     29  OG1        9.2670   20.4970   31.7650 O.3    57  THR57      -0.2208
     30  CG2        7.6060   20.6390   33.4910 C.3    57  THR57       0.0378
     31  N         16.7150   22.9100   21.9320 N.3   171  LEU171     -0.1245
     32  CA        16.4840   22.4840   23.3090 C.3   171  LEU171      0.1561
     33  C         17.3030   23.3240   24.2850 C.2   171  LEU171      0.2260
     34  O         16.7850   23.8000   25.2930 O.2   171  LEU171     -0.2867
     35  CB        16.8190   20.9990   23.4820 C.3   171  LEU171      0.0270
     36  CG        15.9160   19.9880   22.7700 C.3   171  LEU171      0.0019
     37  CD1       16.4000   18.5680   23.0290 C.3   171  LEU171      0.0001
     38  CD2       14.4640   20.1490   23.2000 C.3   171  LEU171      0.0001
     39  N         16.0930   27.0020   24.1650 N.3   174  ALA174     -0.1231
     40  CA        14.8400   27.2020   24.8800 C.3   174  ALA174      0.1694
     41  C         15.0740   27.1910   26.3870 C.2   174  ALA174      0.2591
     42  O         14.3880   27.8910   27.1340 O.2   174  ALA174     -0.2718
     43  CB        13.8250   26.1460   24.4900 C.3   174  ALA174      0.0304
     44  N         16.0480   26.4010   26.8290 N.am  175  GLU175     -0.1979
     45  CA        16.3910   26.3510   28.2440 C.3   175  GLU175      0.1602
     46  C         17.0850   27.6410   28.6810 C.2   175  GLU175      0.2287
     47  O         16.7690   28.1890   29.7340 O.2   175  GLU175     -0.2864
     48  CB        17.2740   25.1380   28.5470 C.3   175  GLU175      0.0415
     49  CG        17.7170   25.0350   30.0020 C.3   175  GLU175      0.1163
     50  CD        16.5550   24.8820   30.9710 C.2   175  GLU175      0.3649
     51  OE1       15.4920   24.3710   30.5590 O.co2 175  GLU175     -0.2457
     52  OE2       16.7050   25.2730   32.1480 O.co2 175  GLU175     -0.2457
     53  N         14.4660   30.4500   28.8760 N.3   178  VAL178     -0.1245
     54  CA        13.6790   30.3500   30.1000 C.3   178  VAL178      0.1561
     55  C         14.5190   30.7120   31.3220 C.2   178  VAL178      0.2260
     56  O         14.0660   31.4460   32.2000 O.2   178  VAL178     -0.2867
     57  CB        13.0910   28.9310   30.2710 C.3   178  VAL178      0.0252
     58  CG1       12.5150   28.7460   31.6670 C.3   178  VAL178      0.0019
     59  CG2       12.0330   28.6630   29.2090 C.3   178  VAL178      0.0019
     60  N          7.2330   27.7550   27.7290 N.3   203  GLY203     -0.1210
     61  CA         8.6680   27.5410   27.7260 C.3   203  GLY203      0.1956
     62  C          9.0230   26.2100   27.0920 C.2   203  GLY203      0.2612
     63  O         10.0000   26.0960   26.3520 O.2   203  GLY203     -0.2717
     64  N          8.2100   25.2010   27.3750 N.am  204  THR204     -0.1952
     65  CA         8.4010   23.8910   26.7780 C.3   204  THR204      0.1897
     66  C          7.8910   23.8720   25.3350 C.2   204  THR204      0.2313
     67  O          8.2610   22.9930   24.5590 O.2   204  THR204     -0.2863
     68  CB         7.6970   22.7900   27.6000 C.3   204  THR204      0.1794
     69  OG1        6.2930   23.0650   27.6820 O.3   204  THR204     -0.2208
     70  CG2        8.2770   22.7240   29.0050 C.3   204  THR204      0.0378
@<TRIPOS>BOND
     1    31    32    1
     2    36    37    1
     3    36    38    1
     4    36    35    1
     5    32    35    1
     6    32    33    1
     7     7     6    1
     8     6     8    1
     9     6     5    1
    10    39    40    1
    11     1     2    1
    12    33    34    2
    13    43    40    1
    14    67    66    2
    15     5     2    1
    16    40    41    1
    17    15    14    1
    18    15     9    1
    19    66    65    1
    20     2     3    1
    21    14    13    1
    22    63    62    2
    23    41    44   am
    24    41    42    2
    25     9     3   am
    26     9    10    1
    27     3     4    2
    28    65    64    1
    29    65    68    1
    30    44    45    1
    31    13    10    1
    32    62    64   am
    33    62    61    1
    34    10    11    1
    35    68    69    1
    36    68    70    1
    37    61    60    1
    38    45    48    1
    39    45    46    1
    40    11    12    2
    41    48    49    1
    42    46    47    2
    43    53    54    1
    44    59    57    1
    45    49    50    1
    46    54    57    1
    47    54    55    1
    48    22    21    1
    49    21    23    1
    50    21    20    1
    51    16    17    1
    52    57    58    1
    53    51    50   ar
    54    50    52   ar
    55    20    17    1
    56    55    56    2
    57    17    18    1
    58    29    28    1
    59    24    18   am
    60    24    25    1
    61    28    25    1
    62    28    30    1
    63    18    19    2
    64    25    26    1
    65    26    27    2
