@<TRIPOS>MOLECULE
tmp/5jdqA05.pdb
 108 101 0 0 0
SMALL
GASTEIGER

@<TRIPOS>ATOM
      1  N         -1.6490   25.2660   23.0100 N.3    80  CYS80      -0.1235
      2  CA        -0.6770   26.1910   22.4470 C.3    80  CYS80       0.1677
      3  C         -0.2730   25.8040   21.0210 C.2    80  CYS80       0.2270
      4  O         -0.1440   26.6640   20.1490 O.2    80  CYS80      -0.2867
      5  CB         0.5630   26.2580   23.3440 C.3    80  CYS80       0.0956
      6  SG         1.8010   27.4630   22.8190 S.3    80  CYS80      -0.0801
      7  N         -1.6950   28.8320   18.9540 N.3    84  LEU84      -0.1245
      8  CA        -0.5980   29.7460   18.6650 C.3    84  LEU84       0.1561
      9  C          0.2830   29.2400   17.5270 C.2    84  LEU84       0.2260
     10  O          0.3870   29.8820   16.4820 O.2    84  LEU84      -0.2867
     11  CB         0.2530   29.9730   19.9160 C.3    84  LEU84       0.0270
     12  CG         1.4720   30.8770   19.7210 C.3    84  LEU84       0.0019
     13  CD1        1.0390   32.2840   19.3400 C.3    84  LEU84       0.0001
     14  CD2        2.3470   30.8930   20.9670 C.3    84  LEU84       0.0001
     15  N         -0.0430   30.7010   13.6940 N.3    88  LEU88      -0.1245
     16  CA         0.9580   31.5460   13.0560 C.3    88  LEU88       0.1561
     17  C          1.4350   30.9320   11.7460 C.2    88  LEU88       0.2260
     18  O          1.5810   31.6260   10.7370 O.2    88  LEU88      -0.2867
     19  CB         2.1470   31.7740   13.9940 C.3    88  LEU88       0.0270
     20  CG         1.8530   32.4930   15.3140 C.3    88  LEU88       0.0019
     21  CD1        3.0900   32.5260   16.2060 C.3    88  LEU88       0.0001
     22  CD2        1.3350   33.9030   15.0540 C.3    88  LEU88       0.0001
     23  N         16.8050   30.5330   27.2290 N.3   177  PHE177     -0.1241
     24  CA        15.7600   31.5470   27.1440 C.3   177  PHE177      0.1605
     25  C         14.9530   31.6070   28.4390 C.2   177  PHE177      0.2264
     26  O         14.7790   32.6740   29.0260 O.2   177  PHE177     -0.2867
     27  CB        14.8430   31.2520   25.9530 C.3   177  PHE177      0.0534
     28  CG        13.8090   32.3100   25.6940 C.ar  177  PHE177     -0.0203
     29  CD1       12.5740   32.2620   26.3200 C.ar  177  PHE177     -0.0042
     30  CD2       14.0620   33.3400   24.8080 C.ar  177  PHE177     -0.0042
     31  CE1       11.6170   33.2280   26.0770 C.ar  177  PHE177     -0.0003
     32  CE2       13.1080   34.3110   24.5600 C.ar  177  PHE177     -0.0003
     33  CZ        11.8850   34.2540   25.1970 C.ar  177  PHE177     -0.0000
     34  N          2.4590   29.2900   34.9460 N.3   198  THR198     -0.1203
     35  CA         1.4590   29.5050   33.9100 C.3   198  THR198      0.1994
     36  C          2.1660   29.4800   32.5580 C.2   198  THR198      0.2617
     37  O          1.6000   29.0530   31.5500 O.2   198  THR198     -0.2717
     38  CB         0.7090   30.8410   34.0990 C.3   198  THR198      0.1784
     39  OG1        0.0500   30.8450   35.3720 O.3   198  THR198     -0.2211
     40  CG2       -0.3270   31.0450   32.9990 C.3   198  THR198      0.0376
     41  N          3.4220   29.9220   32.5580 N.am  199  LEU199     -0.1979
     42  CA         4.2410   29.9480   31.3520 C.3   199  LEU199      0.1596
     43  C          5.0090   28.6420   31.1530 C.2   199  LEU199      0.2287
     44  O          5.7900   28.5170   30.2060 O.2   199  LEU199     -0.2864
     45  CB         5.2280   31.1170   31.4020 C.3   199  LEU199      0.0297
     46  CG         4.6740   32.4940   31.7770 C.3   199  LEU199      0.0022
     47  CD1        5.7950   33.5130   31.9440 C.3   199  LEU199      0.0001
     48  CD2        3.6680   32.9750   30.7520 C.3   199  LEU199      0.0001
     49  N          4.0160   25.7420   30.1790 N.3   201  ALA201     -0.1231
     50  CA         3.6610   25.1050   28.9180 C.3   201  ALA201      0.1694
     51  C          4.2730   25.8450   27.7300 C.2   201  ALA201      0.2592
     52  O          4.5980   25.2250   26.7210 O.2   201  ALA201     -0.2718
     53  CB         2.1520   25.0180   28.7690 C.3   201  ALA201      0.0304
     54  N          4.4410   27.1610   27.8480 N.am  202  PHE202     -0.1976
     55  CA         5.0200   27.9400   26.7550 C.3   202  PHE202      0.1639
     56  C          6.5190   27.7150   26.6080 C.2   202  PHE202      0.2290
     57  O          7.0190   27.5390   25.4960 O.2   202  PHE202     -0.2864
     58  CB         4.7660   29.4360   26.9360 C.3   202  PHE202      0.0560
     59  CG         5.4520   30.2790   25.9050 C.ar  202  PHE202     -0.0200
     60  CD1        4.9590   30.3420   24.6140 C.ar  202  PHE202     -0.0042
     61  CD2        6.6060   30.9800   26.2150 C.ar  202  PHE202     -0.0042
     62  CE1        5.5930   31.0960   23.6560 C.ar  202  PHE202     -0.0003
     63  CE2        7.2450   31.7380   25.2570 C.ar  202  PHE202     -0.0003
     64  CZ         6.7370   31.7940   23.9750 C.ar  202  PHE202     -0.0000
     65  N          7.3390   26.0180   18.4700 N.3   209  LEU209     -0.1231
     66  CA         7.0530   27.3200   17.8840 C.3   209  LEU209      0.1693
     67  C          8.0890   27.7020   16.8300 C.2   209  LEU209      0.2591
     68  O          7.7470   27.9710   15.6810 O.2   209  LEU209     -0.2718
     69  CB         6.9910   28.3920   18.9780 C.3   209  LEU209      0.0284
     70  CG         6.6870   29.8190   18.5130 C.3   209  LEU209      0.0019
     71  CD1        5.3150   29.8940   17.8530 C.3   209  LEU209      0.0001
     72  CD2        6.7830   30.8000   19.6720 C.3   209  LEU209      0.0001
     73  N          9.3560   27.7140   17.2250 N.am  210  MET210     -0.1979
     74  CA        10.4270   28.1330   16.3300 C.3   210  MET210      0.1605
     75  C         10.6300   27.1540   15.1780 C.2   210  MET210      0.2287
     76  O         10.8770   27.5680   14.0440 O.2   210  MET210     -0.2864
     77  CB        11.7250   28.3070   17.1150 C.3   210  MET210      0.0413
     78  CG        11.6450   29.3970   18.1720 C.3   210  MET210      0.0598
     79  SD        11.3640   31.0280   17.4450 S.3   210  MET210     -0.1393
     80  CE        12.9570   31.3250   16.6850 C.3   210  MET210      0.0692
     81  N          7.6410   27.5490   12.7280 N.3   213  LEU213     -0.1245
     82  CA         7.8080   28.8080   12.0080 C.3   213  LEU213      0.1561
     83  C          8.8790   28.6780   10.9330 C.2   213  LEU213      0.2260
     84  O          8.7170   29.1820    9.8220 O.2   213  LEU213     -0.2867
     85  CB         8.1670   29.9510   12.9650 C.3   213  LEU213      0.0270
     86  CG         7.0590   30.4890   13.8720 C.3   213  LEU213      0.0019
     87  CD1        7.5970   31.5990   14.7580 C.3   213  LEU213      0.0001
     88  CD2        5.8700   30.9730   13.0570 C.3   213  LEU213      0.0001
     89  N         -7.0790   31.0210   20.8770 N.3   287  TYR287     -0.1241
     90  CA        -5.9510   30.9130   21.7950 C.3   287  TYR287      0.1605
     91  C         -5.8260   32.1400   22.6960 C.2   287  TYR287      0.2264
     92  O         -5.5210   32.0230   23.8840 O.2   287  TYR287     -0.2867
     93  CB        -4.6520   30.7120   21.0170 C.3   287  TYR287      0.0534
     94  CG        -3.4250   30.7010   21.8960 C.ar  287  TYR287     -0.0201
     95  CD1       -3.0840   29.5720   22.6260 C.ar  287  TYR287     -0.0009
     96  CD2       -2.6090   31.8200   21.9970 C.ar  287  TYR287     -0.0009
     97  CE1       -1.9670   29.5560   23.4310 C.ar  287  TYR287      0.0417
     98  CE2       -1.4890   31.8150   22.8000 C.ar  287  TYR287      0.0417
     99  CZ        -1.1740   30.6820   23.5130 C.ar  287  TYR287      0.1957
    100  OH        -0.0580   30.6710   24.3090 O.3   287  TYR287     -0.2866
    101  N         -6.0540   32.1540   26.7740 N.3   291  ILE291     -0.1245
    102  CA        -5.0730   32.6440   27.7370 C.3   291  ILE291      0.1561
    103  C         -5.5720   33.8830   28.4800 C.2   291  ILE291      0.2260
    104  O         -4.9110   34.3710   29.3920 O.2   291  ILE291     -0.2867
    105  CB        -3.7300   32.9690   27.0600 C.3   291  ILE291      0.0252
    106  CG1       -3.9090   34.0700   26.0160 C.3   291  ILE291      0.0019
    107  CG2       -3.1390   31.7170   26.4260 C.3   291  ILE291      0.0019
    108  CD1       -2.6330   34.4300   25.2930 C.3   291  ILE291      0.0001
@<TRIPOS>BOND
     1    84    83    2
     2    18    17    2
     3    83    82    1
     4    17    16    1
     5    82    81    1
     6    82    85    1
     7    85    86    1
     8    16    15    1
     9    16    19    1
    10    88    86    1
    11    86    87    1
    12    19    20    1
    13    76    75    2
    14    22    20    1
    15    75    74    1
    16    20    21    1
    17    68    67    2
    18    74    77    1
    19    74    73    1
    20    10     9    2
    21    80    79    1
    22    67    73   am
    23    67    66    1
    24    77    78    1
    25    79    78    1
    26     9     8    1
    27    71    70    1
    28    66    65    1
    29    66    69    1
    30    70    69    1
    31    70    72    1
    32     8     7    1
    33     8    11    1
    34    13    12    1
    35    12    11    1
    36    12    14    1
    37     4     3    2
    38    89    90    1
    39    93    90    1
    40    93    94    1
    41     3     2    1
    42    90    91    1
    43    94    96   ar
    44    94    95   ar
    45    96    98   ar
    46     2     1    1
    47     2     5    1
    48    95    97   ar
    49    91    92    2
    50    98    99   ar
    51     6     5    1
    52    97    99   ar
    53    99   100    1
    54    62    64   ar
    55    62    60   ar
    56    64    63   ar
    57    32    30   ar
    58    32    33   ar
    59    60    59   ar
    60    30    28   ar
    61    33    31   ar
    62    63    61   ar
    63   108   106    1
    64    57    56    2
    65    28    27    1
    66    28    29   ar
    67    59    61   ar
    68    59    58    1
    69    27    24    1
    70   106   105    1
    71    31    29   ar
    72   107   105    1
    73    56    55    1
    74    52    51    2
    75    55    58    1
    76    55    54    1
    77   101   102    1
    78   105   102    1
    79    24    23    1
    80    24    25    1
    81    51    54   am
    82    51    50    1
    83   102   103    1
    84    25    26    2
    85   103   104    2
    86    53    50    1
    87    50    49    1
    88    44    43    2
    89    48    46    1
    90    43    42    1
    91    42    45    1
    92    42    41    1
    93    45    46    1
    94    37    36    2
    95    46    47    1
    96    36    41   am
    97    36    35    1
    98    40    38    1
    99    35    38    1
   100    35    34    1
   101    38    39    1
