@<TRIPOS>MOLECULE
tmp/5jdtA00.pdb
 116 107 0 0 0
SMALL
GASTEIGER

@<TRIPOS>ATOM
      1  N         33.3220  -31.8580   -4.8820 N.3    81  ASN81      -0.1240
      2  CA        32.4640  -31.7910   -6.0700 C.3    81  ASN81       0.1653
      3  C         32.9420  -32.8830   -7.0200 C.2    81  ASN81       0.2266
      4  O         34.0340  -32.7930   -7.5890 O.2    81  ASN81      -0.2867
      5  CB        32.5260  -30.3910   -6.6850 C.3    81  ASN81       0.1155
      6  CG        31.6420  -30.2530   -7.9100 C.2    81  ASN81       0.2627
      7  OD1       31.2940  -31.2130   -8.5010 O.2    81  ASN81      -0.2716
      8  ND2       31.3430  -29.0110   -8.3070 N.am   81  ASN81      -0.0877
      9  N         32.0140  -33.5610   -9.9920 N.3    83  LYS83      -0.1231
     10  CA        32.2980  -33.2180  -11.3730 C.3    83  LYS83       0.1693
     11  C         33.6790  -32.6150  -11.4720 C.2    83  LYS83       0.2591
     12  O         34.4780  -33.0160  -12.3350 O.2    83  LYS83      -0.2718
     13  CB        31.2160  -32.3030  -11.9170 C.3    83  LYS83       0.0285
     14  CG        29.8390  -32.9730  -11.9370 C.3    83  LYS83       0.0035
     15  CD        28.7500  -32.0420  -12.3990 C.3    83  LYS83       0.0206
     16  CE        27.4070  -32.7390  -12.4380 C.3    83  LYS83       0.1093
     17  NZ        26.5850  -32.1080  -13.4940 N.3    83  LYS83      -0.1314
     18  N         33.9860  -31.7040  -10.5340 N.am   84  LEU84      -0.1980
     19  CA        35.1270  -30.8100  -10.6140 C.3    84  LEU84       0.1596
     20  C         36.4350  -31.4300  -10.1050 C.2    84  LEU84       0.2287
     21  O         37.4870  -31.1280  -10.6490 O.2    84  LEU84      -0.2864
     22  CB        34.7830  -29.5360   -9.8830 C.3    84  LEU84       0.0297
     23  CG        35.7410  -28.4070  -10.1430 C.3    84  LEU84       0.0022
     24  CD1       35.8900  -28.1190  -11.6160 C.3    84  LEU84       0.0001
     25  CD2       35.2900  -27.1710   -9.3970 C.3    84  LEU84       0.0001
     26  N         38.8510  -32.7060  -12.6950 N.3    87  VAL87      -0.1245
     27  CA        39.4790  -31.6510  -13.4710 C.3    87  VAL87       0.1561
     28  C         40.6270  -31.0490  -12.6680 C.2    87  VAL87       0.2260
     29  O         41.7420  -30.9150  -13.1520 O.2    87  VAL87      -0.2867
     30  CB        38.4480  -30.6060  -13.8990 C.3    87  VAL87       0.0252
     31  CG1       39.1260  -29.4960  -14.7160 C.3    87  VAL87       0.0019
     32  CG2       37.2830  -31.2620  -14.6550 C.3    87  VAL87       0.0019
     33  N         41.6830  -22.3890  -11.2500 N.3    99  LEU99      -0.1245
     34  CA        40.4030  -23.0050  -10.9340 C.3    99  LEU99       0.1561
     35  C         39.9120  -22.5670   -9.5530 C.2    99  LEU99       0.2260
     36  O         38.7240  -22.2660   -9.3730 O.2    99  LEU99      -0.2867
     37  CB        40.5290  -24.5370  -11.0370 C.3    99  LEU99       0.0270
     38  CG        39.2540  -25.3310  -11.3250 C.3    99  LEU99       0.0019
     39  CD1       38.7030  -25.0430  -12.6500 C.3    99  LEU99       0.0001
     40  CD2       39.6050  -26.8100  -11.3070 C.3    99  LEU99       0.0001
     41  N         38.3600  -19.1000   -9.8400 N.3   102  MET102     -0.1230
     42  CA        36.9920  -19.1120  -10.3440 C.3   102  MET102      0.1702
     43  C         35.9990  -19.5390   -9.2730 C.2   102  MET102      0.2592
     44  O         34.9240  -18.9510   -9.1490 O.2   102  MET102     -0.2718
     45  CB        36.8510  -20.0440  -11.5530 C.3   102  MET102      0.0401
     46  CG        37.5920  -19.5670  -12.7780 C.3   102  MET102      0.0596
     47  SD        37.1870  -20.5180  -14.2600 S.3   102  MET102     -0.1393
     48  CE        35.5850  -19.8350  -14.6740 C.3   102  MET102      0.0692
     49  N         36.3320  -20.6060   -8.5190 N.am  103  VAL103     -0.1980
     50  CA        35.4090  -21.0850   -7.4850 C.3   103  VAL103      0.1595
     51  C         35.2380  -20.0390   -6.3900 C.2   103  VAL103      0.2287
     52  O         34.1360  -19.8320   -5.8680 O.2   103  VAL103     -0.2864
     53  CB        35.8940  -22.4460   -6.9570 C.3   103  VAL103      0.0276
     54  CG1       35.1590  -22.8570   -5.7150 C.3   103  VAL103      0.0022
     55  CG2       35.7590  -23.5140   -8.0580 C.3   103  VAL103      0.0022
     56  N         32.8560  -17.4070   -7.9550 N.3   106  MET106     -0.1230
     57  CA        31.5290  -17.8420   -8.3980 C.3   106  MET106      0.1702
     58  C         30.7530  -18.6370   -7.3730 C.2   106  MET106      0.2592
     59  O         29.5280  -18.6660   -7.4380 O.2   106  MET106     -0.2718
     60  CB        31.6840  -18.7220   -9.6530 C.3   106  MET106      0.0401
     61  CG        32.2910  -17.9700  -10.7820 C.3   106  MET106      0.0596
     62  SD        32.2590  -18.9630  -12.2810 S.3   106  MET106     -0.1393
     63  CE        33.0300  -17.7570  -13.2980 C.3   106  MET106      0.0692
     64  N         31.4530  -19.3950   -6.5170 N.am  107  GLY107     -0.1957
     65  CA        30.8660  -20.2410   -5.4970 C.3   107  GLY107      0.1869
     66  C         31.2650  -21.6950   -5.6370 C.2   107  GLY107      0.2309
     67  O         31.6370  -22.1630   -6.7300 O.2   107  GLY107     -0.2863
     68  N         26.9250  -23.2090   -9.3870 N.3   111  VAL111     -0.1245
     69  CA        27.3830  -22.4550  -10.5480 C.3   111  VAL111      0.1561
     70  C         26.8310  -23.0780  -11.7960 C.2   111  VAL111      0.2260
     71  O         26.9260  -24.3000  -11.9910 O.2   111  VAL111     -0.2867
     72  CB        28.9080  -22.4510  -10.5690 C.3   111  VAL111      0.0252
     73  CG1       29.4180  -21.6700  -11.7830 C.3   111  VAL111      0.0019
     74  CG2       29.4790  -21.8080   -9.3190 C.3   111  VAL111      0.0019
     75  N         26.4360  -23.6820  -15.9220 N.3   113  GLY113     -0.1210
     76  CA        27.2430  -23.8030  -17.1180 C.3   113  GLY113      0.1956
     77  C         28.6720  -24.2370  -16.8340 C.2   113  GLY113      0.2612
     78  O         28.9980  -24.8050  -15.7890 O.2   113  GLY113     -0.2717
     79  N         29.5150  -24.0470  -17.8510 N.am  114  PHE114     -0.1962
     80  CA        30.9740  -24.3080  -17.7940 C.3   114  PHE114      0.1771
     81  C         31.3680  -25.7850  -17.9000 C.2   114  PHE114      0.2620
     82  O         32.5520  -26.1330  -17.8280 O.2   114  PHE114     -0.2715
     83  CB        31.6790  -23.6410  -16.6230 C.3   114  PHE114      0.0574
     84  CG        31.7130  -22.1440  -16.6510 C.ar  114  PHE114     -0.0200
     85  CD1       32.6970  -21.4620  -17.4090 C.ar  114  PHE114     -0.0042
     86  CD2       30.8100  -21.3800  -15.9260 C.ar  114  PHE114     -0.0042
     87  CE1       32.7860  -20.0880  -17.4150 C.ar  114  PHE114     -0.0003
     88  CE2       30.9080  -20.0020  -15.9190 C.ar  114  PHE114     -0.0003
     89  CZ        31.9030  -19.3390  -16.6440 C.ar  114  PHE114     -0.0000
     90  N         30.3930  -26.6880  -18.1480 N.am  115  THR115     -0.1951
     91  CA        30.7300  -28.0910  -18.3200 C.3   115  THR115      0.1897
     92  C         31.6800  -28.2950  -19.4930 C.2   115  THR115      0.2313
     93  O         32.6300  -29.1030  -19.4250 O.2   115  THR115     -0.2863
     94  CB        29.4410  -28.8850  -18.5350 C.3   115  THR115      0.1794
     95  OG1       28.5740  -28.6560  -17.4190 O.3   115  THR115     -0.2208
     96  CG2       29.7190  -30.3490  -18.7040 C.3   115  THR115      0.0378
     97  N         33.7540  -26.0570  -20.8430 N.3   117  SER117     -0.1202
     98  CA        35.0640  -25.4920  -20.5290 C.3   117  SER117      0.2020
     99  C         35.8790  -26.4680  -19.6730 C.2   117  SER117      0.2619
    100  O         37.0660  -26.6730  -19.9040 O.2   117  SER117     -0.2717
    101  CB        34.9150  -24.1700  -19.7470 C.3   117  SER117      0.2103
    102  OG        34.1000  -23.2000  -20.3860 O.3   117  SER117     -0.2182
    103  N         35.2390  -27.0470  -18.6530 N.am  118  CYS118     -0.1969
    104  CA        35.9000  -28.0360  -17.7980 C.3   118  CYS118      0.1712
    105  C         36.4300  -29.1830  -18.6190 C.2   118  CYS118      0.2296
    106  O         37.5520  -29.6520  -18.4040 O.2   118  CYS118     -0.2864
    107  CB        34.8980  -28.6120  -16.8070 C.3   118  CYS118      0.0983
    108  SG        34.9850  -27.8450  -15.2650 S.3   118  CYS118     -0.0798
    109  N         35.9430  -20.4650  -22.3670 N.3   133  LEU133     -0.1245
    110  CA        35.7210  -19.8090  -21.0880 C.3   133  LEU133      0.1561
    111  C         35.2450  -18.3770  -21.2500 C.2   133  LEU133      0.2260
    112  O         34.5370  -17.8650  -20.3740 O.2   133  LEU133     -0.2867
    113  CB        37.0430  -19.8060  -20.2880 C.3   133  LEU133      0.0270
    114  CG        37.3830  -21.1340  -19.5810 C.3   133  LEU133      0.0019
    115  CD1       38.8560  -21.1740  -19.2260 C.3   133  LEU133      0.0001
    116  CD2       36.5340  -21.3280  -18.3420 C.3   133  LEU133      0.0001
@<TRIPOS>BOND
     1   109   110    1
     2   111   110    1
     3   111   112    2
     4   110   113    1
     5    97    98    1
     6    98   101    1
     7    98    99    1
     8   102   101    1
     9   113   114    1
    10   100    99    2
    11    99   103   am
    12   114   115    1
    13   114   116    1
    14    92    93    2
    15    92    91    1
    16    96    94    1
    17   103   104    1
    18   105   106    2
    19   105   104    1
    20    94    91    1
    21    94    95    1
    22    91    90    1
    23    90    81   am
    24    81    82    2
    25    81    80    1
    26    79    80    1
    27    79    77   am
    28   104   107    1
    29    80    83    1
    30    87    85   ar
    31    87    89   ar
    32    85    84   ar
    33    76    77    1
    34    76    75    1
    35    77    78    2
    36   107   108    1
    37    84    83    1
    38    84    86   ar
    39    89    88   ar
    40    86    88   ar
    41    31    30    1
    42    48    47    1
    43    32    30    1
    44    47    46    1
    45    30    27    1
    46    17    16    1
    47    27    26    1
    48    27    28    1
    49    63    62    1
    50    29    28    2
    51    46    45    1
    52    39    38    1
    53    16    15    1
    54    15    14    1
    55    12    11    2
    56    62    61    1
    57    71    70    2
    58    14    13    1
    59    13    10    1
    60    70    69    1
    61    73    72    1
    62    24    23    1
    63    45    42    1
    64    11    10    1
    65    11    18   am
    66    10     9    1
    67    38    40    1
    68    38    37    1
    69    33    34    1
    70    37    34    1
    71    34    35    1
    72    61    60    1
    73    21    20    2
    74    19    18    1
    75    19    20    1
    76    19    22    1
    77    72    69    1
    78    72    74    1
    79    69    68    1
    80    42    41    1
    81    42    43    1
    82    23    22    1
    83    23    25    1
    84    60    57    1
    85    35    36    2
    86    43    44    2
    87    43    49   am
    88    49    50    1
    89     7     6    2
    90    57    56    1
    91    57    58    1
    92     8     6   am
    93    55    53    1
    94     6     5    1
    95     4     3    2
    96    50    53    1
    97    50    51    1
    98    59    58    2
    99    58    64   am
   100     3     2    1
   101    53    54    1
   102    67    66    2
   103     5     2    1
   104    64    65    1
   105    51    52    2
   106     2     1    1
   107    66    65    1
