@<TRIPOS>MOLECULE
tmp/5je0A01.pdb
 161 157 0 0 0
SMALL
GASTEIGER

@<TRIPOS>ATOM
      1  N         21.7640   49.7530   87.4630 N.3     3  TYR3       -0.1241
      2  CA        20.9810   49.6950   86.2360 C.3     3  TYR3        0.1605
      3  C         19.7230   50.5420   86.3080 C.2     3  TYR3        0.2264
      4  O         19.0310   50.6790   85.2920 O.2     3  TYR3       -0.2867
      5  CB        20.6380   48.2440   85.8840 C.3     3  TYR3        0.0534
      6  CG        21.7530   47.5550   85.1120 C.ar    3  TYR3       -0.0201
      7  CD1       21.6140   47.2550   83.7530 C.ar    3  TYR3       -0.0009
      8  CD2       22.9530   47.2380   85.7340 C.ar    3  TYR3       -0.0009
      9  CE1       22.6530   46.6330   83.0400 C.ar    3  TYR3        0.0417
     10  CE2       23.9860   46.6210   85.0360 C.ar    3  TYR3        0.0417
     11  CZ        23.8290   46.3200   83.6960 C.ar    3  TYR3        0.1957
     12  OH        24.8590   45.7120   83.0130 O.3     3  TYR3       -0.2866
     13  N         19.6890   49.3830   78.0460 N.3    10  PHE10      -0.1241
     14  CA        20.3280   48.0730   77.9880 C.3    10  PHE10       0.1605
     15  C         19.7760   47.2460   76.8340 C.2    10  PHE10       0.2264
     16  O         20.5390   46.5620   76.1380 O.2    10  PHE10      -0.2867
     17  CB        20.1750   47.3250   79.3190 C.3    10  PHE10       0.0534
     18  CG        20.7030   45.9190   79.2710 C.ar   10  PHE10      -0.0203
     19  CD1       22.0770   45.6800   79.2830 C.ar   10  PHE10      -0.0042
     20  CD2       19.8390   44.8380   79.1690 C.ar   10  PHE10      -0.0042
     21  CE1       22.5730   44.3920   79.2130 C.ar   10  PHE10      -0.0003
     22  CE2       20.3280   43.5480   79.1030 C.ar   10  PHE10      -0.0003
     23  CZ        21.7010   43.3240   79.1200 C.ar   10  PHE10      -0.0000
     24  N         21.4300   48.3160   73.7770 N.3    13  PHE13      -0.1241
     25  CA        22.7300   47.6820   73.6320 C.3    13  PHE13       0.1605
     26  C         22.5910   46.2660   73.0880 C.2    13  PHE13       0.2264
     27  O         23.3380   45.8690   72.1850 O.2    13  PHE13      -0.2867
     28  CB        23.4500   47.6940   74.9770 C.3    13  PHE13       0.0534
     29  CG        24.3630   46.5290   75.1960 C.ar   13  PHE13      -0.0203
     30  CD1       25.6150   46.4830   74.5910 C.ar   13  PHE13      -0.0042
     31  CD2       23.9740   45.4810   76.0100 C.ar   13  PHE13      -0.0042
     32  CE1       26.4620   45.4100   74.7910 C.ar   13  PHE13      -0.0003
     33  CE2       24.8200   44.4000   76.2230 C.ar   13  PHE13      -0.0003
     34  CZ        26.0700   44.3650   75.6050 C.ar   13  PHE13      -0.0000
     35  N         28.5210   41.3400   69.8860 N.3    19  GLN19      -0.1231
     36  CA        28.7640   40.1780   70.7290 C.3    19  GLN19       0.1698
     37  C         27.4820   39.4610   71.1200 C.2    19  GLN19       0.2592
     38  O         27.5330   38.2680   71.4460 O.2    19  GLN19      -0.2718
     39  CB        29.5050   40.5800   72.0040 C.3    19  GLN19       0.0381
     40  CG        28.6780   41.4100   72.9670 C.3    19  GLN19       0.0905
     41  CD        29.3740   41.6030   74.2900 C.2    19  GLN19       0.2608
     42  OE1       30.5810   41.8250   74.3230 O.2    19  GLN19      -0.2717
     43  NE2       28.6260   41.5150   75.3900 N.am   19  GLN19      -0.0878
     44  N         26.3400   40.1580   71.0950 N.am   20  ARG20      -0.1980
     45  CA        25.1300   39.6180   71.7040 C.3    20  ARG20       0.1597
     46  C         24.6130   38.4050   70.9390 C.2    20  ARG20       0.2287
     47  O         24.1460   37.4380   71.5520 O.2    20  ARG20      -0.2864
     48  CB        24.0580   40.7000   71.7790 C.3    20  ARG20       0.0334
     49  CG        22.7590   40.2450   72.4790 C.3    20  ARG20       0.0492
     50  CD        22.9790   39.8900   73.9600 C.3    20  ARG20       0.2205
     51  NE        21.6800   39.7610   74.6160 N.pl3  20  ARG20      -0.0865
     52  CZ        21.4710   39.7040   75.9320 C.cat  20  ARG20       0.5346
     53  NH1       22.4790   39.7510   76.7980 N.pl3  20  ARG20       0.1354
     54  NH2       20.2300   39.6020   76.3830 N.pl3  20  ARG20       0.1354
     55  N         26.7050   35.4150   72.1110 N.3    23  GLU23      -0.1245
     56  CA        26.4220   34.9520   73.4610 C.3    23  GLU23       0.1567
     57  C         25.0450   34.3080   73.5520 C.2    23  GLU23       0.2260
     58  O         24.8850   33.2930   74.2370 O.2    23  GLU23      -0.2867
     59  CB        26.5910   36.0950   74.4660 C.3    23  GLU23       0.0388
     60  CG        25.4370   37.0310   74.6870 C.3    23  GLU23       0.1160
     61  CD        25.8290   38.2260   75.5410 C.2    23  GLU23       0.3649
     62  OE1       26.9330   38.7770   75.3190 O.co2  23  GLU23      -0.2457
     63  OE2       25.0380   38.6180   76.4270 O.co2  23  GLU23      -0.2457
     64  N         25.3520   37.0190   83.0640 N.3   108  TRP108     -0.1241
     65  CA        25.9130   38.2550   83.6130 C.3   108  TRP108      0.1605
     66  C         25.4530   38.4930   85.0520 C.2   108  TRP108      0.2264
     67  O         25.0620   39.6000   85.4210 O.2   108  TRP108     -0.2867
     68  CB        25.5930   39.4520   82.7220 C.3   108  TRP108      0.0550
     69  CG        26.0370   39.2210   81.3130 C.ar  108  TRP108      0.0003
     70  CD1       25.2490   39.0870   80.2150 C.ar  108  TRP108      0.0946
     71  CD2       27.3840   39.0650   80.8710 C.ar  108  TRP108      0.0152
     72  NE1       26.0200   38.8720   79.0970 N.ar  108  TRP108     -0.2442
     73  CE2       27.3400   38.8530   79.4710 C.ar  108  TRP108      0.0810
     74  CE3       28.6280   39.0800   81.5250 C.ar  108  TRP108      0.0012
     75  CZ2       28.5050   38.6840   78.7050 C.ar  108  TRP108      0.0191
     76  CZ3       29.7740   38.9020   80.7760 C.ar  108  TRP108      0.0001
     77  CH2       29.7020   38.7000   79.3810 C.ar  108  TRP108      0.0015
     78  N         29.7920   38.2820   87.4930 N.3   111  ASN111     -0.1225
     79  CA        30.6540   39.4470   87.3560 C.3   111  ASN111      0.1785
     80  C         30.1530   40.6560   88.1340 C.2   111  ASN111      0.2597
     81  O         30.8160   41.7000   88.1290 O.2   111  ASN111     -0.2718
     82  CB        30.8640   39.8030   85.8690 C.3   111  ASN111      0.1169
     83  CG        29.5720   40.1340   85.1240 C.2   111  ASN111      0.2627
     84  OD1       28.5460   39.4660   85.2780 O.2   111  ASN111     -0.2716
     85  ND2       29.6430   41.1510   84.2650 N.am  111  ASN111     -0.0877
     86  N         29.0290   40.5480   88.8370 N.am  112  TYR112     -0.1976
     87  CA        28.6210   41.6110   89.7340 C.3   112  TYR112      0.1639
     88  C         28.9080   41.2930   91.1910 C.2   112  TYR112      0.2290
     89  O         28.6850   42.1520   92.0510 O.2   112  TYR112     -0.2864
     90  CB        27.1260   41.9220   89.5250 C.3   112  TYR112      0.0560
     91  CG        26.9510   42.5900   88.2020 C.ar  112  TYR112     -0.0198
     92  CD1       27.1980   43.9490   88.0570 C.ar  112  TYR112     -0.0009
     93  CD2       26.6130   41.8550   87.0640 C.ar  112  TYR112     -0.0009
     94  CE1       27.1040   44.5680   86.8220 C.ar  112  TYR112      0.0417
     95  CE2       26.5210   42.4670   85.8300 C.ar  112  TYR112      0.0417
     96  CZ        26.7770   43.8200   85.7090 C.ar  112  TYR112      0.1957
     97  OH        26.6910   44.4350   84.4710 O.3   112  TYR112     -0.2866
     98  N         32.3200   37.0080   82.8280 N.3   141  VAL141     -0.1245
     99  CA        33.6010   37.5210   82.3390 C.3   141  VAL141      0.1561
    100  C         34.6410   36.4140   82.3300 C.2   141  VAL141      0.2260
    101  O         34.8040   35.6850   83.3110 O.2   141  VAL141     -0.2867
    102  CB        34.0430   38.7080   83.2020 C.3   141  VAL141      0.0252
    103  CG1       35.5040   39.0970   82.8600 C.3   141  VAL141      0.0019
    104  CG2       33.0880   39.8870   83.0200 C.3   141  VAL141      0.0019
    105  N         30.9250   46.5490   74.0740 N.3   157  VAL157     -0.1245
    106  CA        31.2390   46.8470   75.4670 C.3   157  VAL157      0.1561
    107  C         32.5710   47.5810   75.5080 C.2   157  VAL157      0.2260
    108  O         33.6280   46.9730   75.3030 O.2   157  VAL157     -0.2867
    109  CB        31.2790   45.5880   76.3460 C.3   157  VAL157      0.0252
    110  CG1       31.6750   45.9660   77.7590 C.3   157  VAL157      0.0019
    111  CG2       29.9060   44.9210   76.3600 C.3   157  VAL157      0.0019
    112  N         28.2030   50.2850   77.9730 N.3   175  PHE175     -0.1241
    113  CA        27.6170   49.7140   76.7740 C.3   175  PHE175      0.1605
    114  C         27.6340   50.7660   75.6720 C.2   175  PHE175      0.2264
    115  O         27.4690   51.9620   75.9360 O.2   175  PHE175     -0.2867
    116  CB        26.1850   49.2430   77.0420 C.3   175  PHE175      0.0534
    117  CG        26.0760   48.2030   78.1280 C.ar  175  PHE175     -0.0203
    118  CD1       26.5390   46.9110   77.9160 C.ar  175  PHE175     -0.0042
    119  CD2       25.5020   48.5100   79.3480 C.ar  175  PHE175     -0.0042
    120  CE1       26.4170   45.9480   78.8860 C.ar  175  PHE175     -0.0003
    121  CE2       25.3920   47.5520   80.3350 C.ar  175  PHE175     -0.0003
    122  CZ        25.8510   46.2720   80.1100 C.ar  175  PHE175     -0.0000
    123  N         28.5990   51.1430   83.5210 N.3   183  PHE183     -0.1241
    124  CA        28.4310   50.1030   84.5220 C.3   183  PHE183      0.1605
    125  C         29.8090   49.6150   84.9480 C.2   183  PHE183      0.2264
    126  O         30.8220   49.8740   84.2920 O.2   183  PHE183     -0.2867
    127  CB        27.5380   48.9590   84.0140 C.3   183  PHE183      0.0534
    128  CG        28.1560   48.1210   82.9250 C.ar  183  PHE183     -0.0203
    129  CD1       28.5650   46.8210   83.1940 C.ar  183  PHE183     -0.0042
    130  CD2       28.3190   48.6250   81.6400 C.ar  183  PHE183     -0.0042
    131  CE1       29.1220   46.0290   82.2200 C.ar  183  PHE183     -0.0003
    132  CE2       28.8840   47.8410   80.6380 C.ar  183  PHE183     -0.0003
    133  CZ        29.2850   46.5370   80.9270 C.ar  183  PHE183     -0.0000
    134  N         31.9600   46.1610   86.7290 N.3   185  PHE185     -0.1241
    135  CA        31.8850   44.7310   86.9860 C.3   185  PHE185      0.1605
    136  C         33.2360   44.2580   87.4810 C.2   185  PHE185      0.2264
    137  O         34.2190   45.0000   87.4910 O.2   185  PHE185     -0.2867
    138  CB        31.4240   43.9390   85.7340 C.3   185  PHE185      0.0534
    139  CG        32.3560   44.0520   84.5520 C.ar  185  PHE185     -0.0203
    140  CD1       33.4450   43.1960   84.4040 C.ar  185  PHE185     -0.0042
    141  CD2       32.1430   45.0220   83.5810 C.ar  185  PHE185     -0.0042
    142  CE1       34.2880   43.2950   83.3080 C.ar  185  PHE185     -0.0003
    143  CE2       32.9870   45.1270   82.4940 C.ar  185  PHE185     -0.0003
    144  CZ        34.0560   44.2660   82.3530 C.ar  185  PHE185     -0.0000
    145  N         36.2750   38.7560   76.3020 N.3   233  LEU233     -0.1231
    146  CA        35.7570   39.2620   77.5650 C.3   233  LEU233      0.1693
    147  C         34.7730   38.3020   78.2140 C.2   233  LEU233      0.2591
    148  O         34.5380   38.4000   79.4240 O.2   233  LEU233     -0.2718
    149  CB        35.0890   40.6160   77.3350 C.3   233  LEU233      0.0284
    150  CG        34.4630   41.3560   78.5120 C.3   233  LEU233      0.0019
    151  CD1       35.5130   41.5150   79.6490 C.3   233  LEU233      0.0001
    152  CD2       34.0140   42.6930   78.0310 C.3   233  LEU233      0.0001
    153  N         34.2130   37.3670   77.4510 N.am  234  GLN234     -0.1979
    154  CA        33.0860   36.5830   77.9300 C.3   234  GLN234      0.1601
    155  C         33.3710   35.0890   77.8420 C.2   234  GLN234      0.2287
    156  O         34.1930   34.6310   77.0360 O.2   234  GLN234     -0.2864
    157  CB        31.8230   36.9340   77.1440 C.3   234  GLN234      0.0394
    158  CG        31.9220   36.7230   75.6450 C.3   234  GLN234      0.0908
    159  CD        30.6410   37.1050   74.9430 C.2   234  GLN234      0.2608
    160  OE1       30.0620   36.2980   74.2290 O.2   234  GLN234     -0.2717
    161  NE2       30.1710   38.3340   75.1730 N.am  234  GLN234     -0.0878
@<TRIPOS>BOND
     1    35    36    1
     2    36    37    1
     3    36    39    1
     4    46    47    2
     5    46    45    1
     6    44    37   am
     7    44    45    1
     8    37    38    2
     9    45    48    1
    10    48    49    1
    11    39    40    1
    12    55    56    1
    13    27    26    2
    14    49    50    1
    15    40    41    1
    16    26    25    1
    17    56    57    1
    18    56    59    1
    19    57    58    2
    20    25    24    1
    21    25    28    1
    22    50    51    1
    23   105   106    1
    24   160   159    2
    25    41    42    2
    26    41    43   am
    27    59    60    1
    28    30    32   ar
    29    30    29   ar
    30    51    52    2
    31    60    61    1
    32    32    34   ar
    33   159   161   am
    34   159   158    1
    35    28    29    1
    36    29    31   ar
    37   108   107    2
    38    62    61   ar
    39   106   107    1
    40   106   109    1
    41    61    63   ar
    42    34    33   ar
    43   158   157    1
    44   114   115    2
    45   114   113    1
    46    52    54    1
    47    52    53    1
    48    31    33   ar
    49    16    15    2
    50   145   146    1
    51   109   111    1
    52   109   110    1
    53   113   116    1
    54   113   112    1
    55    15    14    1
    56   156   155    2
    57   116   117    1
    58   157   154    1
    59   149   146    1
    60   149   150    1
    61   153   154    1
    62   153   147   am
    63   146   147    1
    64   155   154    1
    65   118   117   ar
    66   118   120   ar
    67    14    13    1
    68    14    17    1
    69   152   150    1
    70   117   119   ar
    71   147   148    2
    72   150   151    1
    73    75    77   ar
    74    75    73   ar
    75   120   122   ar
    76    72    73   ar
    77    72    70   ar
    78    22    23   ar
    79    22    20   ar
    80    23    21   ar
    81    20    18   ar
    82    21    19   ar
    83    18    19   ar
    84    18    17    1
    85   119   121   ar
    86    77    76   ar
    87    73    71   ar
    88   122   121   ar
    89    70    69   ar
    90   132   133   ar
    91   132   130   ar
    92    76    74   ar
    93    71    69   ar
    94    71    74   ar
    95   133   131   ar
    96    69    68    1
    97   130   128   ar
    98   131   129   ar
    99   100    99    1
   100   100   101    2
   101    99    98    1
   102    99   102    1
   103   144   143   ar
   104   144   142   ar
   105   143   141   ar
   106    68    65    1
   107   103   102    1
   108   128   129   ar
   109   128   127    1
   110    12    11    1
   111   104   102    1
   112     9    11   ar
   113     9     7   ar
   114    64    65    1
   115   142   140   ar
   116   123   124    1
   117   141   139   ar
   118    65    66    1
   119    11    10   ar
   120     7     6   ar
   121   127   124    1
   122    85    83   am
   123   126   125    2
   124   140   139   ar
   125    97    96    1
   126   124   125    1
   127   139   138    1
   128    10     8   ar
   129    66    67    2
   130     6     8   ar
   131     6     5    1
   132    83    84    2
   133    83    82    1
   134     4     3    2
   135    96    95   ar
   136    96    94   ar
   137   138   135    1
   138    95    93   ar
   139    82    79    1
   140     5     2    1
   141     2     3    1
   142     2     1    1
   143   134   135    1
   144    94    92   ar
   145   135   136    1
   146    93    91   ar
   147    79    78    1
   148    79    80    1
   149   136   137    2
   150    92    91   ar
   151    81    80    2
   152    80    86   am
   153    91    90    1
   154    86    87    1
   155    90    87    1
   156    87    88    1
   157    88    89    2
