@<TRIPOS>MOLECULE
tmp/5je1A00.pdb
 201 198 0 0 0
SMALL
GASTEIGER

@<TRIPOS>ATOM
      1  N         47.3020   22.3670   32.4110 N.3     6  TYR6       -0.1241
      2  CA        48.4160   21.5190   32.8110 C.3     6  TYR6        0.1605
      3  C         48.9210   20.6160   31.6960 C.2     6  TYR6        0.2264
      4  O         49.9250   19.9340   31.8980 O.2     6  TYR6       -0.2867
      5  CB        48.0320   20.6740   34.0130 C.3     6  TYR6        0.0534
      6  CG        48.2490   21.4120   35.3060 C.ar    6  TYR6       -0.0201
      7  CD1       49.2580   21.0340   36.1850 C.ar    6  TYR6       -0.0009
      8  CD2       47.4590   22.5100   35.6380 C.ar    6  TYR6       -0.0009
      9  CE1       49.4540   21.7200   37.3780 C.ar    6  TYR6        0.0417
     10  CE2       47.6540   23.2000   36.8220 C.ar    6  TYR6        0.0417
     11  CZ        48.6470   22.8030   37.6810 C.ar    6  TYR6        0.1957
     12  OH        48.8120   23.4780   38.8630 O.3     6  TYR6       -0.2866
     13  N         55.2360   19.5600   37.0410 N.3    13  PHE13      -0.1241
     14  CA        54.5880   19.6550   38.3390 C.3    13  PHE13       0.1605
     15  C         55.2640   18.7310   39.3430 C.2    13  PHE13       0.2264
     16  O         55.4760   19.1110   40.5000 O.2    13  PHE13      -0.2867
     17  CB        53.0970   19.3460   38.2500 C.3    13  PHE13       0.0534
     18  CG        52.4130   19.4530   39.5760 C.ar   13  PHE13      -0.0203
     19  CD1       52.2950   20.6960   40.1990 C.ar   13  PHE13      -0.0042
     20  CD2       51.9490   18.3220   40.2330 C.ar   13  PHE13      -0.0042
     21  CE1       51.7020   20.8020   41.4300 C.ar   13  PHE13      -0.0003
     22  CE2       51.3510   18.4200   41.4790 C.ar   13  PHE13      -0.0003
     23  CZ        51.2220   19.6640   42.0760 C.ar   13  PHE13      -0.0000
     24  N         55.7530   22.1530   49.8390 N.3    23  ARG23      -0.1245
     25  CA        55.0910   20.8820   49.5530 C.3    23  ARG23       0.1563
     26  C         55.0110   19.9960   50.7930 C.2    23  ARG23       0.2260
     27  O         53.9620   19.4010   51.0680 O.2    23  ARG23      -0.2867
     28  CB        55.8050   20.1530   48.4140 C.3    23  ARG23       0.0307
     29  CG        55.1460   18.8310   47.9990 C.3    23  ARG23       0.0489
     30  CD        53.7120   19.0350   47.4600 C.3    23  ARG23       0.2205
     31  NE        53.1890   17.8060   46.8680 N.pl3  23  ARG23      -0.0865
     32  CZ        52.0140   17.6930   46.2460 C.cat  23  ARG23       0.5346
     33  NH1       51.2110   18.7420   46.1170 N.pl3  23  ARG23       0.1354
     34  NH2       51.6440   16.5220   45.7370 N.pl3  23  ARG23       0.1354
     35  N         39.7740   11.0900   44.4350 N.3    44  ASP44      -0.1225
     36  CA        40.8060   12.1280   44.4450 C.3    44  ASP44       0.1805
     37  C         40.5540   13.0580   43.2540 C.2    44  ASP44       0.2598
     38  O         40.7720   12.6680   42.1040 O.2    44  ASP44      -0.2718
     39  CB        42.1840   11.4660   44.3860 C.3    44  ASP44       0.1424
     40  CG        43.3470   12.4220   44.6650 C.2    44  ASP44       0.3668
     41  OD1       43.1930   13.4110   45.4260 O.co2  44  ASP44      -0.2456
     42  OD2       44.4580   12.1340   44.1480 O.co2  44  ASP44      -0.2456
     43  N         40.0840   14.2770   43.5240 N.am   45  LEU45      -0.1966
     44  CA        39.7320   15.2420   42.4880 C.3    45  LEU45       0.1728
     45  C         40.8920   16.1960   42.2260 C.2    45  LEU45       0.2616
     46  O         41.6190   16.5720   43.1480 O.2    45  LEU45      -0.2715
     47  CB        38.4970   16.0480   42.8940 C.3    45  LEU45       0.0311
     48  CG        37.2720   15.1790   43.1570 C.3    45  LEU45       0.0022
     49  CD1       36.1110   16.0210   43.6570 C.3    45  LEU45       0.0001
     50  CD2       36.9180   14.4420   41.8720 C.3    45  LEU45       0.0001
     51  N         41.0350   16.6180   40.9650 N.am   46  ALA46      -0.1963
     52  CA        42.2310   17.3460   40.5200 C.3    46  ALA46       0.1728
     53  C         43.4960   16.5690   40.9040 C.2    46  ALA46       0.2616
     54  O         44.4040   17.0900   41.5530 O.2    46  ALA46      -0.2715
     55  CB        42.2630   18.7680   41.1050 C.3    46  ALA46       0.0334
     56  N         43.5570   15.3010   40.4830 N.am   47  CYS47      -0.1954
     57  CA        44.5270   14.3640   41.0400 C.3    47  CYS47       0.1843
     58  C         45.9400   14.5410   40.4930 C.2    47  CYS47       0.2626
     59  O         46.8750   14.0050   41.1000 O.2    47  CYS47      -0.2714
     60  CB        44.0790   12.9200   40.7990 C.3    47  CYS47       0.0997
     61  SG        43.9180   12.4700   39.0500 S.3    47  CYS47      -0.0797
     62  N         46.1240   15.2880   39.4020 N.am   48  GLY48      -0.1940
     63  CA        47.4620   15.4610   38.8410 C.3    48  GLY48       0.2014
     64  C         48.0060   14.1130   38.4020 C.2    48  GLY48       0.2638
     65  O         47.2900   13.3030   37.8020 O.2    48  GLY48      -0.2714
     66  N         49.2720   13.8330   38.7340 N.am   49  PHE49      -0.1973
     67  CA        49.7850   12.5010   38.4390 C.3    49  PHE49       0.1639
     68  C         49.3320   11.4630   39.4630 C.2    49  PHE49       0.2290
     69  O         49.7490   10.3050   39.3750 O.2    49  PHE49      -0.2864
     70  CB        51.3220   12.5050   38.3090 C.3    49  PHE49       0.0560
     71  CG        52.0490   12.9920   39.5300 C.ar   49  PHE49      -0.0200
     72  CD1       52.4550   12.0970   40.5250 C.ar   49  PHE49      -0.0042
     73  CD2       52.3660   14.3380   39.6690 C.ar   49  PHE49      -0.0042
     74  CE1       53.1460   12.5350   41.6410 C.ar   49  PHE49      -0.0003
     75  CE2       53.0560   14.7880   40.7910 C.ar   49  PHE49      -0.0003
     76  CZ        53.4360   13.8870   41.7830 C.ar   49  PHE49      -0.0000
     77  N         49.3350   11.7500   43.0790 N.3    51  PHE51      -0.1227
     78  CA        50.0970   11.6230   44.3220 C.3    51  PHE51       0.1736
     79  C         49.2260   11.2120   45.5100 C.2    51  PHE51       0.2595
     80  O         49.4970   10.2180   46.2010 O.2    51  PHE51      -0.2718
     81  CB        50.8080   12.9360   44.6540 C.3    51  PHE51       0.0547
     82  CG        51.5550   12.8710   45.9570 C.ar   51  PHE51      -0.0202
     83  CD1       52.8130   12.2840   46.0130 C.ar   51  PHE51      -0.0042
     84  CD2       50.9730   13.3320   47.1410 C.ar   51  PHE51      -0.0042
     85  CE1       53.4960   12.1810   47.2230 C.ar   51  PHE51      -0.0003
     86  CE2       51.6420   13.2320   48.3420 C.ar   51  PHE51      -0.0003
     87  CZ        52.9100   12.6590   48.3860 C.ar   51  PHE51      -0.0000
     88  N         48.2000   11.9960   45.7980 N.am   52  PHE52      -0.1976
     89  CA        47.4770   11.7750   47.0380 C.3    52  PHE52       0.1639
     90  C         46.6800   10.4790   46.9870 C.2    52  PHE52       0.2290
     91  O         46.7280    9.6780   47.9270 O.2    52  PHE52      -0.2864
     92  CB        46.6000   12.9890   47.3610 C.3    52  PHE52       0.0560
     93  CG        47.4050   14.1440   47.8930 C.ar   52  PHE52      -0.0200
     94  CD1       47.9160   14.1020   49.1800 C.ar   52  PHE52      -0.0042
     95  CD2       47.7150   15.2270   47.0860 C.ar   52  PHE52      -0.0042
     96  CE1       48.6930   15.1400   49.6730 C.ar   52  PHE52      -0.0003
     97  CE2       48.4890   16.2740   47.5730 C.ar   52  PHE52      -0.0003
     98  CZ        48.9770   16.2250   48.8720 C.ar   52  PHE52      -0.0000
     99  N         40.8510   14.2190   36.7500 N.3    68  ASP68      -0.1225
    100  CA        41.5770   15.4330   36.4030 C.3    68  ASP68       0.1805
    101  C         41.0870   15.8990   35.0400 C.2    68  ASP68       0.2598
    102  O         40.7430   15.0810   34.1870 O.2    68  ASP68      -0.2718
    103  CB        43.0970   15.2000   36.3700 C.3    68  ASP68       0.1424
    104  CG        43.9100   16.4980   36.5140 C.2    68  ASP68       0.3668
    105  OD1       44.0440   17.2750   35.5280 O.co2  68  ASP68      -0.2456
    106  OD2       44.4360   16.7330   37.6200 O.co2  68  ASP68      -0.2456
    107  N         41.0840   17.2200   34.8400 N.am   69  ILE69      -0.1966
    108  CA        40.6700   17.7960   33.5680 C.3    69  ILE69       0.1727
    109  C         41.7310   17.6210   32.4840 C.2    69  ILE69       0.2616
    110  O         41.4020   17.6740   31.2920 O.2    69  ILE69      -0.2715
    111  CB        40.3250   19.2840   33.7740 C.3    69  ILE69       0.0290
    112  CG1       39.5480   19.8490   32.5850 C.3    69  ILE69       0.0022
    113  CG2       41.5980   20.1250   33.9910 C.3    69  ILE69       0.0023
    114  CD1       39.0170   21.2590   32.8400 C.3    69  ILE69       0.0001
    115  N         42.9990   17.4060   32.8570 N.am   70  SER70      -0.1950
    116  CA        44.1090   17.4010   31.9040 C.3    70  SER70       0.1924
    117  C         44.3890   15.9920   31.3880 C.2    70  SER70       0.2314
    118  O         44.7800   15.1080   32.1620 O.2    70  SER70      -0.2863
    119  CB        45.3690   17.9660   32.5550 C.3    70  SER70       0.2116
    120  OG        46.4810   17.7450   31.7080 O.3    70  SER70      -0.2180
    121  N         47.9520   15.0920   32.3230 N.3    73  MET73      -0.1245
    122  CA        48.1800   14.6550   33.6970 C.3    73  MET73       0.1570
    123  C         47.5980   13.2660   33.9320 C.2    73  MET73       0.2261
    124  O         48.1850   12.4610   34.6550 O.2    73  MET73      -0.2867
    125  CB        47.5940   15.6670   34.6800 C.3    73  MET73       0.0387
    126  CG        48.1400   17.0760   34.4980 C.3    73  MET73       0.0595
    127  SD        49.9210   17.2660   34.8060 S.3    73  MET73      -0.1393
    128  CE        50.0130   16.9250   36.5650 C.3    73  MET73       0.0692
    129  N         37.8520   14.4940   33.4900 N.3    93  ARG93      -0.1231
    130  CA        36.5930   15.1960   33.6910 C.3    93  ARG93       0.1694
    131  C         36.8790   16.6180   34.1370 C.2    93  ARG93       0.2592
    132  O         37.8860   16.8760   34.8040 O.2    93  ARG93      -0.2718
    133  CB        35.7320   14.5250   34.7610 C.3    93  ARG93       0.0321
    134  CG        35.4290   13.0710   34.5330 C.3    93  ARG93       0.0489
    135  CD        34.2810   12.9150   33.5660 C.3    93  ARG93       0.2205
    136  NE        33.7770   11.5520   33.5890 N.pl3  93  ARG93      -0.0865
    137  CZ        34.2870   10.5660   32.8620 C.cat  93  ARG93       0.5346
    138  NH1       35.3210   10.8090   32.0640 N.pl3  93  ARG93       0.1354
    139  NH2       33.7670    9.3450   32.9380 N.pl3  93  ARG93       0.1354
    140  N         35.9770   17.5350   33.7840 N.am   94  ASP94      -0.1960
    141  CA        35.9270   18.8510   34.4150 C.3    94  ASP94       0.1840
    142  C         35.0000   18.7340   35.6200 C.2    94  ASP94       0.2621
    143  O         33.8190   18.4150   35.4600 O.2    94  ASP94      -0.2715
    144  CB        35.4480   19.9280   33.4350 C.3    94  ASP94       0.1450
    145  CG        35.3460   21.3270   34.0750 C.2    94  ASP94       0.3671
    146  OD1       35.6480   21.5160   35.2820 O.co2  94  ASP94      -0.2456
    147  OD2       34.9630   22.2610   33.3570 O.co2  94  ASP94      -0.2456
    148  N         35.5390   18.9580   36.8250 N.am   95  VAL95      -0.1977
    149  CA        34.7550   18.6550   38.0230 C.3    95  VAL95       0.1596
    150  C         33.5400   19.5650   38.1260 C.2    95  VAL95       0.2287
    151  O         32.4910   19.1530   38.6320 O.2    95  VAL95      -0.2864
    152  CB        35.6350   18.7170   39.2870 C.3    95  VAL95       0.0276
    153  CG1       34.7800   18.6410   40.5430 C.3    95  VAL95       0.0022
    154  CG2       36.6170   17.5470   39.2830 C.3    95  VAL95       0.0022
    155  N         42.8340   18.2490   46.6530 N.3   110  ALA110     -0.1231
    156  CA        43.9920   19.1080   46.8670 C.3   110  ALA110      0.1694
    157  C         44.2200   19.9420   45.6090 C.2   110  ALA110      0.2592
    158  O         44.5620   19.4020   44.5500 O.2   110  ALA110     -0.2718
    159  CB        45.2220   18.2700   47.2070 C.3   110  ALA110      0.0304
    160  N         44.0360   21.2570   45.7290 N.am  111  TRP111     -0.1962
    161  CA        44.2510   22.2030   44.6290 C.3   111  TRP111      0.1771
    162  C         43.2420   22.0070   43.4990 C.2   111  TRP111      0.2619
    163  O         43.5940   22.0090   42.3110 O.2   111  TRP111     -0.2715
    164  CB        45.6830   22.1370   44.1030 C.3   111  TRP111      0.0590
    165  CG        46.6890   22.3930   45.1770 C.ar  111  TRP111      0.0006
    166  CD1       47.5800   21.4980   45.6890 C.ar  111  TRP111      0.0946
    167  CD2       46.8870   23.6160   45.9000 C.ar  111  TRP111      0.0152
    168  NE1       48.3310   22.0880   46.6660 N.ar  111  TRP111     -0.2442
    169  CE2       47.9300   23.3900   46.8150 C.ar  111  TRP111      0.0810
    170  CE3       46.2950   24.8880   45.8470 C.ar  111  TRP111      0.0012
    171  CZ2       48.4010   24.3890   47.6800 C.ar  111  TRP111      0.0191
    172  CZ3       46.7600   25.8770   46.7160 C.ar  111  TRP111      0.0001
    173  CH2       47.8020   25.6230   47.6100 C.ar  111  TRP111      0.0015
    174  N         41.9730   21.8540   43.8740 N.am  112  LEU112     -0.1977
    175  CA        40.8620   21.8440   42.9290 C.3   112  LEU112      0.1596
    176  C         40.1240   23.1790   42.8850 C.2   112  LEU112      0.2287
    177  O         39.9360   23.7540   41.8110 O.2   112  LEU112     -0.2864
    178  CB        39.8670   20.7380   43.3030 C.3   112  LEU112      0.0297
    179  CG        38.5370   20.8380   42.5540 C.3   112  LEU112      0.0022
    180  CD1       38.7860   20.5880   41.0810 C.3   112  LEU112      0.0001
    181  CD2       37.4840   19.8800   43.1310 C.3   112  LEU112      0.0001
    182  N         40.8640   26.5110   41.0760 N.3   115  TYR115     -0.1241
    183  CA        40.7800   26.5360   39.6270 C.3   115  TYR115      0.1605
    184  C         39.3500   26.7100   39.1210 C.2   115  TYR115      0.2264
    185  O         39.1360   26.7470   37.9040 O.2   115  TYR115     -0.2867
    186  CB        41.4280   25.2720   39.0400 C.3   115  TYR115      0.0534
    187  CG        42.9350   25.2420   39.2770 C.ar  115  TYR115     -0.0201
    188  CD1       43.7870   26.1240   38.6180 C.ar  115  TYR115     -0.0009
    189  CD2       43.4990   24.3510   40.1820 C.ar  115  TYR115     -0.0009
    190  CE1       45.1690   26.1010   38.8450 C.ar  115  TYR115      0.0417
    191  CE2       44.8750   24.3240   40.4250 C.ar  115  TYR115      0.0417
    192  CZ        45.7060   25.1930   39.7570 C.ar  115  TYR115      0.1957
    193  OH        47.0670   25.1350   40.0040 O.3   115  TYR115     -0.2866
    194  N         31.1260   22.8170   41.7960 N.3   125  MET125     -0.1245
    195  CA        32.0750   21.8220   42.2810 C.3   125  MET125      0.1570
    196  C         31.6580   21.2710   43.6390 C.2   125  MET125      0.2261
    197  O         31.6630   20.0500   43.8490 O.2   125  MET125     -0.2867
    198  CB        33.4860   22.4230   42.3650 C.3   125  MET125      0.0387
    199  CG        34.1210   22.7270   41.0130 C.3   125  MET125      0.0595
    200  SD        35.8080   23.3180   41.2960 S.3   125  MET125     -0.1393
    201  CE        36.3970   23.6640   39.6300 C.3   125  MET125      0.0692
@<TRIPOS>BOND
     1   110   109    2
     2   117   116    1
     3   117   118    2
     4     3     4    2
     5     3     2    1
     6   120   119    1
     7   116   119    1
     8   116   115    1
     9   138   137    1
    10   121   122    1
    11     1     2    1
    12   109   115   am
    13   109   108    1
    14   112   114    1
    15   112   111    1
    16     2     5    1
    17   137   139    1
    18   137   136    2
    19   147   145   ar
    20   144   145    1
    21   144   141    1
    22   129   130    1
    23   135   136    1
    24   135   134    1
    25   108   111    1
    26   108   107    1
    27   130   131    1
    28   130   133    1
    29   122   123    1
    30   122   125    1
    31   111   113    1
    32   140   131   am
    33   140   141    1
    34   123   124    2
    35     5     6    1
    36   145   146   ar
    37   131   132    2
    38   102   101    2
    39   141   142    1
    40   126   125    1
    41   126   127    1
    42   134   133    1
    43   127   128    1
    44   107   101   am
    45   101   100    1
    46     6     8   ar
    47     6     7   ar
    48   143   142    2
    49   105   104   ar
    50   142   148   am
    51     8    10   ar
    52     7     9   ar
    53   103   100    1
    54   103   104    1
    55   100    99    1
    56   104   106   ar
    57    10    11   ar
    58   148   149    1
    59    13    14    1
    60     9    11   ar
    61    11    12    1
    62    65    64    2
    63   185   184    2
    64   149   150    1
    65   149   152    1
    66   150   151    2
    67    17    14    1
    68    17    18    1
    69    70    67    1
    70    70    71    1
    71    14    15    1
    72    64    66   am
    73    64    63    1
    74    67    66    1
    75    67    68    1
    76   188   190   ar
    77   188   187   ar
    78    63    62    1
    79   190   192   ar
    80   186   187    1
    81   186   183    1
    82    61    60    1
    83   184   183    1
    84   187   189   ar
    85   154   152    1
    86   152   153    1
    87    15    16    2
    88    69    68    2
    89    62    58   am
    90    71    73   ar
    91    71    72   ar
    92    18    19   ar
    93    18    20   ar
    94   183   182    1
    95   201   200    1
    96    73    75   ar
    97   192   193    1
    98   192   191   ar
    99   189   191   ar
   100    19    21   ar
   101    20    22   ar
   102    56    53   am
   103    56    57    1
   104    58    57    1
   105    58    59    2
   106    52    53    1
   107    52    51    1
   108    52    55    1
   109    72    74   ar
   110    75    76   ar
   111    60    57    1
   112    53    54    2
   113    51    45   am
   114   199   200    1
   115   199   198    1
   116   180   179    1
   117    21    23   ar
   118    22    23   ar
   119    74    76   ar
   120   194   195    1
   121   177   176    2
   122    50    48    1
   123    38    37    2
   124    45    44    1
   125    45    46    2
   126   195   198    1
   127   195   196    1
   128   163   162    2
   129    44    47    1
   130    44    43    1
   131   179   181    1
   132   179   178    1
   133   176   175    1
   134    47    48    1
   135   175   178    1
   136   175   174    1
   137    77    78    1
   138    48    49    1
   139    37    43   am
   140    37    36    1
   141   162   174   am
   142   162   161    1
   143   196   197    2
   144   164   161    1
   145   164   165    1
   146    42    40   ar
   147    78    81    1
   148    78    79    1
   149    39    36    1
   150    39    40    1
   151    35    36    1
   152   158   157    2
   153   161   160    1
   154    81    82    1
   155    40    41   ar
   156   165   166   ar
   157   165   167   ar
   158    79    88   am
   159    79    80    2
   160   157   160   am
   161   157   156    1
   162   166   168   ar
   163    34    32    1
   164    88    89    1
   165   170   167   ar
   166   170   172   ar
   167   167   169   ar
   168    82    83   ar
   169    82    84   ar
   170    83    85   ar
   171    33    32    1
   172    32    31    2
   173   155   156    1
   174   168   169   ar
   175   172   173   ar
   176   169   171   ar
   177   156   159    1
   178    31    30    1
   179    90    89    1
   180    90    91    2
   181    89    92    1
   182    95    97   ar
   183    95    93   ar
   184    84    86   ar
   185    85    87   ar
   186    92    93    1
   187    30    29    1
   188    97    98   ar
   189   173   171   ar
   190    93    94   ar
   191    29    28    1
   192    86    87   ar
   193    28    25    1
   194    98    96   ar
   195    94    96   ar
   196    25    24    1
   197    25    26    1
   198    26    27    2
