@<TRIPOS>MOLECULE
tmp/5je1A01.pdb
 161 157 0 0 0
SMALL
GASTEIGER

@<TRIPOS>ATOM
      1  N         47.3020   22.3670   32.4110 N.3     6  TYR6       -0.1241
      2  CA        48.4160   21.5190   32.8110 C.3     6  TYR6        0.1605
      3  C         48.9210   20.6160   31.6960 C.2     6  TYR6        0.2264
      4  O         49.9250   19.9340   31.8980 O.2     6  TYR6       -0.2867
      5  CB        48.0320   20.6740   34.0130 C.3     6  TYR6        0.0534
      6  CG        48.2490   21.4120   35.3060 C.ar    6  TYR6       -0.0201
      7  CD1       49.2580   21.0340   36.1850 C.ar    6  TYR6       -0.0009
      8  CD2       47.4590   22.5100   35.6380 C.ar    6  TYR6       -0.0009
      9  CE1       49.4540   21.7200   37.3780 C.ar    6  TYR6        0.0417
     10  CE2       47.6540   23.2000   36.8220 C.ar    6  TYR6        0.0417
     11  CZ        48.6470   22.8030   37.6810 C.ar    6  TYR6        0.1957
     12  OH        48.8120   23.4780   38.8630 O.3     6  TYR6       -0.2866
     13  N         55.2360   19.5600   37.0410 N.3    13  PHE13      -0.1241
     14  CA        54.5880   19.6550   38.3390 C.3    13  PHE13       0.1605
     15  C         55.2640   18.7310   39.3430 C.2    13  PHE13       0.2264
     16  O         55.4760   19.1110   40.5000 O.2    13  PHE13      -0.2867
     17  CB        53.0970   19.3460   38.2500 C.3    13  PHE13       0.0534
     18  CG        52.4130   19.4530   39.5760 C.ar   13  PHE13      -0.0203
     19  CD1       52.2950   20.6960   40.1990 C.ar   13  PHE13      -0.0042
     20  CD2       51.9490   18.3220   40.2330 C.ar   13  PHE13      -0.0042
     21  CE1       51.7020   20.8020   41.4300 C.ar   13  PHE13      -0.0003
     22  CE2       51.3510   18.4200   41.4790 C.ar   13  PHE13      -0.0003
     23  CZ        51.2220   19.6640   42.0760 C.ar   13  PHE13      -0.0000
     24  N         58.2810   20.3200   40.6110 N.3    16  PHE16      -0.1241
     25  CA        57.9450   21.2870   41.6430 C.3    16  PHE16       0.1605
     26  C         57.7130   20.6100   42.9890 C.2    16  PHE16       0.2264
     27  O         58.1570   21.1180   44.0250 O.2    16  PHE16      -0.2867
     28  CB        56.7140   22.0900   41.2210 C.3    16  PHE16       0.0534
     29  CG        55.9140   22.6210   42.3650 C.ar   16  PHE16      -0.0203
     30  CD1       56.2750   23.8100   42.9880 C.ar   16  PHE16      -0.0042
     31  CD2       54.7880   21.9450   42.8090 C.ar   16  PHE16      -0.0042
     32  CE1       55.5250   24.3150   44.0430 C.ar   16  PHE16      -0.0003
     33  CE2       54.0390   22.4320   43.8670 C.ar   16  PHE16      -0.0003
     34  CZ        54.4130   23.6220   44.4960 C.ar   16  PHE16      -0.0000
     35  N         57.1880   24.4830   50.3310 N.3    22  GLN22      -0.1231
     36  CA        55.8290   24.3980   50.8600 C.3    22  GLN22       0.1698
     37  C         55.2140   23.0050   50.7180 C.2    22  GLN22       0.2592
     38  O         54.2290   22.7060   51.4060 O.2    22  GLN22      -0.2718
     39  CB        54.9220   25.4100   50.1620 C.3    22  GLN22       0.0381
     40  CG        54.5870   25.0310   48.7330 C.3    22  GLN22       0.0905
     41  CD        53.5090   25.9130   48.1260 C.2    22  GLN22       0.2608
     42  OE1       53.6580   27.1370   48.0560 O.2    22  GLN22      -0.2717
     43  NE2       52.4110   25.2970   47.6960 N.am   22  GLN22      -0.0878
     44  N         55.7530   22.1530   49.8390 N.am   23  ARG23      -0.1980
     45  CA        55.0910   20.8820   49.5530 C.3    23  ARG23       0.1597
     46  C         55.0110   19.9960   50.7930 C.2    23  ARG23       0.2287
     47  O         53.9620   19.4010   51.0680 O.2    23  ARG23      -0.2864
     48  CB        55.8050   20.1530   48.4140 C.3    23  ARG23       0.0334
     49  CG        55.1460   18.8310   47.9990 C.3    23  ARG23       0.0492
     50  CD        53.7120   19.0350   47.4600 C.3    23  ARG23       0.2205
     51  NE        53.1890   17.8060   46.8680 N.pl3  23  ARG23      -0.0865
     52  CZ        52.0140   17.6930   46.2460 C.cat  23  ARG23       0.5346
     53  NH1       51.2110   18.7420   46.1170 N.pl3  23  ARG23       0.1354
     54  NH2       51.6440   16.5220   45.7370 N.pl3  23  ARG23       0.1354
     55  N         52.1080   21.0760   52.8740 N.3    26  GLU26      -0.1245
     56  CA        50.8420   20.6440   52.2710 C.3    26  GLU26       0.1567
     57  C         50.5620   19.1770   52.5720 C.2    26  GLU26       0.2260
     58  O         49.4640   18.8100   53.0180 O.2    26  GLU26      -0.2867
     59  CB        50.8690   20.8250   50.7470 C.3    26  GLU26       0.0388
     60  CG        51.2500   22.1680   50.2080 C.3    26  GLU26       0.1160
     61  CD        51.5090   22.1210   48.7070 C.2    26  GLU26       0.3649
     62  OE1       50.8730   21.2960   47.9960 O.co2  26  GLU26      -0.2457
     63  OE2       52.3710   22.9000   48.2490 O.co2  26  GLU26      -0.2457
     64  N         44.0360   21.2570   45.7290 N.3   111  TRP111     -0.1241
     65  CA        44.2510   22.2030   44.6290 C.3   111  TRP111      0.1605
     66  C         43.2420   22.0070   43.4990 C.2   111  TRP111      0.2264
     67  O         43.5940   22.0090   42.3110 O.2   111  TRP111     -0.2867
     68  CB        45.6830   22.1370   44.1030 C.3   111  TRP111      0.0550
     69  CG        46.6890   22.3930   45.1770 C.ar  111  TRP111      0.0003
     70  CD1       47.5800   21.4980   45.6890 C.ar  111  TRP111      0.0946
     71  CD2       46.8870   23.6160   45.9000 C.ar  111  TRP111      0.0152
     72  NE1       48.3310   22.0880   46.6660 N.ar  111  TRP111     -0.2442
     73  CE2       47.9300   23.3900   46.8150 C.ar  111  TRP111      0.0810
     74  CE3       46.2950   24.8880   45.8470 C.ar  111  TRP111      0.0012
     75  CZ2       48.4010   24.3890   47.6800 C.ar  111  TRP111      0.0191
     76  CZ3       46.7600   25.8770   46.7160 C.ar  111  TRP111      0.0001
     77  CH2       47.8020   25.6230   47.6100 C.ar  111  TRP111      0.0015
     78  N         40.5850   26.2710   43.7660 N.3   114  ASN114     -0.1225
     79  CA        41.2360   27.4860   43.2890 C.3   114  ASN114      0.1785
     80  C         41.3340   27.5430   41.7710 C.2   114  ASN114      0.2597
     81  O         41.8420   28.5350   41.2260 O.2   114  ASN114     -0.2718
     82  CB        42.6310   27.5860   43.9060 C.3   114  ASN114      0.1169
     83  CG        43.4460   26.3310   43.6660 C.2   114  ASN114      0.2627
     84  OD1       43.0940   25.2470   44.1440 O.2   114  ASN114     -0.2716
     85  ND2       44.5330   26.4640   42.9140 N.am  114  ASN114     -0.0877
     86  N         40.8640   26.5110   41.0760 N.am  115  TYR115     -0.1976
     87  CA        40.7800   26.5360   39.6270 C.3   115  TYR115      0.1639
     88  C         39.3500   26.7100   39.1210 C.2   115  TYR115      0.2290
     89  O         39.1360   26.7470   37.9040 O.2   115  TYR115     -0.2864
     90  CB        41.4280   25.2720   39.0400 C.3   115  TYR115      0.0560
     91  CG        42.9350   25.2420   39.2770 C.ar  115  TYR115     -0.0198
     92  CD1       43.7870   26.1240   38.6180 C.ar  115  TYR115     -0.0009
     93  CD2       43.4990   24.3510   40.1820 C.ar  115  TYR115     -0.0009
     94  CE1       45.1690   26.1010   38.8450 C.ar  115  TYR115      0.0417
     95  CE2       44.8750   24.3240   40.4250 C.ar  115  TYR115      0.0417
     96  CZ        45.7060   25.1930   39.7570 C.ar  115  TYR115      0.1957
     97  OH        47.0670   25.1350   40.0040 O.3   115  TYR115     -0.2866
     98  N         43.5570   27.8710   48.0640 N.3   144  VAL144     -0.1245
     99  CA        44.1450   29.1800   48.3030 C.3   144  VAL144      0.1561
    100  C         43.4530   29.8130   49.5020 C.2   144  VAL144      0.2260
    101  O         42.2240   29.7730   49.6190 O.2   144  VAL144     -0.2867
    102  CB        44.0130   30.0410   47.0330 C.3   144  VAL144      0.0252
    103  CG1       44.3730   31.5050   47.2880 C.3   144  VAL144      0.0019
    104  CG2       44.8860   29.4650   45.9080 C.3   144  VAL144      0.0019
    105  N         56.1850   28.9060   44.7400 N.3   160  VAL160     -0.1245
    106  CA        55.1430   29.4470   43.8580 C.3   160  VAL160      0.1561
    107  C         55.3620   30.9470   43.6900 C.2   160  VAL160      0.2260
    108  O         55.1160   31.7280   44.6190 O.2   160  VAL160     -0.2867
    109  CB        53.7310   29.1600   44.3710 C.3   160  VAL160      0.0252
    110  CG1       52.6950   29.6280   43.3380 C.3   160  VAL160      0.0019
    111  CG2       53.5580   27.6630   44.6500 C.3   160  VAL160      0.0019
    112  N         55.1660   27.8980   38.9030 N.3   178  PHE178     -0.1241
    113  CA        55.9180   27.0530   39.8210 C.3   178  PHE178      0.1605
    114  C         57.4040   27.2620   39.5800 C.2   178  PHE178      0.2264
    115  O         57.8510   27.3770   38.4290 O.2   178  PHE178     -0.2867
    116  CB        55.5700   25.5730   39.6200 C.3   178  PHE178      0.0534
    117  CG        54.1340   25.2380   39.8890 C.ar  178  PHE178     -0.0203
    118  CD1       53.5950   25.3890   41.1570 C.ar  178  PHE178     -0.0042
    119  CD2       53.3340   24.7200   38.8820 C.ar  178  PHE178     -0.0042
    120  CE1       52.2730   25.0610   41.4080 C.ar  178  PHE178     -0.0003
    121  CE2       52.0160   24.3860   39.1230 C.ar  178  PHE178     -0.0003
    122  CZ        51.4790   24.5560   40.3760 C.ar  178  PHE178     -0.0000
    123  N         50.8660   29.2270   35.2850 N.3   186  PHE186     -0.1241
    124  CA        49.4800   28.8380   35.5010 C.3   186  PHE186      0.1605
    125  C         48.7720   30.0330   36.1150 C.2   186  PHE186      0.2264
    126  O         49.4020   31.0160   36.5100 O.2   186  PHE186     -0.2867
    127  CB        49.3550   27.5850   36.3920 C.3   186  PHE186      0.0534
    128  CG        49.7680   27.7940   37.8440 C.ar  186  PHE186     -0.0203
    129  CD1       48.8100   27.8760   38.8400 C.ar  186  PHE186     -0.0042
    130  CD2       51.1040   27.8810   38.2040 C.ar  186  PHE186     -0.0042
    131  CE1       49.1630   28.0450   40.1710 C.ar  186  PHE186     -0.0003
    132  CE2       51.4780   28.0620   39.5570 C.ar  186  PHE186     -0.0003
    133  CZ        50.5010   28.1480   40.5330 C.ar  186  PHE186     -0.0000
    134  N         45.3110   31.0510   38.8200 N.3   188  PHE188     -0.1241
    135  CA        44.4030   30.5210   39.8260 C.3   188  PHE188      0.1605
    136  C         43.5290   31.6510   40.3430 C.2   188  PHE188      0.2264
    137  O         43.7810   32.8310   40.0760 O.2   188  PHE188     -0.2867
    138  CB        45.1570   29.8260   40.9690 C.3   188  PHE188      0.0534
    139  CG        46.0290   30.7490   41.8110 C.ar  188  PHE188     -0.0203
    140  CD1       45.5190   31.3680   42.9550 C.ar  188  PHE188     -0.0042
    141  CD2       47.3680   30.9480   41.4910 C.ar  188  PHE188     -0.0042
    142  CE1       46.3290   32.1990   43.7550 C.ar  188  PHE188     -0.0003
    143  CE2       48.1820   31.7790   42.2660 C.ar  188  PHE188     -0.0003
    144  CZ        47.6620   32.4040   43.4130 C.ar  188  PHE188     -0.0000
    145  N         49.5690   31.5790   51.4980 N.3   236  LEU236     -0.1231
    146  CA        48.8540   31.3660   50.2540 C.3   236  LEU236      0.1693
    147  C         47.8750   30.2000   50.3440 C.2   236  LEU236      0.2591
    148  O         46.9140   30.1540   49.5710 O.2   236  LEU236     -0.2718
    149  CB        49.8680   31.1260   49.1240 C.3   236  LEU236      0.0284
    150  CG        49.3580   31.0080   47.6860 C.3   236  LEU236      0.0019
    151  CD1       48.4280   32.1660   47.3540 C.3   236  LEU236      0.0001
    152  CD2       50.5110   30.9460   46.6880 C.3   236  LEU236      0.0001
    153  N         48.0750   29.2720   51.2740 N.am  237  GLN237     -0.1979
    154  CA        47.3510   28.0120   51.2490 C.3   237  GLN237      0.1601
    155  C         46.5880   27.7900   52.5510 C.2   237  GLN237      0.2287
    156  O         46.9310   28.3410   53.6000 O.2   237  GLN237     -0.2864
    157  CB        48.3130   26.8500   50.9820 C.3   237  GLN237      0.0394
    158  CG        49.5030   26.8270   51.9330 C.3   237  GLN237      0.0908
    159  CD        50.4100   25.6370   51.7100 C.2   237  GLN237      0.2608
    160  OE1       50.4860   24.7350   52.5530 O.2   237  GLN237     -0.2717
    161  NE2       51.0880   25.6120   50.5630 N.am  237  GLN237     -0.0878
@<TRIPOS>BOND
     1     3     4    2
     2     3     2    1
     3     1     2    1
     4     2     5    1
     5     5     6    1
     6   123   124    1
     7     6     8   ar
     8     6     7   ar
     9   124   125    1
    10   124   127    1
    11     8    10   ar
    12   125   126    2
    13     7     9   ar
    14   127   128    1
    15    10    11   ar
    16    13    14    1
    17     9    11   ar
    18    11    12    1
    19   128   130   ar
    20   128   129   ar
    21    89    88    2
    22   130   132   ar
    23    17    14    1
    24    17    18    1
    25    14    15    1
    26   115   114    2
    27    92    94   ar
    28    92    91   ar
    29   134   135    1
    30   129   131   ar
    31    94    96   ar
    32   119   121   ar
    33   119   117   ar
    34   112   113    1
    35    90    91    1
    36    90    87    1
    37    88    87    1
    38   121   122   ar
    39    91    93   ar
    40    15    16    2
    41   132   133   ar
    42    18    19   ar
    43    18    20   ar
    44   114   113    1
    45   116   113    1
    46   116   117    1
    47    87    86    1
    48    96    97    1
    49    96    95   ar
    50   135   136    1
    51   135   138    1
    52   117   118   ar
    53   137   136    2
    54   131   133   ar
    55    93    95   ar
    56    19    21   ar
    57    20    22   ar
    58   122   120   ar
    59    24    25    1
    60   138   139    1
    61    86    80   am
    62   118   120   ar
    63    28    25    1
    64    28    29    1
    65    81    80    2
    66    21    23   ar
    67    22    23   ar
    68   141   139   ar
    69   141   143   ar
    70    25    26    1
    71    80    79    1
    72   139   140   ar
    73   143   144   ar
    74    67    66    2
    75    29    31   ar
    76    29    30   ar
    77    31    33   ar
    78    85    83   am
    79   140   142   ar
    80    30    32   ar
    81    26    27    2
    82    79    78    1
    83    79    82    1
    84   110   109    1
    85   144   142   ar
    86    66    65    1
    87    83    82    1
    88    83    84    2
    89   107   106    1
    90   107   108    2
    91   106   109    1
    92   106   105    1
    93    33    34   ar
    94    32    34   ar
    95    68    65    1
    96    68    69    1
    97   109   111    1
    98    65    64    1
    99    69    70   ar
   100    69    71   ar
   101    70    72   ar
   102    54    52    1
   103    74    71   ar
   104    74    76   ar
   105    71    73   ar
   106   104   102    1
   107    53    52    1
   108    52    51    2
   109    72    73   ar
   110   152   150    1
   111    76    77   ar
   112    73    75   ar
   113    51    50    1
   114   102   103    1
   115   102    99    1
   116   151   150    1
   117    50    49    1
   118    77    75   ar
   119   150   149    1
   120    43    41   am
   121    62    61   ar
   122    49    48    1
   123    42    41    2
   124    98    99    1
   125    41    40    1
   126    63    61   ar
   127    99   100    1
   128    48    45    1
   129    61    60    1
   130    40    39    1
   131   149   146    1
   132   100   101    2
   133    45    44    1
   134    45    46    1
   135   148   147    2
   136    44    37   am
   137    39    36    1
   138    60    59    1
   139   146   147    1
   140   146   145    1
   141    35    36    1
   142   147   153   am
   143   161   159   am
   144    37    36    1
   145    37    38    2
   146    59    56    1
   147    46    47    2
   148   157   154    1
   149   157   158    1
   150   154   153    1
   151   154   155    1
   152   159   158    1
   153   159   160    2
   154    56    57    1
   155    56    55    1
   156   155   156    2
   157    57    58    2
