@<TRIPOS>MOLECULE
tmp/5je8A01.pdb
 138 129 0 0 0
SMALL
GASTEIGER

@<TRIPOS>ATOM
      1  N         26.6780   50.9370   20.3550 N.3    12  MET12      -0.1245
      2  CA        25.4840   51.3000   19.5530 C.3    12  MET12       0.1570
      3  C         25.2900   52.8160   19.4230 C.2    12  MET12       0.2261
      4  O         25.0670   53.3280   18.3420 O.2    12  MET12      -0.2867
      5  CB        24.2160   50.6780   20.1390 C.3    12  MET12       0.0387
      6  CG        24.2880   49.1710   20.2230 C.3    12  MET12       0.0595
      7  SD        24.3000   48.3620   18.6060 S.3    12  MET12      -0.1393
      8  CE        22.5340   48.5500   18.2280 C.3    12  MET12       0.0692
      9  N         16.3960   47.9700   20.1270 N.3   121  VAL121     -0.1231
     10  CA        16.8400   47.7730   18.7510 C.3   121  VAL121      0.1692
     11  C         17.4730   46.4240   18.5440 C.2   121  VAL121      0.2593
     12  O         17.8870   45.7870   19.4900 O.2   121  VAL121     -0.2718
     13  CB        17.7870   48.8910   18.3100 C.3   121  VAL121      0.0266
     14  CG1       16.9920   50.2310   18.2080 C.3   121  VAL121      0.0020
     15  CG2       19.0080   48.9950   19.2800 C.3   121  VAL121      0.0020
     16  N         17.4760   45.9830   17.2930 N.am  122  SER122     -0.1938
     17  CA        18.0370   44.6970   16.8760 C.3   122  SER122      0.2055
     18  C         18.8430   44.8960   15.6220 C.2   122  SER122      0.2644
     19  O         18.5300   45.7680   14.8190 O.2   122  SER122     -0.2714
     20  CB        16.9380   43.7080   16.5770 C.3   122  SER122      0.2130
     21  OG        16.2620   43.3870   17.7560 O.3   122  SER122     -0.2179
     22  N         19.8980   44.1180   15.4560 N.am  123  GLY123     -0.1939
     23  CA        20.7630   44.2790   14.2930 C.3   123  GLY123      0.2014
     24  C         22.2340   44.5760   14.6020 C.2   123  GLY123      0.2639
     25  O         23.0620   44.5340   13.6960 O.2   123  GLY123     -0.2714
     26  N         22.5510   44.8900   15.8610 N.am  124  GLY124     -0.1939
     27  CA        23.9240   44.9760   16.3070 C.3   124  GLY124      0.2014
     28  C         24.5730   46.2580   15.8540 C.2   124  GLY124      0.2639
     29  O         23.9110   47.1680   15.3490 O.2   124  GLY124     -0.2714
     30  N         25.8800   46.3090   16.0190 N.am  125  VAL125     -0.1963
     31  CA        26.6660   47.4680   15.6920 C.3   125  VAL125      0.1727
     32  C         26.6660   47.6140   14.1810 C.2   125  VAL125      0.2616
     33  O         26.6420   48.7440   13.6750 O.2   125  VAL125     -0.2715
     34  CB        28.1500   47.3390   16.2110 C.3   125  VAL125      0.0290
     35  CG1       29.0290   48.3980   15.6370 C.3   125  VAL125      0.0023
     36  CG2       28.2100   47.3750   17.7560 C.3   125  VAL125      0.0023
     37  N         26.6820   46.4730   13.4650 N.am  126  ILE126     -0.1977
     38  CA        26.6650   46.5060   12.0020 C.3   126  ILE126      0.1596
     39  C         25.3720   47.2000   11.5020 C.2   126  ILE126      0.2287
     40  O         25.4110   48.0480   10.6000 O.2   126  ILE126     -0.2864
     41  CB        26.8440   45.0750   11.3690 C.3   126  ILE126      0.0276
     42  CG1       27.2910   45.1700    9.9180 C.3   126  ILE126      0.0022
     43  CG2       25.5370   44.2020   11.4760 C.3   126  ILE126      0.0022
     44  CD1       27.6050   43.7570    9.2530 C.3   126  ILE126      0.0001
     45  N         11.5280   41.8090   21.2700 N.3   172  LYS172     -0.1245
     46  CA        12.9840   41.7460   21.2420 C.3   172  LYS172      0.1561
     47  C         13.5280   40.5370   22.0090 C.2   172  LYS172      0.2260
     48  O         14.3080   39.7910   21.4820 O.2   172  LYS172     -0.2867
     49  CB        13.5970   43.0410   21.7990 C.3   172  LYS172      0.0271
     50  CG        15.1270   42.9500   22.1050 C.3   172  LYS172      0.0035
     51  CD        15.8850   43.2180   20.8890 C.3   172  LYS172      0.0206
     52  CE        17.3640   42.8780   20.9990 C.3   172  LYS172      0.1093
     53  NZ        18.0780   43.8140   21.8800 N.3   172  LYS172     -0.1314
     54  N         12.8320   37.4930   20.0910 N.3   175  ASN175     -0.1225
     55  CA        13.7350   37.4650   18.9730 C.3   175  ASN175      0.1785
     56  C         15.0660   36.8810   19.3820 C.2   175  ASN175      0.2597
     57  O         15.6180   36.0240   18.6880 O.2   175  ASN175     -0.2718
     58  CB        13.9580   38.8780   18.3980 C.3   175  ASN175      0.1169
     59  CG        14.6980   38.8570   17.0720 C.2   175  ASN175      0.2627
     60  OD1       14.2190   38.2910   16.0970 O.2   175  ASN175     -0.2716
     61  ND2       15.8640   39.4770   17.0200 N.am  175  ASN175     -0.0877
     62  N         15.6210   37.3910   20.4780 N.am  176  ASN176     -0.1974
     63  CA        16.9420   36.9510   20.9460 C.3   176  ASN176      0.1688
     64  C         16.9630   35.5600   21.5830 C.2   176  ASN176      0.2292
     65  O         17.9800   34.8570   21.5240 O.2   176  ASN176     -0.2864
     66  CB        17.5980   38.0310   21.8120 C.3   176  ASN176      0.1181
     67  CG        18.0640   39.2160   20.9590 C.2   176  ASN176      0.2629
     68  OD1       17.3610   39.6160   20.0180 O.2   176  ASN176     -0.2716
     69  ND2       19.2440   39.7390   21.2290 N.am  176  ASN176     -0.0877
     70  N         17.2720   33.4490   18.6380 N.3   179  ILE179     -0.1245
     71  CA        18.6570   33.5130   18.1720 C.3   179  ILE179      0.1561
     72  C         19.5160   32.5530   18.9960 C.2   179  ILE179      0.2260
     73  O         20.3190   31.8410   18.4500 O.2   179  ILE179     -0.2867
     74  CB        19.2130   34.9290   18.1790 C.3   179  ILE179      0.0252
     75  CG1       18.5330   35.7380   17.0740 C.3   179  ILE179      0.0019
     76  CG2       20.7510   34.9230   17.9660 C.3   179  ILE179      0.0019
     77  CD1       18.7710   37.2890   17.2130 C.3   179  ILE179      0.0001
     78  N         20.1100   33.0160   10.9120 N.3   216  ILE216     -0.1245
     79  CA        21.2340   32.9080   11.8130 C.3   216  ILE216      0.1561
     80  C         22.2250   31.9040   11.2730 C.2   216  ILE216      0.2260
     81  O         23.3900   32.1450   11.3470 O.2   216  ILE216     -0.2867
     82  CB        20.8040   32.5840   13.2730 C.3   216  ILE216      0.0252
     83  CG1       20.3040   33.8480   13.9400 C.3   216  ILE216      0.0019
     84  CG2       21.9870   31.9300   14.1110 C.3   216  ILE216      0.0019
     85  CD1       21.3760   34.9340   14.1640 C.3   216  ILE216      0.0001
     86  N         24.0430   33.7880    8.5560 N.3   219  ARG219     -0.1245
     87  CA        24.9390   34.7130    9.2590 C.3   219  ARG219      0.1563
     88  C         26.1650   33.9940    9.8480 C.2   219  ARG219      0.2260
     89  O         27.3240   34.2640    9.4470 O.2   219  ARG219     -0.2867
     90  CB        24.1950   35.4590   10.3810 C.3   219  ARG219      0.0307
     91  CG        25.0690   36.4720   11.1780 C.3   219  ARG219      0.0489
     92  CD        24.4540   36.8470   12.5170 C.3   219  ARG219      0.2205
     93  NE        25.3200   37.7410   13.2770 N.pl3 219  ARG219     -0.0865
     94  CZ        26.3340   37.3510   14.0450 C.cat 219  ARG219      0.5346
     95  NH1       26.6620   36.0650   14.1660 N.pl3 219  ARG219      0.1354
     96  NH2       27.0530   38.2510   14.7050 N.pl3 219  ARG219      0.1354
     97  N         31.2510   34.1630    9.5660 N.3   224  PHE224     -0.1241
     98  CA        32.1400   33.8820   10.6770 C.3   224  PHE224      0.1605
     99  C         32.7950   32.5200   10.5690 C.2   224  PHE224      0.2264
    100  O         34.0400   32.4320   10.5240 O.2   224  PHE224     -0.2867
    101  CB        31.4220   34.0060   12.0280 C.3   224  PHE224      0.0534
    102  CG        30.8810   35.3690   12.2980 C.ar  224  PHE224     -0.0203
    103  CD1       29.6590   35.7440   11.8030 C.ar  224  PHE224     -0.0042
    104  CD2       31.6060   36.2860   13.0240 C.ar  224  PHE224     -0.0042
    105  CE1       29.1700   37.0110   12.0540 C.ar  224  PHE224     -0.0003
    106  CE2       31.1210   37.5670   13.2640 C.ar  224  PHE224     -0.0003
    107  CZ        29.9270   37.9190   12.7810 C.ar  224  PHE224     -0.0000
    108  N         31.0900   41.9780   15.5690 N.3   233  GLY233     -0.1210
    109  CA        29.9060   41.1340   15.6730 C.3   233  GLY233      0.1956
    110  C         29.1230   41.3110   16.9650 C.2   233  GLY233      0.2611
    111  O         29.1200   42.4000   17.5350 O.2   233  GLY233     -0.2717
    112  N         28.4320   40.2490   17.4000 N.am  234  PHE234     -0.1976
    113  CA        27.5370   40.2730   18.5700 C.3   234  PHE234      0.1639
    114  C         27.9490   39.2000   19.5660 C.2   234  PHE234      0.2290
    115  O         27.8600   38.0010   19.2780 O.2   234  PHE234     -0.2864
    116  CB        26.0920   40.0640   18.1260 C.3   234  PHE234      0.0560
    117  CG        25.0870   40.1100   19.2410 C.ar  234  PHE234     -0.0200
    118  CD1       24.7110   41.3210   19.8140 C.ar  234  PHE234     -0.0042
    119  CD2       24.4800   38.9410   19.6960 C.ar  234  PHE234     -0.0042
    120  CE1       23.7680   41.3690   20.8390 C.ar  234  PHE234     -0.0003
    121  CE2       23.5190   38.9790   20.7240 C.ar  234  PHE234     -0.0003
    122  CZ        23.1700   40.1980   21.2960 C.ar  234  PHE234     -0.0000
    123  N         20.9560   38.8220   27.1570 N.3   242  ASP242     -0.1239
    124  CA        19.5790   38.8260   26.6350 C.3   242  ASP242      0.1674
    125  C         18.8200   37.5610   27.0320 C.2   242  ASP242      0.2266
    126  O         17.6590   37.6350   27.3970 O.2   242  ASP242     -0.2867
    127  CB        19.5360   38.9480   25.1070 C.3   242  ASP242      0.1410
    128  CG        19.8550   40.3510   24.5990 C.2   242  ASP242      0.3668
    129  OD1       19.5810   41.3490   25.3010 O.co2 242  ASP242     -0.2456
    130  OD2       20.4050   40.4340   23.4700 O.co2 242  ASP242     -0.2456
    131  N         28.9410   35.4260   18.8820 N.3   280  MET280     -0.1245
    132  CA        28.1370   34.2830   19.3090 C.3   280  MET280      0.1570
    133  C         28.3700   33.0450   18.4390 C.2   280  MET280      0.2261
    134  O         28.2310   31.9070   18.9220 O.2   280  MET280     -0.2867
    135  CB        26.6420   34.6200   19.3350 C.3   280  MET280      0.0387
    136  CG        26.0160   34.9530   17.9610 C.3   280  MET280      0.0595
    137  SD        24.2440   35.2460   18.1250 S.3   280  MET280     -0.1393
    138  CE        23.8820   35.9820   16.5160 C.3   280  MET280      0.0692
@<TRIPOS>BOND
     1    86    87    1
     2    44    42    1
     3    87    88    1
     4    87    90    1
     5    89    88    2
     6    97    98    1
     7    42    41    1
     8    90    91    1
     9   100    99    2
    10    99    98    1
    11    40    39    2
    12    98   101    1
    13    78    79    1
    14    91    92    1
    15    80    81    2
    16    80    79    1
    17    41    43    1
    18    41    38    1
    19    39    38    1
    20   103   105   ar
    21   103   102   ar
    22    79    82    1
    23    38    37    1
    24   101   102    1
    25   105   107   ar
    26   102   104   ar
    27    92    93    1
    28   107   106   ar
    29   104   106   ar
    30    82    83    1
    31    82    84    1
    32    93    94    2
    33    37    32   am
    34    33    32    2
    35    25    24    2
    36    83    85    1
    37    94    95    1
    38    94    96    1
    39    32    31    1
    40    23    24    1
    41    23    22    1
    42    24    26   am
    43    19    18    2
    44    29    28    2
    45    22    18   am
    46   108   109    1
    47    18    17    1
    48    35    34    1
    49   109   110    1
    50    31    30    1
    51    31    34    1
    52    28    30   am
    53    28    27    1
    54    26    27    1
    55    60    59    2
    56    34    36    1
    57   138   137    1
    58    20    17    1
    59    20    21    1
    60    17    16    1
    61   110   112   am
    62   110   111    2
    63    61    59   am
    64    59    58    1
    65    75    77    1
    66    75    74    1
    67    16    11   am
    68   112   113    1
    69   136   137    1
    70   136   135    1
    71    76    74    1
    72   116   113    1
    73   116   117    1
    74    71    74    1
    75    71    70    1
    76    71    72    1
    77    14    13    1
    78     8     7    1
    79    13    10    1
    80    13    15    1
    81     4     3    2
    82    58    55    1
    83   133   134    2
    84   133   132    1
    85    73    72    2
    86    11    10    1
    87    11    12    2
    88   113   114    1
    89     7     6    1
    90    57    56    2
    91    10     9    1
    92   131   132    1
    93    55    56    1
    94    55    54    1
    95   117   119   ar
    96   117   118   ar
    97   115   114    2
    98   132   135    1
    99    56    62   am
   100     3     2    1
   101     2     5    1
   102     2     1    1
   103   119   121   ar
   104   118   120   ar
   105    68    67    2
   106     5     6    1
   107    62    63    1
   108   121   122   ar
   109   120   122   ar
   110    51    52    1
   111    51    50    1
   112    63    64    1
   113    63    66    1
   114    67    69   am
   115    67    66    1
   116    52    53    1
   117    46    45    1
   118    46    49    1
   119    46    47    1
   120    48    47    2
   121    65    64    2
   122    49    50    1
   123   130   128   ar
   124   128   127    1
   125   128   129   ar
   126   127   124    1
   127   124   125    1
   128   124   123    1
   129   125   126    2
