@<TRIPOS>MOLECULE
tmp/5jeaA00.pdb
 92 87 0 0 0
SMALL
GASTEIGER

@<TRIPOS>ATOM
      1  N         43.6790  -14.8590   -0.7210 N.3    29  PHE29      -0.1227
      2  CA        42.4580  -14.8780   -1.5210 C.3    29  PHE29       0.1736
      3  C         42.2820  -13.5970   -2.3320 C.2    29  PHE29       0.2595
      4  O         41.6870  -13.6170   -3.4100 O.2    29  PHE29      -0.2718
      5  CB        41.2310  -15.1040   -0.6300 C.3    29  PHE29       0.0547
      6  CG        41.0920  -16.5180   -0.1280 C.ar   29  PHE29      -0.0202
      7  CD1       42.0490  -17.4760   -0.4270 C.ar   29  PHE29      -0.0042
      8  CD2       39.9900  -16.8930    0.6260 C.ar   29  PHE29      -0.0042
      9  CE1       41.9200  -18.7750    0.0290 C.ar   29  PHE29      -0.0003
     10  CE2       39.8530  -18.1930    1.0850 C.ar   29  PHE29      -0.0003
     11  CZ        40.8190  -19.1340    0.7860 C.ar   29  PHE29      -0.0000
     12  N         42.8130  -12.4910   -1.8220 N.am   30  ASP30      -0.1974
     13  CA        42.6230  -11.1920   -2.4630 C.3    30  ASP30       0.1709
     14  C         43.8670  -10.7320   -3.2150 C.2    30  ASP30       0.2293
     15  O         44.0070   -9.5520   -3.5350 O.2    30  ASP30      -0.2864
     16  CB        42.2260  -10.1400   -1.4240 C.3    30  ASP30       0.1436
     17  CG        43.2870   -9.9400   -0.3560 C.2    30  ASP30       0.3671
     18  OD1       44.1160  -10.8530   -0.1540 O.co2  30  ASP30      -0.2456
     19  OD2       43.2920   -8.8680    0.2840 O.co2  30  ASP30      -0.2456
     20  N         36.8550  -12.3770  -10.1550 N.3   197  PHE197     -0.1241
     21  CA        36.6390  -13.0940   -8.9060 C.3   197  PHE197      0.1605
     22  C         36.0330  -14.4710   -9.1700 C.2   197  PHE197      0.2264
     23  O         35.0940  -14.6090   -9.9550 O.2   197  PHE197     -0.2867
     24  CB        35.7220  -12.2880   -7.9790 C.3   197  PHE197      0.0534
     25  CG        36.3030  -10.9770   -7.5430 C.ar  197  PHE197     -0.0203
     26  CD1       36.3270   -9.8910   -8.4060 C.ar  197  PHE197     -0.0042
     27  CD2       36.8260  -10.8280   -6.2700 C.ar  197  PHE197     -0.0042
     28  CE1       36.8660   -8.6880   -8.0070 C.ar  197  PHE197     -0.0003
     29  CE2       37.3610   -9.6260   -5.8660 C.ar  197  PHE197     -0.0003
     30  CZ        37.3860   -8.5580   -6.7360 C.ar  197  PHE197     -0.0000
     31  N         30.2050  -19.0270    1.1620 N.3   216  GLU216     -0.1245
     32  CA        30.7290  -18.9240   -0.1990 C.3   216  GLU216      0.1567
     33  C         32.0990  -18.2470   -0.2340 C.2   216  GLU216      0.2260
     34  O         32.2570  -17.1130    0.2160 O.2   216  GLU216     -0.2867
     35  CB        29.7520  -18.1640   -1.1000 C.3   216  GLU216      0.0388
     36  CG        28.5340  -18.9690   -1.5320 C.3   216  GLU216      0.1160
     37  CD        27.3270  -18.7250   -0.6490 C.2   216  GLU216      0.3649
     38  OE1       27.3020  -17.6890    0.0480 O.co2 216  GLU216     -0.2457
     39  OE2       26.4020  -19.5670   -0.6560 O.co2 216  GLU216     -0.2457
     40  N         35.4170  -16.5650   -2.0010 N.3   218  SER218     -0.1202
     41  CA        35.7850  -15.7760   -3.1710 C.3   218  SER218      0.2020
     42  C         37.3000  -15.6050   -3.2540 C.2   218  SER218      0.2619
     43  O         37.9440  -15.2640   -2.2620 O.2   218  SER218     -0.2717
     44  CB        35.1030  -14.4050   -3.1340 C.3   218  SER218      0.2103
     45  OG        33.6990  -14.5300   -2.9850 O.3   218  SER218     -0.2182
     46  N         37.8730  -15.8530   -4.4280 N.am  219  ILE219     -0.1965
     47  CA        39.2940  -15.5700   -4.6260 C.3   219  ILE219      0.1727
     48  C         39.5040  -14.6970   -5.8580 C.2   219  ILE219      0.2616
     49  O         38.5970  -14.5290   -6.6720 O.2   219  ILE219     -0.2715
     50  CB        40.1380  -16.8590   -4.7620 C.3   219  ILE219      0.0290
     51  CG1       39.7590  -17.6300   -6.0270 C.3   219  ILE219      0.0022
     52  CG2       40.0020  -17.7280   -3.5180 C.3   219  ILE219      0.0023
     53  CD1       40.6280  -18.8400   -6.2770 C.3   219  ILE219      0.0001
     54  N         40.7030  -14.1390   -5.9870 N.am  220  ILE220     -0.1977
     55  CA        41.0070  -13.2360   -7.0910 C.3   220  ILE220      0.1596
     56  C         42.0280  -13.8400   -8.0480 C.2   220  ILE220      0.2287
     57  O         43.0160  -14.4360   -7.6150 O.2   220  ILE220     -0.2864
     58  CB        41.5320  -11.8790   -6.5730 C.3   220  ILE220      0.0276
     59  CG1       40.4700  -11.2020   -5.7070 C.3   220  ILE220      0.0022
     60  CG2       41.9280  -10.9690   -7.7270 C.3   220  ILE220      0.0022
     61  CD1       40.8240   -9.7920   -5.2920 C.3   220  ILE220      0.0001
     62  N         28.6700   -8.8720   -0.8240 N.3   259  THR259     -0.1218
     63  CA        29.9370   -9.5190   -1.1410 C.3   259  THR259      0.1862
     64  C         30.4350   -9.0570   -2.5060 C.2   259  THR259      0.2287
     65  O         31.6190   -8.7670   -2.6790 O.2   259  THR259     -0.2866
     66  CB        29.8110  -11.0540   -1.1270 C.3   259  THR259      0.1770
     67  OG1       29.3300  -11.4820    0.1530 O.3   259  THR259     -0.2211
     68  CG2       31.1560  -11.7040   -1.3980 C.3   259  THR259      0.0375
     69  N         31.8280   -5.5560   -2.1850 N.3   262  LYS262     -0.1231
     70  CA        33.1600   -5.6510   -1.5980 C.3   262  LYS262      0.1693
     71  C         34.1780   -6.0490   -2.6610 C.2   262  LYS262      0.2592
     72  O         35.2760   -5.4790   -2.7370 O.2   262  LYS262     -0.2718
     73  CB        33.1750   -6.6560   -0.4450 C.3   262  LYS262      0.0285
     74  CG        32.3000   -6.2700    0.7410 C.3   262  LYS262      0.0035
     75  CD        32.4790   -7.2510    1.8920 C.3   262  LYS262      0.0206
     76  CE        31.6470   -6.8560    3.1030 C.3   262  LYS262      0.1093
     77  NZ        31.8930   -7.7690    4.2590 N.3   262  LYS262     -0.1314
     78  N         33.7970   -7.0220   -3.4840 N.am  263  CYS263     -0.1970
     79  CA        34.6180   -7.4500   -4.6090 C.3   263  CYS263      0.1712
     80  C         34.9510   -6.2670   -5.5130 C.2   263  CYS263      0.2296
     81  O         36.1120   -6.0520   -5.8490 O.2   263  CYS263     -0.2864
     82  CB        33.9150   -8.5500   -5.4110 C.3   263  CYS263      0.0983
     83  SG        33.8220  -10.1550   -4.5880 S.3   263  CYS263     -0.0798
     84  N         37.5690   -3.8920   -3.6690 N.3   266  GLU266     -0.1245
     85  CA        38.9000   -4.4970   -3.6410 C.3   266  GLU266      0.1567
     86  C         39.5220   -4.4830   -5.0370 C.2   266  GLU266      0.2260
     87  O         40.7220   -4.2170   -5.2080 O.2   266  GLU266     -0.2867
     88  CB        38.8320   -5.9230   -3.0980 C.3   266  GLU266      0.0388
     89  CG        38.4520   -6.0030   -1.6280 C.3   266  GLU266      0.1160
     90  CD        38.1640   -7.4200   -1.1770 C.2   266  GLU266      0.3649
     91  OE1       37.9490   -8.2880   -2.0490 O.co2 266  GLU266     -0.2457
     92  OE2       38.1540   -7.6680    0.0470 O.co2 266  GLU266     -0.2457
@<TRIPOS>BOND
     1    20    21    1
     2    23    22    2
     3    22    21    1
     4    21    24    1
     5    26    28   ar
     6    26    25   ar
     7    56    57    2
     8    56    55    1
     9    28    30   ar
    10    24    25    1
    11    60    58    1
    12    25    27   ar
    13    55    58    1
    14    55    54    1
    15    30    29   ar
    16    49    48    2
    17    58    59    1
    18    53    51    1
    19    27    29   ar
    20    51    50    1
    21    54    48   am
    22    48    47    1
    23    81    80    2
    24    59    61    1
    25    80    79    1
    26    82    79    1
    27    82    83    1
    28    87    86    2
    29    86    85    1
    30    50    47    1
    31    50    52    1
    32    47    46    1
    33    79    78    1
    34    46    42   am
    35    84    85    1
    36    85    88    1
    37    15    14    2
    38    78    71   am
    39     4     3    2
    40    42    41    1
    41    42    43    2
    42    14    13    1
    43    41    44    1
    44    41    40    1
    45    44    45    1
    46    88    89    1
    47    72    71    2
    48    65    64    2
    49    71    70    1
    50    64    63    1
    51    13    12    1
    52    13    16    1
    53     3    12   am
    54     3     2    1
    55    69    70    1
    56    91    90   ar
    57    89    90    1
    58    70    73    1
    59    36    35    1
    60    36    37    1
    61     2     1    1
    62     2     5    1
    63    16    17    1
    64    68    66    1
    65    90    92   ar
    66    63    66    1
    67    63    62    1
    68    66    67    1
    69    35    32    1
    70    39    37   ar
    71    37    38   ar
    72     5     6    1
    73    73    74    1
    74     7     6   ar
    75     7     9   ar
    76    17    18   ar
    77    17    19   ar
    78    33    32    1
    79    33    34    2
    80    32    31    1
    81     6     8   ar
    82     9    11   ar
    83     8    10   ar
    84    74    75    1
    85    11    10   ar
    86    75    76    1
    87    76    77    1
