@<TRIPOS>MOLECULE
tmp/5jeaG00.pdb
 82 82 0 0 0
SMALL
GASTEIGER

@<TRIPOS>ATOM
      1  N         45.9510  -46.8280   -8.9850 N.3   120  TYR120     -0.1241
      2  CA        47.3600  -47.1410   -9.1640 C.3   120  TYR120      0.1605
      3  C         47.4440  -48.5490   -9.7240 C.2   120  TYR120      0.2264
      4  O         47.0040  -49.5050   -9.0810 O.2   120  TYR120     -0.2867
      5  CB        48.1210  -47.0180   -7.8430 C.3   120  TYR120      0.0534
      6  CG        49.6170  -47.2150   -7.9610 C.ar  120  TYR120     -0.0201
      7  CD1       50.4160  -46.2590   -8.5740 C.ar  120  TYR120     -0.0009
      8  CD2       50.2330  -48.3490   -7.4440 C.ar  120  TYR120     -0.0009
      9  CE1       51.7820  -46.4300   -8.6810 C.ar  120  TYR120      0.0417
     10  CE2       51.6010  -48.5280   -7.5450 C.ar  120  TYR120      0.0417
     11  CZ        52.3710  -47.5650   -8.1630 C.ar  120  TYR120      0.1957
     12  OH        53.7340  -47.7350   -8.2650 O.3   120  TYR120     -0.2866
     13  N         49.8900  -54.5880   -4.4130 N.3   146  GLY146     -0.1210
     14  CA        50.1720  -53.2250   -4.0040 C.3   146  GLY146      0.1956
     15  C         49.5010  -52.1930   -4.8880 C.2   146  GLY146      0.2612
     16  O         49.8440  -51.0120   -4.8490 O.2   146  GLY146     -0.2717
     17  N         48.5420  -52.6430   -5.6900 N.am  147  PHE147     -0.1962
     18  CA        47.8030  -51.7580   -6.5790 C.3   147  PHE147      0.1771
     19  C         46.4050  -51.4790   -6.0330 C.2   147  PHE147      0.2620
     20  O         45.9550  -52.1390   -5.0930 O.2   147  PHE147     -0.2715
     21  CB        47.7040  -52.3660   -7.9780 C.3   147  PHE147      0.0574
     22  CG        49.0300  -52.5720   -8.6490 C.ar  147  PHE147     -0.0200
     23  CD1       49.8280  -51.4910   -8.9800 C.ar  147  PHE147     -0.0042
     24  CD2       49.4720  -53.8460   -8.9630 C.ar  147  PHE147     -0.0042
     25  CE1       51.0450  -51.6780   -9.6000 C.ar  147  PHE147     -0.0003
     26  CE2       50.6870  -54.0370   -9.5860 C.ar  147  PHE147     -0.0003
     27  CZ        51.4750  -52.9510   -9.9030 C.ar  147  PHE147     -0.0000
     28  N         45.7190  -50.5040   -6.6240 N.am  148  GLY148     -0.1940
     29  CA        44.3610  -50.1980   -6.2080 C.3   148  GLY148      0.2014
     30  C         44.0540  -48.7200   -6.0570 C.2   148  GLY148      0.2639
     31  O         44.7480  -47.8720   -6.6070 O.2   148  GLY148     -0.2714
     32  N         43.0130  -48.4110   -5.2930 N.am  149  ILE149     -0.1963
     33  CA        42.5220  -47.0420   -5.1860 C.3   149  ILE149      0.1727
     34  C         43.4850  -46.1350   -4.4160 C.2   149  ILE149      0.2616
     35  O         44.1860  -46.5780   -3.5040 O.2   149  ILE149     -0.2715
     36  CB        41.1220  -47.0060   -4.5160 C.3   149  ILE149      0.0290
     37  CG1       40.4560  -45.6420   -4.7180 C.3   149  ILE149      0.0022
     38  CG2       41.2120  -47.3700   -3.0380 C.3   149  ILE149      0.0023
     39  CD1       39.0640  -45.5400   -4.1340 C.3   149  ILE149      0.0001
     40  N         43.5330  -44.8670   -4.8150 N.am  150  LEU150     -0.1977
     41  CA        44.2690  -43.8450   -4.0810 C.3   150  LEU150      0.1596
     42  C         43.2790  -42.8040   -3.5630 C.2   150  LEU150      0.2287
     43  O         42.6320  -42.1120   -4.3490 O.2   150  LEU150     -0.2864
     44  CB        45.3310  -43.1890   -4.9680 C.3   150  LEU150      0.0297
     45  CG        46.4340  -44.0870   -5.5400 C.3   150  LEU150      0.0022
     46  CD1       47.2420  -43.3490   -6.5950 C.3   150  LEU150      0.0001
     47  CD2       47.3440  -44.5970   -4.4330 C.3   150  LEU150      0.0001
     48  N         52.6880  -40.5460    2.3050 N.3   185  GLU185     -0.1231
     49  CA        52.5000  -41.6580    1.3880 C.3   185  GLU185      0.1699
     50  C         52.6790  -41.1410   -0.0290 C.2   185  GLU185      0.2592
     51  O         52.1870  -40.0600   -0.3690 O.2   185  GLU185     -0.2718
     52  CB        51.1190  -42.2910    1.5520 C.3   185  GLU185      0.0402
     53  CG        50.6950  -42.5200    2.9890 C.3   185  GLU185      0.1161
     54  CD        49.3050  -43.1150    3.0910 C.2   185  GLU185      0.3649
     55  OE1       48.9840  -44.0170    2.2880 O.co2 185  GLU185     -0.2457
     56  OE2       48.5310  -42.6750    3.9660 O.co2 185  GLU185     -0.2457
     57  N         53.3840  -41.9060   -0.8530 N.am  186  VAL186     -0.1966
     58  CA        53.6300  -41.4930   -2.2230 C.3   186  VAL186      0.1727
     59  C         53.3910  -42.6440   -3.1960 C.2   186  VAL186      0.2616
     60  O         53.7410  -43.7920   -2.9270 O.2   186  VAL186     -0.2715
     61  CB        55.0710  -40.9370   -2.3960 C.3   186  VAL186      0.0290
     62  CG1       56.1130  -41.9930   -2.0560 C.3   186  VAL186      0.0023
     63  CG2       55.2790  -40.3980   -3.8050 C.3   186  VAL186      0.0023
     64  N         52.7520  -42.3250   -4.3160 N.am  187  ALA187     -0.1977
     65  CA        52.6070  -43.2620   -5.4160 C.3   187  ALA187      0.1597
     66  C         53.2320  -42.6430   -6.6550 C.2   187  ALA187      0.2287
     67  O         52.9120  -41.5130   -7.0210 O.2   187  ALA187     -0.2864
     68  CB        51.1460  -43.6000   -5.6540 C.3   187  ALA187      0.0319
     69  N         51.3600  -39.0670   -6.8360 N.3   195  TRP195     -0.1241
     70  CA        50.3330  -38.9600   -5.8080 C.3   195  TRP195      0.1605
     71  C         50.9610  -38.8230   -4.4220 C.2   195  TRP195      0.2264
     72  O         51.8480  -39.5910   -4.0560 O.2   195  TRP195     -0.2867
     73  CB        49.4080  -40.1770   -5.8600 C.3   195  TRP195      0.0550
     74  CG        48.3280  -40.1680   -4.8230 C.ar  195  TRP195      0.0003
     75  CD1       47.1530  -39.4780   -4.8700 C.ar  195  TRP195      0.0946
     76  CD2       48.3160  -40.8960   -3.5870 C.ar  195  TRP195      0.0152
     77  NE1       46.4130  -39.7250   -3.7400 N.ar  195  TRP195     -0.2442
     78  CE2       47.1030  -40.5930   -2.9360 C.ar  195  TRP195      0.0810
     79  CE3       49.2140  -41.7720   -2.9680 C.ar  195  TRP195      0.0012
     80  CZ2       46.7640  -41.1340   -1.6960 C.ar  195  TRP195      0.0191
     81  CZ3       48.8770  -42.3090   -1.7360 C.ar  195  TRP195      0.0001
     82  CH2       47.6620  -41.9870   -1.1130 C.ar  195  TRP195      0.0015
@<TRIPOS>BOND
     1    27    25   ar
     2    27    26   ar
     3     3     2    1
     4     3     4    2
     5    25    23   ar
     6    26    24   ar
     7     2     1    1
     8     2     5    1
     9    23    22   ar
    10    24    22   ar
    11     9     7   ar
    12     9    11   ar
    13    22    21    1
    14     7     6   ar
    15    12    11    1
    16    11    10   ar
    17    21    18    1
    18     6     5    1
    19     6     8   ar
    20    10     8   ar
    21    67    66    2
    22    69    70    1
    23    66    65    1
    24    28    29    1
    25    28    19   am
    26    31    30    2
    27    46    45    1
    28    18    19    1
    29    18    17    1
    30    29    30    1
    31    30    32   am
    32    19    20    2
    33    73    70    1
    34    73    74    1
    35    70    71    1
    36    17    15   am
    37    68    65    1
    38    45    44    1
    39    45    47    1
    40    65    64    1
    41    32    33    1
    42    33    36    1
    43    33    34    1
    44    44    41    1
    45    15    16    2
    46    15    14    1
    47    75    74   ar
    48    75    77   ar
    49    74    76   ar
    50    40    34   am
    51    40    41    1
    52    37    36    1
    53    37    39    1
    54    36    38    1
    55    71    72    2
    56    34    35    2
    57    13    14    1
    58    43    42    2
    59    64    59   am
    60    41    42    1
    61    63    61    1
    62    77    78   ar
    63    76    79   ar
    64    76    78   ar
    65    59    60    2
    66    59    58    1
    67    79    81   ar
    68    78    80   ar
    69    61    58    1
    70    61    62    1
    71    58    57    1
    72    81    82   ar
    73    80    82   ar
    74    57    50   am
    75    51    50    2
    76    50    49    1
    77    49    52    1
    78    49    48    1
    79    52    53    1
    80    55    54   ar
    81    53    54    1
    82    54    56   ar
