@<TRIPOS>MOLECULE
tmp/5jeaG01.pdb
 78 77 0 0 0
SMALL
GASTEIGER

@<TRIPOS>ATOM
      1  N         67.0760  -53.2760  -28.7600 N.3    23  LEU23      -0.1231
      2  CA        66.8220  -51.8530  -28.9610 C.3    23  LEU23       0.1693
      3  C         65.6690  -51.3550  -28.1070 C.2    23  LEU23       0.2593
      4  O         64.5820  -51.9300  -28.1190 O.2    23  LEU23      -0.2718
      5  CB        66.5340  -51.5700  -30.4400 C.3    23  LEU23       0.0284
      6  CG        67.5610  -52.1400  -31.4240 C.3    23  LEU23       0.0019
      7  CD1       67.1910  -51.7960  -32.8610 C.3    23  LEU23       0.0001
      8  CD2       68.9680  -51.6500  -31.0910 C.3    23  LEU23       0.0001
      9  N         65.9160  -50.2850  -27.3600 N.am   24  GLY24      -0.1943
     10  CA        64.8880  -49.6780  -26.5390 C.3    24  GLY24       0.1998
     11  C         64.3490  -48.4160  -27.1800 C.2    24  GLY24       0.2481
     12  O         64.4960  -48.2160  -28.3860 O.2    24  GLY24      -0.2729
     13  N         63.7160  -47.5560  -26.3720 N.am   25  PRO25      -0.2715
     14  CA        63.1660  -46.2770  -26.8330 C.3    25  PRO25       0.1536
     15  C         64.2280  -45.3800  -27.4670 C.2    25  PRO25       0.2599
     16  O         65.3720  -45.3660  -27.0150 O.2    25  PRO25      -0.2715
     17  CB        62.6220  -45.6470  -25.5470 C.3    25  PRO25       0.0310
     18  CG        62.3730  -46.8010  -24.6360 C.3    25  PRO25       0.0237
     19  CD        63.4500  -47.7900  -24.9430 C.3    25  PRO25       0.0939
     20  N         63.8450  -44.6450  -28.5050 N.am   26  GLY26      -0.1941
     21  CA        64.7510  -43.7260  -29.1680 C.3    26  GLY26       0.2014
     22  C         65.3730  -44.3090  -30.4220 C.2    26  GLY26       0.2639
     23  O         65.7180  -43.5770  -31.3490 O.2    26  GLY26      -0.2714
     24  N         65.5170  -45.6300  -30.4500 N.am   27  ILE27      -0.1963
     25  CA        66.1420  -46.3090  -31.5800 C.3    27  ILE27       0.1727
     26  C         65.1060  -47.0250  -32.4380 C.2    27  ILE27       0.2616
     27  O         64.3160  -47.8310  -31.9450 O.2    27  ILE27      -0.2715
     28  CB        67.2110  -47.3210  -31.1190 C.3    27  ILE27       0.0290
     29  CG1       68.4650  -46.5960  -30.6330 C.3    27  ILE27       0.0022
     30  CG2       67.5950  -48.2430  -32.2540 C.3    27  ILE27       0.0023
     31  CD1       68.4230  -46.1960  -29.1860 C.3    27  ILE27       0.0001
     32  N         65.1310  -46.7250  -33.7320 N.am   28  TYR28      -0.1974
     33  CA        64.1330  -47.2150  -34.6690 C.3    28  TYR28       0.1639
     34  C         64.7520  -48.1000  -35.7390 C.2    28  TYR28       0.2290
     35  O         65.7540  -47.7370  -36.3620 O.2    28  TYR28      -0.2864
     36  CB        63.4130  -46.0330  -35.3160 C.3    28  TYR28       0.0560
     37  CG        62.2900  -46.3940  -36.2580 C.ar   28  TYR28      -0.0198
     38  CD1       61.1390  -47.0190  -35.7940 C.ar   28  TYR28      -0.0009
     39  CD2       62.3610  -46.0730  -37.6070 C.ar   28  TYR28      -0.0009
     40  CE1       60.1020  -47.3330  -36.6510 C.ar   28  TYR28       0.0417
     41  CE2       61.3290  -46.3820  -38.4710 C.ar   28  TYR28       0.0417
     42  CZ        60.2020  -47.0130  -37.9880 C.ar   28  TYR28       0.1957
     43  OH        59.1710  -47.3210  -38.8450 O.3    28  TYR28      -0.2866
     44  N         65.9620  -41.7410  -33.5970 N.3    39  VAL39      -0.1231
     45  CA        64.8480  -40.8710  -33.9500 C.3    39  VAL39       0.1692
     46  C         64.5120  -39.8810  -32.8410 C.2    39  VAL39       0.2592
     47  O         63.6100  -39.0610  -32.9900 O.2    39  VAL39      -0.2718
     48  CB        63.5870  -41.6840  -34.2900 C.3    39  VAL39       0.0266
     49  CG1       63.7810  -42.4410  -35.5960 C.3    39  VAL39       0.0020
     50  CG2       63.2390  -42.6300  -33.1540 C.3    39  VAL39       0.0020
     51  N         65.2390  -39.9510  -31.7320 N.am   40  ASN40      -0.1974
     52  CA        65.0170  -39.0160  -30.6360 C.3    40  ASN40       0.1688
     53  C         66.2840  -38.2700  -30.2260 C.2    40  ASN40       0.2292
     54  O         67.3830  -38.8210  -30.2560 O.2    40  ASN40      -0.2864
     55  CB        64.4280  -39.7470  -29.4300 C.3    40  ASN40       0.1181
     56  CG        63.0090  -40.2150  -29.6740 C.2    40  ASN40       0.2629
     57  OD1       62.7840  -41.3230  -30.1600 O.2    40  ASN40      -0.2716
     58  ND2       62.0410  -39.3690  -29.3440 N.am   40  ASN40      -0.0877
     59  N         65.4260  -39.3060  -23.5160 N.3    59  TYR59      -0.1241
     60  CA        65.0720  -38.0080  -24.0690 C.3    59  TYR59       0.1605
     61  C         63.9970  -37.3240  -23.2350 C.2    59  TYR59       0.2264
     62  O         63.1690  -37.9800  -22.6030 O.2    59  TYR59      -0.2867
     63  CB        64.6120  -38.1470  -25.5240 C.3    59  TYR59       0.0534
     64  CG        63.3680  -38.9840  -25.7310 C.ar   59  TYR59      -0.0201
     65  CD1       62.1110  -38.3920  -25.8000 C.ar   59  TYR59      -0.0009
     66  CD2       63.4500  -40.3630  -25.8760 C.ar   59  TYR59      -0.0009
     67  CE1       60.9720  -39.1520  -25.9960 C.ar   59  TYR59       0.0417
     68  CE2       62.3160  -41.1310  -26.0720 C.ar   59  TYR59       0.0417
     69  CZ        61.0810  -40.5210  -26.1330 C.ar   59  TYR59       0.1957
     70  OH        59.9530  -41.2840  -26.3300 O.3    59  TYR59      -0.2866
     71  N         53.6490  -42.6560  -23.2350 N.3    65  ILE65      -0.1245
     72  CA        53.1900  -43.6940  -24.1440 C.3    65  ILE65       0.1561
     73  C         53.2650  -45.0400  -23.4290 C.2    65  ILE65       0.2260
     74  O         54.3410  -45.4580  -23.0010 O.2    65  ILE65      -0.2867
     75  CB        54.0230  -43.7330  -25.4370 C.3    65  ILE65       0.0252
     76  CG1       54.0180  -42.3580  -26.1100 C.3    65  ILE65       0.0019
     77  CG2       53.4890  -44.8020  -26.3770 C.3    65  ILE65       0.0019
     78  CD1       54.8260  -42.2870  -27.3890 C.3    65  ILE65       0.0001
@<TRIPOS>BOND
     1    43    42    1
     2    41    42   ar
     3    41    39   ar
     4    42    40   ar
     5    39    37   ar
     6    40    38   ar
     7    35    34    2
     8    37    38   ar
     9    37    36    1
    10    34    33    1
    11    49    48    1
    12    36    33    1
    13    33    32    1
    14    48    45    1
    15    48    50    1
    16    45    44    1
    17    45    46    1
    18    32    26   am
    19    47    46    2
    20     7     6    1
    21    46    51   am
    22    26    27    2
    23    26    25    1
    24    30    28    1
    25    51    52    1
    26    25    28    1
    27    25    24    1
    28     6     8    1
    29     6     5    1
    30    23    22    2
    31    28    29    1
    32    52    53    1
    33    52    55    1
    34    29    31    1
    35    24    22   am
    36     5     2    1
    37    22    21    1
    38    54    53    2
    39    57    56    2
    40    56    55    1
    41    56    58   am
    42    21    20    1
    43     2     1    1
    44     2     3    1
    45    20    15   am
    46    12    11    2
    47     4     3    2
    48     3     9   am
    49    15    16    2
    50    15    14    1
    51    78    76    1
    52     9    10    1
    53    11    10    1
    54    11    13   am
    55    14    13    1
    56    14    17    1
    57    77    75    1
    58    13    19    1
    59    70    69    1
    60    69    68   ar
    61    69    67   ar
    62    76    75    1
    63    68    66   ar
    64    67    65   ar
    65    66    64   ar
    66    65    64   ar
    67    64    63    1
    68    17    18    1
    69    63    60    1
    70    75    72    1
    71    19    18    1
    72    72    73    1
    73    72    71    1
    74    60    59    1
    75    60    61    1
    76    73    74    2
    77    61    62    2
