@<TRIPOS>MOLECULE
tmp/5jeaD01.pdb
 121 113 0 0 0
SMALL
GASTEIGER

@<TRIPOS>ATOM
      1  N         46.2220  -16.9440  -46.7420 N.3    63  ARG63      -0.1245
      2  CA        47.6690  -16.7790  -46.6660 C.3    63  ARG63       0.1563
      3  C         48.2700  -17.7640  -45.6660 C.2    63  ARG63       0.2260
      4  O         49.1930  -18.5290  -45.9810 O.2    63  ARG63      -0.2867
      5  CB        47.9960  -15.3360  -46.2700 C.3    63  ARG63       0.0307
      6  CG        49.4580  -15.0410  -45.9970 C.3    63  ARG63       0.0489
      7  CD        49.6280  -13.5800  -45.6160 C.3    63  ARG63       0.2205
      8  NE        51.0280  -13.2110  -45.4470 N.pl3  63  ARG63      -0.0865
      9  CZ        51.6490  -13.1450  -44.2740 C.cat  63  ARG63       0.5346
     10  NH1       50.9920  -13.4210  -43.1540 N.pl3  63  ARG63       0.1354
     11  NH2       52.9290  -12.7990  -44.2210 N.pl3  63  ARG63       0.1354
     12  N         48.0380  -21.3680  -46.7870 N.3    66  VAL66      -0.1231
     13  CA        49.1480  -21.7540  -47.6470 C.3    66  VAL66       0.1692
     14  C         50.3900  -22.0110  -46.8000 C.2    66  VAL66       0.2591
     15  O         51.1090  -22.9980  -47.0140 O.2    66  VAL66      -0.2718
     16  CB        49.4380  -20.6800  -48.7100 C.3    66  VAL66       0.0266
     17  CG1       50.7610  -20.9530  -49.4080 C.3    66  VAL66       0.0020
     18  CG2       48.3070  -20.6350  -49.7170 C.3    66  VAL66       0.0020
     19  N         50.6280  -21.1330  -45.8270 N.am   67  LEU67      -0.1980
     20  CA        51.7230  -21.3400  -44.8820 C.3    67  LEU67       0.1596
     21  C         51.6160  -22.7030  -44.1880 C.2    67  LEU67       0.2287
     22  O         52.6020  -23.4320  -44.0760 O.2    67  LEU67      -0.2864
     23  CB        51.7590  -20.2180  -43.8420 C.3    67  LEU67       0.0297
     24  CG        52.3830  -18.8930  -44.2910 C.3    67  LEU67       0.0022
     25  CD1       52.3800  -17.8850  -43.1540 C.3    67  LEU67       0.0001
     26  CD2       53.7970  -19.1060  -44.8100 C.3    67  LEU67       0.0001
     27  N         52.5060  -25.5750  -46.7500 N.3    70  LYS70      -0.1245
     28  CA        53.9380  -25.7530  -46.9590 C.3    70  LYS70       0.1561
     29  C         54.6280  -26.2990  -45.7070 C.2    70  LYS70       0.2260
     30  O         55.5210  -27.1560  -45.7940 O.2    70  LYS70      -0.2867
     31  CB        54.5700  -24.4330  -47.3930 C.3    70  LYS70       0.0271
     32  CG        54.0200  -23.9290  -48.7150 C.3    70  LYS70       0.0035
     33  CD        54.5840  -22.5730  -49.0860 C.3    70  LYS70       0.0206
     34  CE        54.0620  -22.1200  -50.4420 C.3    70  LYS70       0.1093
     35  NZ        54.5330  -20.7490  -50.7830 N.3    70  LYS70      -0.1314
     36  N         54.2200   -7.7630  -44.8700 N.3   102  GLU102     -0.1231
     37  CA        53.2740   -8.8790  -44.9140 C.3   102  GLU102      0.1699
     38  C         52.4830   -8.9970  -46.2120 C.2   102  GLU102      0.2592
     39  O         52.2180  -10.1030  -46.6850 O.2   102  GLU102     -0.2718
     40  CB        52.2980   -8.7620  -43.7420 C.3   102  GLU102      0.0402
     41  CG        52.9270   -9.0280  -42.3820 C.3   102  GLU102      0.1161
     42  CD        52.5640   -7.9760  -41.3460 C.2   102  GLU102      0.3649
     43  OE1       52.2850   -6.8230  -41.7390 O.co2 102  GLU102     -0.2457
     44  OE2       52.5600   -8.3010  -40.1380 O.co2 102  GLU102     -0.2457
     45  N         52.1020   -7.8580  -46.7780 N.am  103  ALA103     -0.1966
     46  CA        51.2500   -7.8460  -47.9610 C.3   103  ALA103      0.1728
     47  C         51.9410   -8.4310  -49.1900 C.2   103  ALA103      0.2616
     48  O         51.2840   -8.9930  -50.0630 O.2   103  ALA103     -0.2715
     49  CB        50.7750   -6.4280  -48.2510 C.3   103  ALA103      0.0334
     50  N         53.2640   -8.3160  -49.2520 N.am  104  GLU104     -0.1963
     51  CA        53.9910   -8.7490  -50.4420 C.3   104  GLU104      0.1733
     52  C         54.8120  -10.0190  -50.2170 C.2   104  GLU104      0.2616
     53  O         55.0100  -10.8050  -51.1450 O.2   104  GLU104     -0.2715
     54  CB        54.9070   -7.6300  -50.9400 C.3   104  GLU104      0.0429
     55  CG        54.2510   -6.2560  -50.9130 C.3   104  GLU104      0.1163
     56  CD        55.2010   -5.1530  -50.4600 C.2   104  GLU104      0.3649
     57  OE1       56.1270   -5.4430  -49.6740 O.co2 104  GLU104     -0.2457
     58  OE2       54.9940   -3.9860  -50.8610 O.co2 104  GLU104     -0.2457
     59  N         55.2960  -10.2250  -48.9960 N.am  105  PHE105     -0.1960
     60  CA        56.1390  -11.3880  -48.7230 C.3   105  PHE105      0.1771
     61  C         55.7040  -12.1490  -47.4790 C.2   105  PHE105      0.2620
     62  O         55.0440  -11.6010  -46.5990 O.2   105  PHE105     -0.2715
     63  CB        57.6030  -10.9740  -48.5670 C.3   105  PHE105      0.0574
     64  CG        58.0850  -10.0300  -49.6250 C.ar  105  PHE105     -0.0200
     65  CD1       58.4260  -10.4910  -50.8880 C.ar  105  PHE105     -0.0042
     66  CD2       58.2160   -8.6800  -49.3490 C.ar  105  PHE105     -0.0042
     67  CE1       58.8750   -9.6190  -51.8590 C.ar  105  PHE105     -0.0003
     68  CE2       58.6640   -7.8040  -50.3140 C.ar  105  PHE105     -0.0003
     69  CZ        58.9940   -8.2740  -51.5720 C.ar  105  PHE105     -0.0000
     70  N         56.0960  -13.4160  -47.4100 N.am  106  SER106     -0.1936
     71  CA        55.8260  -14.2450  -46.2430 C.3   106  SER106      0.2055
     72  C         56.8710  -15.3480  -46.1100 C.2   106  SER106      0.2642
     73  O         56.6490  -16.3410  -45.4180 O.2   106  SER106     -0.2714
     74  CB        54.4250  -14.8550  -46.3220 C.3   106  SER106      0.2130
     75  OG        54.3110  -15.7120  -47.4430 O.3   106  SER106     -0.2179
     76  N         58.0120  -15.1690  -46.7690 N.am  107  LEU107     -0.1977
     77  CA        59.0460  -16.1990  -46.7770 C.3   107  LEU107      0.1596
     78  C         59.8020  -16.2530  -45.4480 C.2   107  LEU107      0.2287
     79  O         60.1620  -17.3360  -44.9820 O.2   107  LEU107     -0.2864
     80  CB        60.0290  -15.9830  -47.9360 C.3   107  LEU107      0.0297
     81  CG        60.9790  -14.7820  -47.9100 C.3   107  LEU107      0.0022
     82  CD1       62.2110  -15.0710  -48.7460 C.3   107  LEU107      0.0001
     83  CD2       60.2870  -13.5160  -48.4010 C.3   107  LEU107      0.0001
     84  N         57.6110  -18.0460  -43.0500 N.3   110  LEU110     -0.1245
     85  CA        57.5830  -19.4710  -43.3620 C.3   110  LEU110      0.1561
     86  C         58.8290  -20.1800  -42.8410 C.2   110  LEU110      0.2260
     87  O         58.7320  -21.1980  -42.1520 O.2   110  LEU110     -0.2867
     88  CB        57.4460  -19.6940  -44.8700 C.3   110  LEU110      0.0270
     89  CG        57.5310  -21.1490  -45.3350 C.3   110  LEU110      0.0019
     90  CD1       56.4750  -21.9950  -44.6440 C.3   110  LEU110      0.0001
     91  CD2       57.3850  -21.2420  -46.8450 C.3   110  LEU110      0.0001
     92  N         62.3670  -14.1150  -54.5890 N.3   161  VAL161     -0.1245
     93  CA        62.4240  -14.5660  -53.2030 C.3   161  VAL161      0.1561
     94  C         62.3090  -16.0870  -53.1300 C.2   161  VAL161      0.2260
     95  O         61.6810  -16.7160  -53.9830 O.2   161  VAL161     -0.2867
     96  CB        61.3190  -13.9190  -52.3500 C.3   161  VAL161      0.0252
     97  CG1       61.5930  -12.4320  -52.1740 C.3   161  VAL161      0.0019
     98  CG2       59.9550  -14.1490  -52.9800 C.3   161  VAL161      0.0019
     99  N         62.4330  -19.7810  -50.4230 N.3   163  THR163     -0.1218
    100  CA        62.4850  -20.4810  -49.1470 C.3   163  THR163      0.1862
    101  C         63.1870  -21.8170  -49.3350 C.2   163  THR163      0.2287
    102  O         62.7780  -22.6270  -50.1660 O.2   163  THR163     -0.2866
    103  CB        61.0870  -20.7170  -48.5560 C.3   163  THR163      0.1770
    104  OG1       60.4270  -19.4600  -48.3610 O.3   163  THR163     -0.2211
    105  CG2       61.1940  -21.4390  -47.2230 C.3   163  THR163      0.0375
    106  N         60.7910  -23.0860  -52.2290 N.3   182  ASP182     -0.1239
    107  CA        59.7060  -22.2410  -52.7100 C.3   182  ASP182      0.1674
    108  C         60.2610  -20.9830  -53.3690 C.2   182  ASP182      0.2266
    109  O         60.6310  -20.0260  -52.6900 O.2   182  ASP182     -0.2867
    110  CB        58.7650  -21.8780  -51.5590 C.3   182  ASP182      0.1410
    111  CG        57.4800  -21.2260  -52.0350 C.2   182  ASP182      0.3668
    112  OD1       57.0500  -21.5050  -53.1750 O.co2 182  ASP182     -0.2456
    113  OD2       56.8970  -20.4340  -51.2630 O.co2 182  ASP182     -0.2456
    114  N         59.8660  -17.7760  -55.9750 N.3   184  ASN184     -0.1240
    115  CA        58.8930  -16.8910  -56.6020 C.3   184  ASN184      0.1653
    116  C         59.5280  -15.5980  -57.0970 C.2   184  ASN184      0.2266
    117  O         60.2320  -14.9170  -56.3530 O.2   184  ASN184     -0.2867
    118  CB        57.7600  -16.5670  -55.6260 C.3   184  ASN184      0.1155
    119  CG        56.9900  -17.7970  -55.1970 C.2   184  ASN184      0.2627
    120  OD1       56.0370  -18.2040  -55.8590 O.2   184  ASN184     -0.2716
    121  ND2       57.3900  -18.3880  -54.0770 N.am  184  ASN184     -0.0877
@<TRIPOS>BOND
     1   116   115    1
     2   116   117    2
     3   115   114    1
     4   115   118    1
     5   120   119    2
     6   118   119    1
     7   119   121   am
     8    92    93    1
     9    95    94    2
    10   108   107    1
    11   108   109    2
    12    93    94    1
    13    93    96    1
    14   112   111   ar
    15    98    96    1
    16   107   106    1
    17   107   110    1
    18    96    97    1
    19   111   110    1
    20   111   113   ar
    21    67    69   ar
    22    67    65   ar
    23    69    68   ar
    24    53    52    2
    25    54    55    1
    26    54    51    1
    27    55    56    1
    28    65    64   ar
    29    58    56   ar
    30    35    34    1
    31    56    57   ar
    32    51    52    1
    33    51    50    1
    34    34    33    1
    35    99   100    1
    36    68    66   ar
    37    52    59   am
    38   102   101    2
    39    48    47    2
    40    18    16    1
    41    64    66   ar
    42    64    63    1
    43    17    16    1
    44   101   100    1
    45    50    47   am
    46    47    46    1
    47   100   103    1
    48    33    32    1
    49    59    60    1
    50    82    81    1
    51    60    63    1
    52    60    61    1
    53    32    31    1
    54    16    13    1
    55   103   104    1
    56   103   105    1
    57    83    81    1
    58    49    46    1
    59    46    45    1
    60    80    81    1
    61    80    77    1
    62    13    14    1
    63    13    12    1
    64    61    70   am
    65    61    62    2
    66    75    74    1
    67    70    71    1
    68    31    28    1
    69    15    14    2
    70    28    27    1
    71    28    29    1
    72    91    89    1
    73    14    19   am
    74    45    38   am
    75    77    76    1
    76    77    78    1
    77    76    72   am
    78     1     2    1
    79    39    38    2
    80     2     5    1
    81     2     3    1
    82    74    71    1
    83     5     6    1
    84    71    72    1
    85    38    37    1
    86    72    73    2
    87     6     7    1
    88     4     3    2
    89    19    20    1
    90    30    29    2
    91     7     8    1
    92    78    79    2
    93     8     9    2
    94    89    88    1
    95    89    90    1
    96    37    36    1
    97    37    40    1
    98    20    21    1
    99    20    23    1
   100    88    85    1
   101    26    24    1
   102    24    23    1
   103    24    25    1
   104     9    11    1
   105     9    10    1
   106    21    22    2
   107    40    41    1
   108    85    84    1
   109    85    86    1
   110    86    87    2
   111    41    42    1
   112    43    42   ar
   113    42    44   ar
