@<TRIPOS>MOLECULE
tmp/5jebA00.pdb
 182 168 0 0 0
SMALL
GASTEIGER

@<TRIPOS>ATOM
      1  N        -11.8190   91.8120   22.2390 N.3    20  LEU20      -0.1231
      2  CA       -12.4530   92.8080   23.0970 C.3    20  LEU20       0.1693
      3  C        -13.8170   92.3460   23.5950 C.2    20  LEU20       0.2592
      4  O        -14.0570   92.3060   24.8040 O.2    20  LEU20      -0.2718
      5  CB       -12.5760   94.1520   22.3650 C.3    20  LEU20       0.0284
      6  CG       -11.3910   95.1130   22.4920 C.3    20  LEU20       0.0019
      7  CD1      -11.7710   96.5130   22.0420 C.3    20  LEU20       0.0001
      8  CD2      -10.8760   95.1450   23.9220 C.3    20  LEU20       0.0001
      9  N        -14.7200   92.0100   22.6810 N.am   21  GLY21      -0.1957
     10  CA       -16.0410   91.5650   23.0650 C.3    21  GLY21       0.1869
     11  C        -16.8740   91.1510   21.8760 C.2    21  GLY21       0.2309
     12  O        -16.6590   91.6240   20.7560 O.2    21  GLY21      -0.2863
     13  N        -24.6920   91.3370   18.2420 N.3    25  PHE25      -0.1241
     14  CA       -24.7350   91.3810   16.7870 C.3    25  PHE25       0.1605
     15  C        -23.3740   91.6830   16.1680 C.2    25  PHE25       0.2264
     16  O        -23.3170   92.0120   14.9760 O.2    25  PHE25      -0.2867
     17  CB       -25.7640   92.4200   16.3090 C.3    25  PHE25       0.0534
     18  CG       -25.7800   93.6860   17.1270 C.ar   25  PHE25      -0.0203
     19  CD1      -25.0920   94.8110   16.7040 C.ar   25  PHE25      -0.0042
     20  CD2      -26.5090   93.7570   18.3070 C.ar   25  PHE25      -0.0042
     21  CE1      -25.1100   95.9740   17.4510 C.ar   25  PHE25      -0.0003
     22  CE2      -26.5290   94.9160   19.0570 C.ar   25  PHE25      -0.0003
     23  CZ       -25.8300   96.0260   18.6280 C.ar   25  PHE25      -0.0000
     24  N        -15.6620   91.9620   18.0690 N.3    28  VAL28      -0.1245
     25  CA       -14.5920   92.9460   17.9700 C.3    28  VAL28       0.1561
     26  C        -13.3290   92.3770   18.6040 C.2    28  VAL28       0.2260
     27  O        -13.3880   91.5930   19.5570 O.2    28  VAL28      -0.2867
     28  CB       -14.9970   94.2830   18.6350 C.3    28  VAL28       0.0252
     29  CG1      -13.9210   95.3450   18.4440 C.3    28  VAL28       0.0019
     30  CG2      -16.3360   94.7660   18.0890 C.3    28  VAL28       0.0019
     31  N         -8.8410   98.9600   17.4050 N.3    45  ALA45      -0.1245
     32  CA        -9.8990   97.9700   17.5400 C.3    45  ALA45       0.1562
     33  C        -10.2640   97.4400   16.1600 C.2    45  ALA45       0.2260
     34  O        -10.3180   98.2010   15.1880 O.2    45  ALA45      -0.2867
     35  CB       -11.1340   98.5640   18.2210 C.3    45  ALA45       0.0290
     36  N        -12.9310   95.0590   13.8790 N.3    47  LYS47      -0.1245
     37  CA       -14.2360   94.4270   13.7420 C.3    47  LYS47       0.1561
     38  C        -14.2160   93.4760   12.5540 C.2    47  LYS47       0.2260
     39  O        -13.8530   93.8720   11.4420 O.2    47  LYS47      -0.2867
     40  CB       -15.3410   95.4710   13.5600 C.3    47  LYS47       0.0271
     41  CG       -16.7370   94.8730   13.4550 C.3    47  LYS47       0.0035
     42  CD       -17.7890   95.9400   13.2050 C.3    47  LYS47       0.0206
     43  CE       -19.1770   95.3260   13.1000 C.3    47  LYS47       0.1093
     44  NZ       -20.2180   96.3410   12.7830 N.3    47  LYS47      -0.1314
     45  N        -18.2030  104.8000    7.8520 N.3    66  MET66      -0.1245
     46  CA       -17.2300  105.0450    8.9110 C.3    66  MET66       0.1570
     47  C        -15.9530  105.7020    8.3990 C.2    66  MET66       0.2261
     48  O        -15.2460  106.3410    9.1860 O.2    66  MET66      -0.2867
     49  CB       -16.8960  103.7360    9.6280 C.3    66  MET66       0.0387
     50  CG       -16.5610  103.9040   11.1040 C.3    66  MET66       0.0595
     51  SD       -16.3010  102.3330   11.9510 S.3    66  MET66      -0.1393
     52  CE       -17.8860  101.5380   11.6960 C.3    66  MET66       0.0692
     53  N        -16.2780  108.2730   16.4910 N.3    75  CYS75      -0.1235
     54  CA       -15.0580  107.5140   16.2550 C.3    75  CYS75       0.1677
     55  C        -14.9590  107.1410   14.7810 C.2    75  CYS75       0.2270
     56  O        -15.8940  106.5790   14.2020 O.2    75  CYS75      -0.2867
     57  CB       -15.0230  106.2700   17.1360 C.3    75  CYS75       0.0956
     58  SG       -13.5520  105.2380   16.9380 S.3    75  CYS75      -0.0801
     59  N        -13.1630  105.4590   11.3170 N.3    77  LEU77      -0.1245
     60  CA       -12.3460  104.3760   10.7850 C.3    77  LEU77       0.1561
     61  C        -11.0830  104.9400   10.1440 C.2    77  LEU77       0.2260
     62  O        -11.1290  105.9340    9.4150 O.2    77  LEU77      -0.2867
     63  CB       -13.1410  103.5600    9.7620 C.3    77  LEU77       0.0270
     64  CG       -12.4320  102.4430    8.9840 C.3    77  LEU77       0.0019
     65  CD1      -13.3510  101.2430    8.8130 C.3    77  LEU77       0.0001
     66  CD2      -11.9500  102.9240    7.6210 C.3    77  LEU77       0.0001
     67  N        -12.2030   95.7500    9.6560 N.3    88  LEU88      -0.1231
     68  CA       -12.3800   97.1750    9.8950 C.3    88  LEU88       0.1693
     69  C        -11.5250   97.5900   11.0830 C.2    88  LEU88       0.2592
     70  O        -11.5000   96.9070   12.1090 O.2    88  LEU88      -0.2718
     71  CB       -13.8490   97.5040   10.1640 C.3    88  LEU88       0.0284
     72  CG       -14.8480   97.0050    9.1220 C.3    88  LEU88       0.0019
     73  CD1      -16.2610   97.4280    9.4910 C.3    88  LEU88       0.0001
     74  CD2      -14.4710   97.5120    7.7420 C.3    88  LEU88       0.0001
     75  N        -10.8240   98.7120   10.9420 N.am   89  ILE89      -0.1966
     76  CA        -9.8460   99.1450   11.9330 C.3    89  ILE89       0.1727
     77  C        -10.1320  100.5930   12.3070 C.2    89  ILE89       0.2617
     78  O        -10.1230  101.4750   11.4400 O.2    89  ILE89      -0.2715
     79  CB        -8.4040   98.9960   11.4200 C.3    89  ILE89       0.0290
     80  CG1       -8.0120   97.5190   11.3500 C.3    89  ILE89       0.0022
     81  CG2       -7.4410   99.7510   12.3180 C.3    89  ILE89       0.0023
     82  CD1       -8.2580   96.8830   10.0030 C.3    89  ILE89       0.0001
     83  N        -10.3780  100.8340   13.5920 N.am   90  THR90      -0.1937
     84  CA       -10.5410  102.1690   14.1490 C.3    90  THR90       0.2028
     85  C         -9.5550  102.3560   15.2940 C.2    90  THR90       0.2642
     86  O         -8.9110  101.4090   15.7500 O.2    90  THR90      -0.2714
     87  CB       -11.9710  102.3960   14.6550 C.3    90  THR90       0.1808
     88  OG1      -12.1250  103.7640   15.0480 O.3    90  THR90      -0.2208
     89  CG2      -12.2420  101.5110   15.8600 C.3    90  THR90       0.0379
     90  N         -9.4400  103.5950   15.7650 N.am   91  GLN91      -0.1963
     91  CA        -8.5980  103.8670   16.9220 C.3    91  GLN91       0.1733
     92  C         -9.2580  103.3160   18.1790 C.2    91  GLN91       0.2616
     93  O        -10.4510  103.5330   18.4140 O.2    91  GLN91      -0.2715
     94  CB        -8.3420  105.3670   17.0640 C.3    91  GLN91       0.0408
     95  CG        -7.1890  105.7040   18.0010 C.3    91  GLN91       0.0908
     96  CD        -6.7120  107.1370   17.8550 C.2    91  GLN91       0.2608
     97  OE1       -7.3840  107.9670   17.2410 O.2    91  GLN91      -0.2717
     98  NE2       -5.5480  107.4350   18.4200 N.am   91  GLN91      -0.0878
     99  N         -8.4810  102.5990   18.9850 N.am   92  LEU92      -0.1963
    100  CA        -9.0180  101.9350   20.1640 C.3    92  LEU92       0.1728
    101  C         -9.3100  102.9480   21.2610 C.2    92  LEU92       0.2616
    102  O         -8.4740  103.8030   21.5720 O.2    92  LEU92      -0.2715
    103  CB        -8.0380  100.8780   20.6690 C.3    92  LEU92       0.0311
    104  CG        -8.3980  100.2060   21.9930 C.3    92  LEU92       0.0022
    105  CD1       -9.6980   99.4380   21.8520 C.3    92  LEU92       0.0001
    106  CD2       -7.2760   99.2860   22.4420 C.3    92  LEU92       0.0001
    107  N        -10.5010  102.8490   21.8470 N.am   93  MET93      -0.1977
    108  CA       -10.8680  103.6930   22.9750 C.3    93  MET93       0.1605
    109  C        -10.5070  102.9760   24.2680 C.2    93  MET93       0.2287
    110  O        -11.0210  101.8760   24.5150 O.2    93  MET93      -0.2864
    111  CB       -12.3520  104.0110   22.9460 C.3    93  MET93       0.0413
    112  CG       -12.8240  104.7380   21.6870 C.3    93  MET93       0.0598
    113  SD       -12.2040  106.4210   21.4830 S.3    93  MET93      -0.1393
    114  CE       -10.7770  106.1570   20.4290 C.3    93  MET93       0.0692
    115  N        -13.4150  102.0680   26.7780 N.3    96  GLY96      -0.1210
    116  CA       -14.3750  101.1410   26.2110 C.3    96  GLY96       0.1956
    117  C        -15.7980  101.6730   26.1810 C.2    96  GLY96       0.2612
    118  O        -16.0440  102.8790   26.1120 O.2    96  GLY96      -0.2717
    119  N        -16.7470  100.7390   26.2320 N.am   97  CYS97      -0.1970
    120  CA       -18.1590  101.0750   26.1160 C.3    97  CYS97       0.1712
    121  C        -18.6120  101.9490   27.2790 C.2    97  CYS97       0.2296
    122  O        -18.0610  101.8940   28.3810 O.2    97  CYS97      -0.2864
    123  CB       -19.0000   99.7990   26.0640 C.3    97  CYS97       0.0983
    124  SG       -20.7670  100.0590   26.3140 S.3    97  CYS97      -0.0798
    125  N        -21.4110   99.6820   29.8420 N.3   100  ASP100     -0.1239
    126  CA       -20.7020   98.9290   30.8690 C.3   100  ASP100      0.1674
    127  C        -19.9050   99.8360   31.7970 C.2   100  ASP100      0.2266
    128  O        -19.5910   99.4320   32.9220 O.2   100  ASP100     -0.2867
    129  CB       -19.7720   97.9000   30.2210 C.3   100  ASP100      0.1410
    130  CG       -20.5130   96.9270   29.3230 C.2   100  ASP100      0.3668
    131  OD1      -21.6980   96.6440   29.6000 O.co2 100  ASP100     -0.2456
    132  OD2      -19.9100   96.4430   28.3420 O.co2 100  ASP100     -0.2456
    133  N        -24.6310  100.9980   24.2640 N.3   141  ARG141     -0.1231
    134  CA       -23.5610  100.0550   23.9560 C.3   141  ARG141      0.1694
    135  C        -22.6950  100.5540   22.8050 C.2   141  ARG141      0.2592
    136  O        -21.4740  100.3580   22.8110 O.2   141  ARG141     -0.2718
    137  CB       -24.1520   98.6820   23.6350 C.3   141  ARG141      0.0321
    138  CG       -25.3510   98.7210   22.6990 C.3   141  ARG141      0.0489
    139  CD       -25.9230   97.3220   22.4650 C.3   141  ARG141      0.2205
    140  NE       -27.2910   97.3120   21.9380 N.pl3 141  ARG141     -0.0865
    141  CZ       -27.7110   97.9360   20.8380 C.cat 141  ARG141      0.5346
    142  NH1      -28.9850   97.8440   20.4800 N.pl3 141  ARG141      0.1354
    143  NH2      -26.8730   98.6250   20.0740 N.pl3 141  ARG141      0.1354
    144  N        -23.3040  101.2050   21.8130 N.am  142  ASN142     -0.1974
    145  CA       -22.5770  101.7420   20.6700 C.3   142  ASN142      0.1688
    146  C        -21.9220  103.0880   20.9590 C.2   142  ASN142      0.2292
    147  O        -21.5220  103.7840   20.0180 O.2   142  ASN142     -0.2864
    148  CB       -23.5060  101.8600   19.4600 C.3   142  ASN142      0.1181
    149  CG       -24.0370  100.5150   19.0010 C.2   142  ASN142      0.2629
    150  OD1      -23.3760   99.4880   19.1570 O.2   142  ASN142     -0.2716
    151  ND2      -25.2330  100.5160   18.4260 N.am  142  ASN142     -0.0877
    152  N        -18.7190  104.8110   23.0430 N.3   144  LEU144     -0.1245
    153  CA       -17.4550  104.4910   23.6870 C.3   144  LEU144      0.1561
    154  C        -16.9460  105.6820   24.4850 C.2   144  LEU144      0.2260
    155  O        -17.5030  106.7810   24.4400 O.2   144  LEU144     -0.2867
    156  CB       -16.4050  104.0660   22.6600 C.3   144  LEU144      0.0270
    157  CG       -16.8430  103.0470   21.6180 C.3   144  LEU144      0.0019
    158  CD1      -15.7330  102.9040   20.6190 C.3   144  LEU144      0.0001
    159  CD2      -17.1690  101.7120   22.2620 C.3   144  LEU144      0.0001
    160  N        -19.9540  104.7130   17.4490 N.3   154  THR154     -0.1203
    161  CA       -19.4180  103.7250   16.5130 C.3   154  THR154      0.1994
    162  C        -20.5530  102.8490   15.9980 C.2   154  THR154      0.2617
    163  O        -21.7370  103.1920   16.0930 O.2   154  THR154     -0.2717
    164  CB       -18.3270  102.8570   17.1600 C.3   154  THR154      0.1784
    165  OG1      -18.8790  102.1400   18.2730 O.3   154  THR154     -0.2211
    166  CG2      -17.1600  103.6870   17.6050 C.3   154  THR154      0.0376
    167  N        -20.1670  101.6940   15.4500 N.am  155  ASP155     -0.1973
    168  CA       -21.0590  100.6730   14.9110 C.3   155  ASP155      0.1709
    169  C        -22.0490  101.2710   13.9210 C.2   155  ASP155      0.2293
    170  O        -23.2190  101.4890   14.2530 O.2   155  ASP155     -0.2864
    171  CB       -21.7940   99.9450   16.0390 C.3   155  ASP155      0.1436
    172  CG       -22.6360   98.7870   15.5350 C.2   155  ASP155      0.3671
    173  OD1      -22.0810   97.6790   15.3720 O.co2 155  ASP155     -0.2456
    174  OD2      -23.8480   98.9810   15.3060 O.co2 155  ASP155     -0.2456
    175  N        -10.1930   99.1660   32.9960 N.3   296  ASN296     -0.1240
    176  CA       -10.2020   98.9240   31.5560 C.3   296  ASN296      0.1653
    177  C         -9.2000   99.8810   30.9170 C.2   296  ASN296      0.2266
    178  O         -9.5540  100.9670   30.4570 O.2   296  ASN296     -0.2867
    179  CB       -11.6040   99.1050   30.9900 C.3   296  ASN296      0.1155
    180  CG       -11.7710   98.4630   29.6310 C.2   296  ASN296      0.2627
    181  OD1      -12.1290   97.2900   29.5300 O.2   296  ASN296     -0.2716
    182  ND2      -11.5190   99.2300   28.5770 N.am  296  ASN296     -0.0877
@<TRIPOS>BOND
     1    66    64    1
     2    74    72    1
     3    45    46    1
     4    47    46    1
     5    47    48    2
     6    65    64    1
     7    46    49    1
     8    64    63    1
     9    72    73    1
    10    72    71    1
    11    62    61    2
    12    49    50    1
    13    67    68    1
    14    63    60    1
    15    68    71    1
    16    68    69    1
    17    82    80    1
    18    61    60    1
    19    60    59    1
    20    75    69   am
    21    75    76    1
    22    69    70    2
    23    50    51    1
    24    80    79    1
    25    79    76    1
    26    79    81    1
    27    78    77    2
    28    39    38    2
    29    52    51    1
    30    76    77    1
    31    77    83   am
    32    38    37    1
    33    44    43    1
    34    43    42    1
    35    42    41    1
    36    41    40    1
    37    40    37    1
    38    83    84    1
    39    37    36    1
    40   169   170    2
    41   169   168    1
    42    84    87    1
    43    84    85    1
    44    56    55    2
    45    87    88    1
    46    87    89    1
    47    55    54    1
    48   168   167    1
    49   168   171    1
    50    16    15    2
    51    34    33    2
    52    85    86    2
    53    85    90   am
    54   174   172   ar
    55   173   172   ar
    56   167   162   am
    57   172   171    1
    58    90    91    1
    59   162   163    2
    60   162   161    1
    61    33    32    1
    62    15    14    1
    63    54    53    1
    64    54    57    1
    65    17    14    1
    66    17    18    1
    67   161   164    1
    68   161   160    1
    69    19    18   ar
    70    19    21   ar
    71    14    13    1
    72    91    94    1
    73    91    92    1
    74    58    57    1
    75    94    95    1
    76    18    20   ar
    77   164   166    1
    78   164   165    1
    79    97    96    2
    80    31    32    1
    81    21    23   ar
    82    32    35    1
    83    96    95    1
    84    96    98   am
    85    25    24    1
    86    25    26    1
    87    25    28    1
    88    30    28    1
    89    92    93    2
    90    92    99   am
    91    20    22   ar
    92   151   149   am
    93    29    28    1
    94    26    27    2
    95    23    22   ar
    96    99   100    1
    97   149   150    2
    98   149   148    1
    99   148   145    1
   100   147   146    2
   101   143   141    1
   102   100   103    1
   103   100   101    1
   104   114   113    1
   105   142   141    1
   106   158   157    1
   107   103   104    1
   108   145   146    1
   109   145   144    1
   110    12    11    2
   111   141   140    2
   112   101   102    2
   113   101   107   am
   114   113   112    1
   115   157   159    1
   116   157   156    1
   117   112   111    1
   118   144   135   am
   119   107   108    1
   120   105   104    1
   121    11    10    1
   122   140   139    1
   123   104   106    1
   124     7     6    1
   125     1     2    1
   126     5     6    1
   127     5     2    1
   128   139   138    1
   129     6     8    1
   130   156   153    1
   131     9    10    1
   132     9     3   am
   133   138   137    1
   134   135   136    2
   135   135   134    1
   136   111   108    1
   137   108   109    1
   138   152   153    1
   139     2     3    1
   140     3     4    2
   141   137   134    1
   142   153   154    1
   143   134   133    1
   144   109   110    2
   145   155   154    2
   146   123   120    1
   147   123   124    1
   148   118   117    2
   149   120   119    1
   150   120   121    1
   151   117   116    1
   152   117   119   am
   153   116   115    1
   154   121   122    2
   155   132   130   ar
   156   182   180   am
   157   130   131   ar
   158   130   129    1
   159   181   180    2
   160   180   179    1
   161   125   126    1
   162   129   126    1
   163   178   177    2
   164   126   127    1
   165   177   176    1
   166   179   176    1
   167   176   175    1
   168   127   128    2
