@<TRIPOS>MOLECULE
tmp/5jedA01.pdb
 75 69 0 0 0
SMALL
GASTEIGER

@<TRIPOS>ATOM
      1  N         12.2050   -0.5910   10.2130 N.3     7  SER7       -0.1217
      2  CA        12.5200   -1.9850    9.9650 C.3     7  SER7        0.1889
      3  C         11.5420   -2.6050    8.9730 C.2     7  SER7        0.2288
      4  O         10.3480   -2.3410    9.0360 O.2     7  SER7       -0.2866
      5  CB        12.4910   -2.7830   11.2610 C.3     7  SER7        0.2089
      6  OG        12.7220   -4.1690   11.0260 O.3     7  SER7       -0.2183
      7  N         11.0550   -5.8180    9.0630 N.3     9  GLY9       -0.1225
      8  CA        10.7130   -7.0700    9.6940 C.3     9  GLY9        0.1811
      9  C         11.7950   -8.1320    9.5290 C.2     9  GLY9        0.2280
     10  O         11.8080   -9.1160   10.2810 O.2     9  GLY9       -0.2866
     11  N         15.7430   -8.8950    9.6980 N.3    11  LYS11      -0.1245
     12  CA        17.0660   -8.4560   10.1400 C.3    11  LYS11       0.1561
     13  C         18.0840   -8.3960    8.9840 C.2    11  LYS11       0.2260
     14  O         18.8460   -7.4430    8.8850 O.2    11  LYS11      -0.2867
     15  CB        17.5800   -9.3290   11.2990 C.3    11  LYS11       0.0271
     16  CG        16.6470   -9.3110   12.5310 C.3    11  LYS11       0.0035
     17  CD        17.1790  -10.1320   13.6860 C.3    11  LYS11       0.0206
     18  CE        17.1930  -11.6220   13.3750 C.3    11  LYS11       0.1093
     19  NZ        15.9140  -12.1790   12.9660 N.3    11  LYS11      -0.1314
     20  N         17.1930   -5.4860    6.6720 N.3    14  ASP14      -0.1239
     21  CA        17.4880   -4.2430    7.3440 C.3    14  ASP14       0.1674
     22  C         18.9840   -3.9850    7.2720 C.2    14  ASP14       0.2266
     23  O         19.4020   -2.8730    7.0240 O.2    14  ASP14      -0.2867
     24  CB        17.0760   -4.3240    8.8030 C.3    14  ASP14       0.1410
     25  CG        15.6040   -4.2240    9.0180 C.2    14  ASP14       0.3668
     26  OD1       14.8210   -3.9750    8.0500 O.co2  14  ASP14      -0.2456
     27  OD2       15.1900   -4.3820   10.2000 O.co2  14  ASP14      -0.2456
     28  N          5.0810   -1.9420   10.7530 N.3    47  MET47      -0.1245
     29  CA         6.3250   -1.7240   11.5060 C.3    47  MET47       0.1570
     30  C          6.5350   -0.2720   11.8560 C.2    47  MET47       0.2261
     31  O          7.0450    0.0470   12.9340 O.2    47  MET47      -0.2867
     32  CB         7.5480   -2.2120   10.7310 C.3    47  MET47       0.0387
     33  CG         7.5740   -3.6910   10.4240 C.3    47  MET47       0.0595
     34  SD         7.5630   -4.7390   11.8550 S.3    47  MET47      -0.1393
     35  CE         9.1680   -4.3850   12.5460 C.3    47  MET47       0.0692
     36  N         10.9090    2.8820   18.3690 N.3    52  PRO52      -0.2102
     37  CA        12.2250    2.6320   17.7940 C.3    52  PRO52       0.1504
     38  C         12.8840    1.3270   18.2080 C.2    52  PRO52       0.2576
     39  O         13.4810    0.6450   17.4000 O.2    52  PRO52      -0.2718
     40  CB        13.0260    3.8540   18.2270 C.3    52  PRO52       0.0282
     41  CG        12.0230    4.9270   18.2960 C.3    52  PRO52       0.0208
     42  CD        10.7860    4.2790   18.8350 C.3    52  PRO52       0.0893
     43  N         12.8170    1.0030   19.4970 N.am   53  GLU53      -0.1966
     44  CA        13.4280   -0.2470   19.9590 C.3    53  GLU53       0.1733
     45  C         12.8610   -1.4970   19.2790 C.2    53  GLU53       0.2616
     46  O         13.5290   -2.5430   19.2390 O.2    53  GLU53      -0.2715
     47  CB        13.3580   -0.3610   21.5010 C.3    53  GLU53       0.0429
     48  CG        11.9460   -0.2530   22.0630 C.3    53  GLU53       0.1163
     49  CD        11.5500    1.1740   22.4890 C.2    53  GLU53       0.3649
     50  OE1       11.9860    2.1960   21.8350 O.co2  53  GLU53      -0.2457
     51  OE2       10.7640    1.2530   23.4670 O.co2  53  GLU53      -0.2457
     52  N         11.6430   -1.3790   18.7320 N.am   54  GLU54      -0.1963
     53  CA        10.9750   -2.4650   18.0570 C.3    54  GLU54       0.1733
     54  C         10.9560   -2.3340   16.5250 C.2    54  GLU54       0.2616
     55  O         10.3550   -3.1870   15.8420 O.2    54  GLU54      -0.2715
     56  CB         9.5590   -2.6190   18.6300 C.3    54  GLU54       0.0429
     57  CG         9.5320   -3.0530   20.0930 C.3    54  GLU54       0.1163
     58  CD         8.1210   -3.3810   20.5470 C.2    54  GLU54       0.3649
     59  OE1        7.3230   -2.4390   20.7130 O.co2  54  GLU54      -0.2457
     60  OE2        7.7920   -4.5750   20.7300 O.co2  54  GLU54      -0.2457
     61  N         11.6480   -1.3250   15.9900 N.am   55  GLY55      -0.1955
     62  CA        11.8080   -1.1890   14.5720 C.3    55  GLY55       0.1869
     63  C         10.9540   -0.1330   13.9150 C.2    55  GLY55       0.2309
     64  O         11.0050   -0.0090   12.7070 O.2    55  GLY55      -0.2863
     65  N          2.1200  -10.1190   15.4220 N.3    82  ARG82      -0.1245
     66  CA         3.1410   -9.3330   16.0830 C.3    82  ARG82       0.1563
     67  C          2.7070   -8.8000   17.4570 C.2    82  ARG82       0.2260
     68  O          3.4240   -8.0160   18.0640 O.2    82  ARG82      -0.2867
     69  CB         3.6180   -8.2150   15.1630 C.3    82  ARG82       0.0307
     70  CG         4.4620   -8.7290   14.0180 C.3    82  ARG82       0.0489
     71  CD         4.9180   -7.6270   13.0680 C.3    82  ARG82       0.2205
     72  NE         5.7310   -8.1660   11.9830 N.pl3  82  ARG82      -0.0865
     73  CZ         7.0420   -8.4100   12.0090 C.cat  82  ARG82       0.5346
     74  NH1        7.7690   -8.1280   13.0900 N.pl3  82  ARG82       0.1354
     75  NH2        7.6430   -8.9350   10.9440 N.pl3  82  ARG82       0.1354
@<TRIPOS>BOND
     1    20    21    1
     2    23    22    2
     3    22    21    1
     4    21    24    1
     5    26    25   ar
     6    24    25    1
     7    14    13    2
     8     3     4    2
     9     3     2    1
    10    13    12    1
    11    25    27   ar
    12     7     8    1
    13     9     8    1
    14     9    10    2
    15    11    12    1
    16     2     1    1
    17     2     5    1
    18    12    15    1
    19    33    32    1
    20    33    34    1
    21    32    29    1
    22    28    29    1
    23    75    73    1
    24     6     5    1
    25    15    16    1
    26    29    30    1
    27    34    35    1
    28    30    31    2
    29    72    73    2
    30    72    71    1
    31    73    74    1
    32    16    17    1
    33    64    63    2
    34    19    18    1
    35    71    70    1
    36    18    17    1
    37    63    62    1
    38    70    69    1
    39    62    61    1
    40    69    66    1
    41    65    66    1
    42    55    54    2
    43    61    54   am
    44    66    67    1
    45    54    53    1
    46    39    38    2
    47    67    68    2
    48    37    38    1
    49    37    40    1
    50    37    36    1
    51    53    56    1
    52    53    52    1
    53    38    43   am
    54    40    41    1
    55    41    42    1
    56    36    42    1
    57    56    57    1
    58    52    45   am
    59    46    45    2
    60    45    44    1
    61    43    44    1
    62    44    47    1
    63    57    58    1
    64    58    59   ar
    65    58    60   ar
    66    47    48    1
    67    50    49   ar
    68    48    49    1
    69    49    51   ar
