@<TRIPOS>MOLECULE
tmp/5jedA00.pdb
 106 97 0 0 0
SMALL
GASTEIGER

@<TRIPOS>ATOM
      1  N         12.5950    2.4850   -3.6890 N.3    28  GLU28      -0.1245
      2  CA        11.8600    1.9030   -4.8220 C.3    28  GLU28       0.1567
      3  C         12.1920    0.4450   -4.8980 C.2    28  GLU28       0.2260
      4  O         13.3460    0.0860   -5.1900 O.2    28  GLU28      -0.2867
      5  CB        12.2760    2.5880   -6.1340 C.3    28  GLU28       0.0388
      6  CG        11.7060    1.9720   -7.4160 C.3    28  GLU28       0.1160
      7  CD        12.2660    2.5980   -8.6970 C.2    28  GLU28       0.3649
      8  OE1       13.2510    3.3830   -8.6610 O.co2  28  GLU28      -0.2457
      9  OE2       11.7040    2.2680   -9.7870 O.co2  28  GLU28      -0.2457
     10  N          4.0200    2.7800   -8.3760 N.3   133  LEU133     -0.1231
     11  CA         4.4300    4.0810   -8.8490 C.3   133  LEU133      0.1693
     12  C          3.9650    4.2640  -10.3190 C.2   133  LEU133      0.2592
     13  O          3.4960    5.3340  -10.6930 O.2   133  LEU133     -0.2718
     14  CB         5.9590    4.2150   -8.7490 C.3   133  LEU133      0.0284
     15  CG         6.6330    5.4250   -9.3480 C.3   133  LEU133      0.0019
     16  CD1        6.3850    6.6540   -8.5090 C.3   133  LEU133      0.0001
     17  CD2        8.1110    5.1790   -9.4060 C.3   133  LEU133      0.0001
     18  N          4.1520    3.2140  -11.1180 N.am  134  THR134     -0.1953
     19  CA         4.1910    3.3360  -12.5760 C.3   134  THR134      0.1897
     20  C          2.9860    2.8060  -13.3150 C.2   134  THR134      0.2313
     21  O          2.8460    3.1210  -14.4970 O.2   134  THR134     -0.2863
     22  CB         5.4420    2.5920  -13.0780 C.3   134  THR134      0.1794
     23  OG1        5.4660    1.2870  -12.4900 O.3   134  THR134     -0.2208
     24  CG2        6.6990    3.3470  -12.7270 C.3   134  THR134      0.0378
     25  N          1.9510    3.9180  -17.2460 N.3   138  ARG138     -0.1245
     26  CA         2.1170    2.9740  -18.3380 C.3   138  ARG138      0.1563
     27  C          0.8270    2.6860  -19.0680 C.2   138  ARG138      0.2260
     28  O          0.8570    2.5160  -20.2730 O.2   138  ARG138     -0.2867
     29  CB         2.7210    1.6660  -17.8640 C.3   138  ARG138      0.0307
     30  CG         4.1590    1.8850  -17.4170 C.3   138  ARG138      0.0489
     31  CD         4.7010    0.6230  -16.8600 C.3   138  ARG138      0.2205
     32  NE         6.0550    0.8090  -16.3590 N.pl3 138  ARG138     -0.0865
     33  CZ         6.6270    0.0180  -15.4620 C.cat 138  ARG138      0.5346
     34  NH1        7.8760    0.2680  -15.0580 N.pl3 138  ARG138      0.1354
     35  NH2        5.9650   -1.0180  -14.9420 N.pl3 138  ARG138      0.1354
     36  N          5.7340   11.4370  -14.8390 N.3   154  LEU154     -0.1245
     37  CA         6.3600   10.6160  -13.8030 C.3   154  LEU154      0.1561
     38  C          7.4260   11.4230  -13.0750 C.2   154  LEU154      0.2260
     39  O          7.4960   11.3480  -11.8570 O.2   154  LEU154     -0.2867
     40  CB         6.9600    9.3560  -14.3860 C.3   154  LEU154      0.0270
     41  CG         7.4940    8.3510  -13.4090 C.3   154  LEU154      0.0019
     42  CD1        6.4620    7.9780  -12.3490 C.3   154  LEU154      0.0001
     43  CD2        7.9300    7.1320  -14.1850 C.3   154  LEU154      0.0001
     44  N          7.5120   12.1420   -9.0300 N.3   158  LEU158     -0.1245
     45  CA         8.6570   11.8560   -8.2010 C.3   158  LEU158      0.1561
     46  C          9.1770   13.0940   -7.5100 C.2   158  LEU158      0.2260
     47  O          9.5700   13.0080   -6.3140 O.2   158  LEU158     -0.2867
     48  CB         9.7540   11.2110   -9.0260 C.3   158  LEU158      0.0270
     49  CG         9.5090    9.7590   -9.3720 C.3   158  LEU158      0.0019
     50  CD1       10.3170    9.3710  -10.5910 C.3   158  LEU158      0.0001
     51  CD2        9.8290    8.8620   -8.1760 C.3   158  LEU158      0.0001
     52  N          7.4250   -0.9790   -8.1830 N.3   176  ASN176     -0.1240
     53  CA         7.4930   -0.8550   -9.6440 C.3   176  ASN176      0.1653
     54  C          7.6330   -2.2370  -10.2460 C.2   176  ASN176      0.2266
     55  O          8.6010   -2.9080  -10.0110 O.2   176  ASN176     -0.2867
     56  CB         8.7100    0.0190   -9.9650 C.3   176  ASN176      0.1155
     57  CG         8.8800    0.3380  -11.4430 C.2   176  ASN176      0.2627
     58  OD1        8.0150    0.0650  -12.2700 O.2   176  ASN176     -0.2716
     59  ND2       10.0260    0.8980  -11.7840 N.am  176  ASN176     -0.0877
     60  N         17.5320   -1.1830  -13.6400 N.3   185  ILE185     -0.1245
     61  CA        16.7390   -0.2800  -14.4380 C.3   185  ILE185      0.1561
     62  C         17.7540    0.6810  -15.0510 C.2   185  ILE185      0.2260
     63  O         18.6480    1.1870  -14.3540 O.2   185  ILE185     -0.2867
     64  CB        15.7640    0.4880  -13.5120 C.3   185  ILE185      0.0252
     65  CG1       14.6970   -0.4700  -12.9690 C.3   185  ILE185      0.0019
     66  CG2       15.1650    1.6780  -14.2530 C.3   185  ILE185      0.0019
     67  CD1       13.8350    0.1210  -11.8720 C.3   185  ILE185      0.0001
     68  N         17.1790    3.6900  -16.5400 N.3   187  ALA187     -0.1231
     69  CA        16.8770    5.0950  -16.2470 C.3   187  ALA187      0.1694
     70  C         17.4690    5.5040  -14.8920 C.2   187  ALA187      0.2592
     71  O         17.2380    4.8430  -13.8920 O.2   187  ALA187     -0.2718
     72  CB        15.3770    5.3460  -16.2470 C.3   187  ALA187      0.0304
     73  N         18.2410    6.5870  -14.8650 N.am  188  HIS188     -0.1962
     74  CA        18.8350    7.0760  -13.6120 C.3   188  HIS188      0.1787
     75  C         17.7770    7.7380  -12.7380 C.2   188  HIS188      0.2620
     76  O         16.9010    8.4230  -13.2400 O.2   188  HIS188     -0.2715
     77  CB        19.9490    8.0790  -13.9060 C.3   188  HIS188      0.0785
     78  CG        21.1050    7.4990  -14.6600 C.ar  188  HIS188      0.0821
     79  ND1       21.7980    6.3940  -14.2200 N.ar  188  HIS188     -0.2267
     80  CD2       21.7080    7.8860  -15.8090 C.ar  188  HIS188      0.1154
     81  CE1       22.7670    6.1170  -15.0710 C.ar  188  HIS188      0.1986
     82  NE2       22.7330    7.0040  -16.0470 N.ar  188  HIS188     -0.2212
     83  N         17.8850    7.5570  -11.4250 N.am  189  SER189     -0.1950
     84  CA        16.9360    8.1400  -10.4610 C.3   189  SER189      0.1924
     85  C         17.6450    8.5820   -9.2170 C.2   189  SER189      0.2314
     86  O         18.8100    8.2480   -9.0080 O.2   189  SER189     -0.2863
     87  CB        15.8600    7.1260  -10.0420 C.3   189  SER189      0.2116
     88  OG        16.4000    6.1610   -9.1320 O.3   189  SER189     -0.2180
     89  N         16.0560    7.5660   -6.3830 N.3   191  THR191     -0.1218
     90  CA        15.4470    6.6120   -5.5030 C.3   191  THR191      0.1862
     91  C         16.5420    5.6520   -5.0590 C.2   191  THR191      0.2287
     92  O         17.5600    5.4620   -5.7340 O.2   191  THR191     -0.2866
     93  CB        14.2830    5.8650   -6.1800 C.3   191  THR191      0.1770
     94  OG1       14.7950    5.1110   -7.2910 O.3   191  THR191     -0.2211
     95  CG2       13.2180    6.8480   -6.6780 C.3   191  THR191      0.0375
     96  N         17.1560    2.0070   -4.8630 N.3   193  ARG193     -0.1245
     97  CA        16.5800    0.8950   -5.5900 C.3   193  ARG193      0.1563
     98  C         16.9150   -0.4590   -4.9990 C.2   193  ARG193      0.2260
     99  O         18.0750   -0.7670   -4.7370 O.2   193  ARG193     -0.2867
    100  CB        17.0130    0.9050   -7.0380 C.3   193  ARG193      0.0307
    101  CG        16.2130    1.9190   -7.8070 C.3   193  ARG193      0.0489
    102  CD        16.6470    1.9300   -9.2210 C.3   193  ARG193      0.2205
    103  NE        15.7950    2.8080  -10.0100 N.pl3 193  ARG193     -0.0865
    104  CZ        16.2160    3.4160  -11.1090 C.cat 193  ARG193      0.5346
    105  NH1       15.3740    4.1830  -11.7900 N.pl3 193  ARG193      0.1354
    106  NH2       17.4640    3.2530  -11.5350 N.pl3 193  ARG193      0.1354
@<TRIPOS>BOND
     1    28    27    2
     2    27    26    1
     3    26    29    1
     4    26    25    1
     5    29    30    1
     6    30    31    1
     7    31    32    1
     8    68    69    1
     9    32    33    2
    10    72    69    1
    11    69    70    1
    12    82    80   ar
    13    82    81   ar
    14    80    78   ar
    15    33    34    1
    16    33    35    1
    17    81    79   ar
    18    62    61    1
    19    62    63    2
    20    70    73   am
    21    70    71    2
    22    73    74    1
    23    36    37    1
    24    78    79   ar
    25    78    77    1
    26    21    20    2
    27    61    60    1
    28    61    64    1
    29    40    37    1
    30    40    41    1
    31    66    64    1
    32    43    41    1
    33    77    74    1
    34    37    38    1
    35    74    75    1
    36    64    65    1
    37    41    42    1
    38    20    19    1
    39    76    75    2
    40    22    24    1
    41    22    19    1
    42    22    23    1
    43    38    39    2
    44    65    67    1
    45    75    83   am
    46    19    18    1
    47    58    57    2
    48   105   104    1
    49    59    57   am
    50   106   104    1
    51    57    56    1
    52    83    84    1
    53    18    12   am
    54   104   103    2
    55    13    12    2
    56    50    49    1
    57    84    87    1
    58    84    85    1
    59    12    11    1
    60    54    55    2
    61    54    53    1
    62    87    88    1
    63   103   102    1
    64    56    53    1
    65     9     7   ar
    66    53    52    1
    67    17    15    1
    68    49    48    1
    69    49    51    1
    70    15    14    1
    71    15    16    1
    72   102   101    1
    73    85    86    2
    74    44    45    1
    75    48    45    1
    76    11    14    1
    77    11    10    1
    78     7     8   ar
    79     7     6    1
    80    45    46    1
    81   101   100    1
    82    46    47    2
    83     6     5    1
    84    94    93    1
    85   100    97    1
    86    95    93    1
    87    89    90    1
    88    93    90    1
    89     5     2    1
    90    92    91    2
    91    97    98    1
    92    97    96    1
    93    90    91    1
    94     4     3    2
    95    98    99    2
    96     3     2    1
    97     2     1    1
