@<TRIPOS>MOLECULE
tmp/5jeiA05.pdb
 73 69 0 0 0
SMALL
GASTEIGER

@<TRIPOS>ATOM
      1  N        139.7070   62.1130   77.4330 N.3     3  ASN3       -0.1225
      2  CA       139.8880   62.2570   76.0000 C.3     3  ASN3        0.1785
      3  C        141.1420   61.5100   75.5710 C.2     3  ASN3        0.2597
      4  O        142.1310   61.4740   76.2960 O.2     3  ASN3       -0.2718
      5  CB       140.0240   63.7360   75.6110 C.3     3  ASN3        0.1169
      6  CG       138.7750   64.5420   75.9100 C.2     3  ASN3        0.2627
      7  OD1      137.6510   64.0440   75.7890 O.2     3  ASN3       -0.2716
      8  ND2      138.9640   65.8050   76.2960 N.am    3  ASN3       -0.0877
      9  N        141.1070   60.9120   74.3930 N.am    4  LYS4       -0.1980
     10  CA       142.2080   60.0910   73.9280 C.3     4  LYS4        0.1596
     11  C        142.2580   60.0830   72.4230 C.2     4  LYS4        0.2287
     12  O        141.2200   60.0040   71.7760 O.2     4  LYS4       -0.2864
     13  CB       141.9900   58.6610   74.4200 C.3     4  LYS4        0.0298
     14  CG       143.1020   57.7440   74.0920 C.3     4  LYS4        0.0038
     15  CD       142.9700   56.3870   74.7620 C.3     4  LYS4        0.0206
     16  CE       144.1880   55.5710   74.4260 C.3     4  LYS4        0.1093
     17  NZ       144.2040   54.2540   75.0330 N.3     4  LYS4       -0.1314
     18  N        142.4570   58.2700   69.0870 N.3     6  VAL6       -0.1245
     19  CA       142.1350   56.9180   68.6310 C.3     6  VAL6        0.1561
     20  C        143.2360   56.3990   67.7230 C.2     6  VAL6        0.2260
     21  O        143.5980   57.0480   66.7520 O.2     6  VAL6       -0.2867
     22  CB       140.7870   57.0000   67.8850 C.3     6  VAL6        0.0252
     23  CG1      140.4520   55.7080   67.1660 C.3     6  VAL6        0.0019
     24  CG2      139.6690   57.3840   68.8830 C.3     6  VAL6        0.0019
     25  N        131.8890   61.1240   64.7780 N.3    47  CYS47      -0.1221
     26  CA       131.9820   60.5090   66.1040 C.3    47  CYS47       0.1808
     27  C        132.7390   61.3320   67.1350 C.2    47  CYS47       0.2602
     28  O        132.8140   60.9400   68.3130 O.2    47  CYS47      -0.2717
     29  CB       132.6200   59.1340   66.0070 C.3    47  CYS47       0.0970
     30  SG       131.7440   57.9520   64.9930 S.3    47  CYS47      -0.0800
     31  N        133.3020   62.4530   66.7100 N.am   48  GLY48      -0.1942
     32  CA       133.9150   63.3990   67.6190 C.3    48  GLY48       0.2014
     33  C        135.2330   62.9540   68.2220 C.2    48  GLY48       0.2638
     34  O        135.4950   63.1960   69.4070 O.2    48  GLY48      -0.2714
     35  N        136.0860   62.3280   67.4270 N.am   49  PHE49      -0.1973
     36  CA       137.3850   61.9410   67.9180 C.3    49  PHE49       0.1639
     37  C        138.5290   62.4220   67.0650 C.2    49  PHE49       0.2290
     38  O        138.3990   62.6110   65.8640 O.2    49  PHE49      -0.2864
     39  CB       137.4950   60.4240   68.2110 C.3    49  PHE49       0.0560
     40  CG       137.3180   59.4920   67.0170 C.ar   49  PHE49      -0.0200
     41  CD1      138.3340   59.2910   66.0920 C.ar   49  PHE49      -0.0042
     42  CD2      136.1610   58.7530   66.8910 C.ar   49  PHE49      -0.0042
     43  CE1      138.1730   58.3960   65.0420 C.ar   49  PHE49      -0.0003
     44  CE2      135.9860   57.8570   65.8290 C.ar   49  PHE49      -0.0003
     45  CZ       136.9830   57.6780   64.9170 C.ar   49  PHE49      -0.0000
     46  N        142.6120   50.9070   68.4110 N.3    84  ASP84      -0.1239
     47  CA       141.2290   51.1070   68.8320 C.3    84  ASP84       0.1674
     48  C        140.2250   50.8160   67.7110 C.2    84  ASP84       0.2266
     49  O        139.0500   50.5240   67.9730 O.2    84  ASP84      -0.2867
     50  CB       141.0350   52.5460   69.2940 C.3    84  ASP84       0.1410
     51  CG       141.9040   52.8800   70.4670 C.2    84  ASP84       0.3668
     52  OD1      141.6880   52.2800   71.5390 O.co2  84  ASP84      -0.2456
     53  OD2      142.8130   53.7260   70.3130 O.co2  84  ASP84      -0.2456
     54  N        133.9320   46.8520   72.3530 N.3   228  SER228     -0.1202
     55  CA       134.2750   48.2630   72.4680 C.3   228  SER228      0.2020
     56  C        133.0600   49.1560   72.2700 C.2   228  SER228      0.2619
     57  O        132.2950   48.9650   71.3170 O.2   228  SER228     -0.2717
     58  CB       135.2930   48.6430   71.4020 C.3   228  SER228      0.2103
     59  OG       135.4570   50.0540   71.3660 O.3   228  SER228     -0.2182
     60  N        132.8900   50.1440   73.1360 N.am  229  SER229     -0.1937
     61  CA       131.7820   51.0760   72.9850 C.3   229  SER229      0.2055
     62  C        131.8620   51.8950   71.7040 C.2   229  SER229      0.2642
     63  O        130.8390   52.3860   71.2360 O.2   229  SER229     -0.2714
     64  CB       131.6910   52.0160   74.1800 C.3   229  SER229      0.2130
     65  OG       132.7630   52.9200   74.1480 O.3   229  SER229     -0.2179
     66  N        133.0580   52.0100   71.1180 N.am  230  LEU230     -0.1977
     67  CA       133.2640   52.8280   69.9220 C.3   230  LEU230      0.1596
     68  C        132.5070   52.2380   68.7360 C.2   230  LEU230      0.2287
     69  O        132.1160   52.9620   67.8080 O.2   230  LEU230     -0.2864
     70  CB       134.7660   52.9220   69.6200 C.3   230  LEU230      0.0297
     71  CG       135.1890   53.9020   68.5450 C.3   230  LEU230      0.0022
     72  CD1      134.7110   55.3010   68.8580 C.3   230  LEU230      0.0001
     73  CD2      136.7250   53.8670   68.4640 C.3   230  LEU230      0.0001
@<TRIPOS>BOND
     1    25    26    1
     2    45    43   ar
     3    45    44   ar
     4    30    29    1
     5    43    41   ar
     6    44    42   ar
     7    38    37    2
     8    29    26    1
     9    41    40   ar
    10    26    27    1
    11    31    27   am
    12    31    32    1
    13    21    20    2
    14    42    40   ar
    15    40    39    1
    16    37    36    1
    17    27    28    2
    18    23    22    1
    19    35    36    1
    20    35    33   am
    21    32    33    1
    22    48    49    2
    23    48    47    1
    24    20    19    1
    25    69    68    2
    26    22    19    1
    27    22    24    1
    28    36    39    1
    29    33    34    2
    30    46    47    1
    31    73    71    1
    32    71    72    1
    33    71    70    1
    34    19    18    1
    35    68    67    1
    36    47    50    1
    37    50    51    1
    38    70    67    1
    39    67    66    1
    40    53    51   ar
    41    51    52   ar
    42    66    62   am
    43    63    62    2
    44    57    56    2
    45    59    58    1
    46    58    55    1
    47    62    61    1
    48    12    11    2
    49    56    55    1
    50    56    60   am
    51    54    55    1
    52    11    10    1
    53    61    60    1
    54    61    64    1
    55    10     9    1
    56    10    13    1
    57    14    13    1
    58    14    15    1
    59    65    64    1
    60     9     3   am
    61    16    15    1
    62    16    17    1
    63     3     2    1
    64     3     4    2
    65     5     6    1
    66     5     2    1
    67     7     6    2
    68     6     8   am
    69     2     1    1
