@<TRIPOS>MOLECULE
tmp/5jeiA08.pdb
 87 86 0 0 0
SMALL
GASTEIGER

@<TRIPOS>ATOM
      1  N        141.4070   23.8290   33.1060 N.3   130  GLN130     -0.1231
      2  CA       142.5380   23.8540   32.1840 C.3   130  GLN130      0.1698
      3  C        143.8410   23.7940   32.9760 C.2   130  GLN130      0.2593
      4  O        143.8320   23.9400   34.2000 O.2   130  GLN130     -0.2718
      5  CB       142.4700   25.0910   31.2790 C.3   130  GLN130      0.0381
      6  CG       142.4040   26.3970   32.0390 C.3   130  GLN130      0.0905
      7  CD       143.7610   26.8480   32.5610 C.2   130  GLN130      0.2608
      8  OE1      144.7330   26.8890   31.8160 O.2   130  GLN130     -0.2717
      9  NE2      143.8320   27.2070   33.8440 N.am  130  GLN130     -0.0878
     10  N        144.9630   23.5690   32.2930 N.am  131  THR131     -0.1939
     11  CA       146.2300   23.3440   32.9890 C.3   131  THR131      0.2028
     12  C        147.3870   24.1490   32.4100 C.2   131  THR131      0.2642
     13  O        148.5410   23.9110   32.7440 O.2   131  THR131     -0.2714
     14  CB       146.6100   21.8490   32.9620 C.3   131  THR131      0.1808
     15  OG1      146.6100   21.3850   31.6050 O.3   131  THR131     -0.2208
     16  CG2      145.6180   21.0320   33.7710 C.3   131  THR131      0.0379
     17  N        147.0790   25.1110   31.5550 N.am  132  GLU132     -0.1963
     18  CA       148.1180   25.9130   30.9380 C.3   132  GLU132      0.1733
     19  C        148.3680   27.1980   31.7230 C.2   132  GLU132      0.2616
     20  O        149.4790   27.7130   31.7460 O.2   132  GLU132     -0.2715
     21  CB       147.7100   26.2470   29.5050 C.3   132  GLU132      0.0429
     22  CG       148.6840   27.1180   28.7400 C.3   132  GLU132      0.1163
     23  CD       149.9700   26.3990   28.3660 C.2   132  GLU132      0.3649
     24  OE1      149.9630   25.1420   28.3210 O.co2 132  GLU132     -0.2457
     25  OE2      150.9880   27.0940   28.1160 O.co2 132  GLU132     -0.2457
     26  N        147.3190   27.7210   32.3520 N.am  133  ILE133     -0.1963
     27  CA       147.3690   29.0320   32.9860 C.3   133  ILE133      0.1727
     28  C        147.3250   28.7910   34.4920 C.2   133  ILE133      0.2616
     29  O        146.3590   28.2330   34.9940 O.2   133  ILE133     -0.2715
     30  CB       146.1750   29.9090   32.5250 C.3   133  ILE133      0.0290
     31  CG1      146.2080   30.1120   30.9930 C.3   133  ILE133      0.0022
     32  CG2      146.1500   31.2500   33.2570 C.3   133  ILE133      0.0023
     33  CD1      144.8700   30.5240   30.3880 C.3   133  ILE133      0.0001
     34  N        148.3800   29.2060   35.1890 N.am  134  ALA134     -0.1963
     35  CA       148.4260   29.1160   36.6570 C.3   134  ALA134      0.1728
     36  C        147.5980   30.2370   37.2540 C.2   134  ALA134      0.2616
     37  O        147.2880   31.2300   36.5830 O.2   134  ALA134     -0.2715
     38  CB       149.8490   29.2210   37.1360 C.3   134  ALA134      0.0334
     39  N        147.2060   30.0800   38.5130 N.am  135  TYR135     -0.1974
     40  CA       146.4380   31.1120   39.1960 C.3   135  TYR135      0.1639
     41  C        146.6080   30.9610   40.6910 C.2   135  TYR135      0.2290
     42  O        146.8210   29.8490   41.1940 O.2   135  TYR135     -0.2864
     43  CB       144.9450   31.0600   38.7760 C.3   135  TYR135      0.0560
     44  CG       144.2960   29.7010   38.9330 C.ar  135  TYR135     -0.0198
     45  CD1      144.3160   28.7580   37.9010 C.ar  135  TYR135     -0.0009
     46  CD2      143.6240   29.3610   40.1020 C.ar  135  TYR135     -0.0009
     47  CE1      143.6790   27.5140   38.0490 C.ar  135  TYR135      0.0417
     48  CE2      143.0310   28.1500   40.2620 C.ar  135  TYR135      0.0417
     49  CZ       143.0250   27.2330   39.2510 C.ar  135  TYR135      0.1957
     50  OH       142.4050   26.0180   39.4680 O.3   135  TYR135     -0.2866
     51  N        144.3490   22.5250   43.7790 N.3   161  TYR161     -0.1241
     52  CA       145.4190   22.8910   42.8530 C.3   161  TYR161      0.1605
     53  C        146.3510   23.9600   43.4590 C.2   161  TYR161      0.2264
     54  O        147.5730   23.7870   43.5070 O.2   161  TYR161     -0.2867
     55  CB       144.8550   23.3510   41.4980 C.3   161  TYR161      0.0534
     56  CG       145.8110   24.2740   40.7800 C.ar  161  TYR161     -0.0201
     57  CD1      146.9670   23.8050   40.1840 C.ar  161  TYR161     -0.0009
     58  CD2      145.5770   25.6280   40.7670 C.ar  161  TYR161     -0.0009
     59  CE1      147.8720   24.6700   39.5900 C.ar  161  TYR161      0.0417
     60  CE2      146.4570   26.5040   40.1810 C.ar  161  TYR161      0.0417
     61  CZ       147.6170   26.0230   39.5900 C.ar  161  TYR161      0.1957
     62  OH       148.4970   26.9210   39.0110 O.3   161  TYR161     -0.2866
     63  N        153.4160   24.6210   41.8840 N.3   166  GLU166     -0.1231
     64  CA       154.8350   24.9390   41.8940 C.3   166  GLU166      0.1684
     65  C        155.2150   25.5450   40.5430 C.2   166  GLU166      0.2434
     66  O        154.9180   24.9520   39.5000 O.2   166  GLU166     -0.2733
     67  CB       155.6840   23.7020   42.1730 C.3   166  GLU166      0.0402
     68  CG       155.3630   23.0960   43.5110 C.3   166  GLU166      0.1161
     69  CD       156.1790   21.8730   43.8420 C.2   166  GLU166      0.3649
     70  OE1      156.7570   21.2470   42.9380 O.co2 166  GLU166     -0.2457
     71  OE2      156.2620   21.5440   45.0380 O.co2 166  GLU166     -0.2457
     72  N        155.8680   26.7190   40.5480 N.am  167  PRO167     -0.2729
     73  CA       156.2270   27.5150   41.7200 C.3   167  PRO167      0.1401
     74  C        154.9940   28.0670   42.4320 C.2   167  PRO167      0.2269
     75  O        153.8990   28.0780   41.8720 O.2   167  PRO167     -0.2865
     76  CB       157.0580   28.6560   41.1400 C.3   167  PRO167      0.0296
     77  CG       156.6550   28.7390   39.7090 C.3   167  PRO167      0.0237
     78  CD       156.3060   27.3420   39.2890 C.3   167  PRO167      0.0939
     79  N        150.0090   33.5470   31.1610 N.3   187  LYS187     -0.1245
     80  CA       150.1070   32.2410   31.8090 C.3   187  LYS187      0.1561
     81  C        149.8590   32.2800   33.3130 C.2   187  LYS187      0.2260
     82  O        150.0480   31.2700   33.9870 O.2   187  LYS187     -0.2867
     83  CB       151.4520   31.5830   31.5040 C.3   187  LYS187      0.0271
     84  CG       151.7630   31.4540   30.0180 C.3   187  LYS187      0.0035
     85  CD       150.7290   30.6290   29.2740 C.3   187  LYS187      0.0206
     86  CE       151.0480   30.5230   27.7860 C.3   187  LYS187      0.1093
     87  NZ       149.9620   29.7910   27.0950 N.3   187  LYS187     -0.1314
@<TRIPOS>BOND
     1    87    86    1
     2    86    85    1
     3    25    23   ar
     4    24    23   ar
     5    23    22    1
     6    22    21    1
     7    85    84    1
     8    21    18    1
     9    84    83    1
    10    33    31    1
    11    18    17    1
    12    18    19    1
    13    31    30    1
    14    79    80    1
    15     5     6    1
    16     5     2    1
    17    83    80    1
    18    17    12   am
    19    15    14    1
    20    19    20    2
    21    19    26   am
    22    80    81    1
    23     8     7    2
    24     6     7    1
    25     2     3    1
    26     2     1    1
    27    10     3   am
    28    10    11    1
    29    26    27    1
    30    12    13    2
    31    12    11    1
    32    30    27    1
    33    30    32    1
    34     7     9   am
    35    14    11    1
    36    14    16    1
    37     3     4    2
    38    27    28    1
    39    81    82    2
    40    28    29    2
    41    28    34   am
    42    34    35    1
    43    37    36    2
    44    35    38    1
    45    35    36    1
    46    36    39   am
    47    45    47   ar
    48    45    44   ar
    49    47    49   ar
    50    39    40    1
    51    43    44    1
    52    43    40    1
    53    44    46   ar
    54    62    61    1
    55    40    41    1
    56    49    50    1
    57    49    48   ar
    58    78    77    1
    59    78    72    1
    60    66    65    2
    61    59    61   ar
    62    59    57   ar
    63    61    60   ar
    64    77    76    1
    65    46    48   ar
    66    60    58   ar
    67    57    56   ar
    68    65    72   am
    69    65    64    1
    70    72    73    1
    71    41    42    2
    72    58    56   ar
    73    56    55    1
    74    76    73    1
    75    55    52    1
    76    73    74    1
    77    75    74    2
    78    63    64    1
    79    64    67    1
    80    67    68    1
    81    52    53    1
    82    52    51    1
    83    70    69   ar
    84    53    54    2
    85    68    69    1
    86    69    71   ar
