@<TRIPOS>MOLECULE
tmp/5jeiA02.pdb
 86 84 0 0 0
SMALL
GASTEIGER

@<TRIPOS>ATOM
      1  N        140.8210   56.3580   49.6200 N.3    35  TYR35      -0.1241
      2  CA       139.4450   56.1880   50.0230 C.3    35  TYR35       0.1605
      3  C        139.3020   56.0380   51.5490 C.2    35  TYR35       0.2264
      4  O        138.4330   56.6600   52.1630 O.2    35  TYR35      -0.2867
      5  CB       138.8290   54.9790   49.2860 C.3    35  TYR35       0.0534
      6  CG       137.4180   54.6340   49.7080 C.ar   35  TYR35      -0.0201
      7  CD1      137.1670   53.9730   50.9300 C.ar   35  TYR35      -0.0009
      8  CD2      136.3230   54.9450   48.9180 C.ar   35  TYR35      -0.0009
      9  CE1      135.9040   53.6680   51.3130 C.ar   35  TYR35       0.0417
     10  CE2      135.0430   54.6140   49.3150 C.ar   35  TYR35       0.0417
     11  CZ       134.8420   53.9900   50.5260 C.ar   35  TYR35       0.1957
     12  OH       133.5470   53.6590   50.9060 O.3    35  TYR35      -0.2866
     13  N        128.3140   47.5600   59.8910 N.3   104  LYS104     -0.1231
     14  CA       127.7310   47.1770   58.6220 C.3   104  LYS104      0.1678
     15  C        128.6760   47.5960   57.4970 C.2   104  LYS104      0.2434
     16  O        129.4960   48.5050   57.6540 O.2   104  LYS104     -0.2733
     17  CB       126.3650   47.8620   58.4730 C.3   104  LYS104      0.0284
     18  CG       125.3490   47.4930   59.5960 C.3   104  LYS104      0.0035
     19  CD       125.1200   46.0170   59.6410 C.3   104  LYS104      0.0206
     20  CE       123.9770   45.6200   60.6020 C.3   104  LYS104      0.1093
     21  NZ       124.2270   45.9320   62.0640 N.3   104  LYS104     -0.1314
     22  N        128.5750   46.9200   56.3380 N.am  105  PRO105     -0.2718
     23  CA       129.5800   47.1650   55.3060 C.3   105  PRO105      0.1535
     24  C        129.5910   48.6090   54.7860 C.2   105  PRO105      0.2599
     25  O        128.5270   49.2020   54.5510 O.2   105  PRO105     -0.2715
     26  CB       129.1870   46.2130   54.1720 C.3   105  PRO105      0.0310
     27  CG       128.3140   45.1910   54.7820 C.3   105  PRO105      0.0237
     28  CD       127.6940   45.7860   56.0000 C.3   105  PRO105      0.0939
     29  N        130.8010   49.1210   54.5290 N.am  106  PHE106     -0.1960
     30  CA       130.9460   50.4050   53.8450 C.3   106  PHE106      0.1771
     31  C        131.2000   50.2210   52.3560 C.2   106  PHE106      0.2619
     32  O        131.1240   51.1890   51.6040 O.2   106  PHE106     -0.2715
     33  CB       132.0380   51.2860   54.4980 C.3   106  PHE106      0.0574
     34  CG       133.4570   50.7520   54.3760 C.ar  106  PHE106     -0.0200
     35  CD1      134.1900   50.9750   53.2410 C.ar  106  PHE106     -0.0042
     36  CD2      134.0730   50.0890   55.4400 C.ar  106  PHE106     -0.0042
     37  CE1      135.4800   50.4930   53.1450 C.ar  106  PHE106     -0.0003
     38  CE2      135.3630   49.6040   55.3310 C.ar  106  PHE106     -0.0003
     39  CZ       136.0520   49.8250   54.2020 C.ar  106  PHE106     -0.0000
     40  N        131.4370   48.9860   51.9330 N.am  107  MET107     -0.1963
     41  CA       131.6750   48.6660   50.5250 C.3   107  MET107      0.1736
     42  C        131.4160   47.1810   50.3340 C.2   107  MET107      0.2617
     43  O        131.7630   46.3770   51.1830 O.2   107  MET107     -0.2715
     44  CB       133.1220   49.0370   50.1400 C.3   107  MET107      0.0427
     45  CG       133.4170   48.9950   48.6340 C.3   107  MET107      0.0599
     46  SD       135.0980   49.4580   48.1950 S.3   107  MET107     -0.1393
     47  CE       135.1680   51.1350   48.7680 C.3   107  MET107      0.0692
     48  N        130.8130   46.8470   49.1950 N.am  108  SER108     -0.1950
     49  CA       130.5590   45.4780   48.7890 C.3   108  SER108      0.1924
     50  C        131.6730   44.9840   47.8650 C.2   108  SER108      0.2314
     51  O        132.2880   45.7560   47.1130 O.2   108  SER108     -0.2863
     52  CB       129.2510   45.4230   48.0060 C.3   108  SER108      0.2116
     53  OG       128.1660   45.7790   48.8190 O.3   108  SER108     -0.2180
     54  N        126.7170   56.3750   54.2160 N.3   242  ASN242     -0.1240
     55  CA       126.1390   55.6380   53.1060 C.3   242  ASN242      0.1653
     56  C        124.8720   56.3200   52.6120 C.2   242  ASN242      0.2266
     57  O        124.7360   56.6400   51.4210 O.2   242  ASN242     -0.2867
     58  CB       125.8250   54.1940   53.4830 C.3   242  ASN242      0.1155
     59  CG       125.5080   53.3480   52.2440 C.2   242  ASN242      0.2627
     60  OD1      125.8620   53.7080   51.1340 O.2   242  ASN242     -0.2716
     61  ND2      124.8980   52.2060   52.4460 N.am  242  ASN242     -0.0877
     62  N        129.7430   57.7030   50.5980 N.3   247  LEU247     -0.1231
     63  CA       130.5330   56.5230   50.2380 C.3   247  LEU247      0.1693
     64  C        130.6130   56.3490   48.7230 C.2   247  LEU247      0.2592
     65  O        131.6780   56.0140   48.1750 O.2   247  LEU247     -0.2718
     66  CB       130.0030   55.2630   50.9270 C.3   247  LEU247      0.0284
     67  CG       129.9310   55.2980   52.4520 C.3   247  LEU247      0.0019
     68  CD1      129.4120   53.9720   52.9820 C.3   247  LEU247      0.0001
     69  CD2      131.2640   55.6590   53.0940 C.3   247  LEU247      0.0001
     70  N        129.4750   56.5410   48.0520 N.am  248  ASP248     -0.1974
     71  CA       129.4600   56.4360   46.5940 C.3   248  ASP248      0.1709
     72  C        130.3600   57.5010   45.9500 C.2   248  ASP248      0.2293
     73  O        131.0860   57.2310   45.0020 O.2   248  ASP248     -0.2864
     74  CB       128.0310   56.5940   46.0550 C.3   248  ASP248      0.1436
     75  CG       127.1290   55.4110   46.3760 C.2   248  ASP248      0.3671
     76  OD1      127.5510   54.2870   46.0760 O.co2 248  ASP248     -0.2456
     77  OD2      125.9900   55.5990   46.9100 O.co2 248  ASP248     -0.2456
     78  N        133.9550   56.4190   46.3720 N.3   251  LYS251     -0.1245
     79  CA       134.2560   55.3400   45.4580 C.3   251  LYS251      0.1561
     80  C        134.4940   55.8970   44.0620 C.2   251  LYS251      0.2260
     81  O        135.4720   55.5530   43.3990 O.2   251  LYS251     -0.2867
     82  CB       133.1010   54.3240   45.4360 C.3   251  LYS251      0.0271
     83  CG       133.3350   53.1130   44.5680 C.3   251  LYS251      0.0035
     84  CD       134.0750   52.0210   45.3330 C.3   251  LYS251      0.0206
     85  CE       134.4560   50.7830   44.5100 C.3   251  LYS251      0.1093
     86  NZ       133.2580   49.9980   44.0300 N.3   251  LYS251     -0.1314
@<TRIPOS>BOND
     1    81    80    2
     2    86    85    1
     3    80    79    1
     4    85    84    1
     5    83    84    1
     6    83    82    1
     7    73    72    2
     8    82    79    1
     9    79    78    1
    10    72    71    1
    11    74    75    1
    12    74    71    1
    13    76    75   ar
    14    75    77   ar
    15    71    70    1
    16    51    50    2
    17    50    49    1
    18    52    49    1
    19    52    53    1
    20    70    64   am
    21    65    64    2
    22    46    45    1
    23    46    47    1
    24    45    44    1
    25    64    63    1
    26    49    48    1
    27     8    10   ar
    28     8     6   ar
    29    48    42   am
    30     5     6    1
    31     5     2    1
    32    10    11   ar
    33     1     2    1
    34     6     7   ar
    35     2     3    1
    36    44    41    1
    37    63    62    1
    38    63    66    1
    39    42    41    1
    40    42    43    2
    41    41    40    1
    42    11    12    1
    43    11     9   ar
    44    66    67    1
    45     7     9   ar
    46    60    59    2
    47    57    56    2
    48     3     4    2
    49    32    31    2
    50    40    31   am
    51    59    61   am
    52    59    58    1
    53    31    30    1
    54    67    68    1
    55    67    69    1
    56    56    55    1
    57    55    58    1
    58    55    54    1
    59    37    35   ar
    60    37    39   ar
    61    35    34   ar
    62    30    33    1
    63    30    29    1
    64    26    27    1
    65    26    23    1
    66    39    38   ar
    67    34    33    1
    68    34    36   ar
    69    29    24   am
    70    25    24    2
    71    27    28    1
    72    24    23    1
    73    23    22    1
    74    38    36   ar
    75    28    22    1
    76    22    15   am
    77    15    16    2
    78    15    14    1
    79    17    14    1
    80    17    18    1
    81    14    13    1
    82    18    19    1
    83    19    20    1
    84    20    21    1
