@<TRIPOS>MOLECULE
tmp/5jeiA00.pdb
 131 126 0 0 0
SMALL
GASTEIGER

@<TRIPOS>ATOM
      1  N        146.5450   41.5500   56.6210 N.3    61  TYR61      -0.1241
      2  CA       145.1530   41.8510   56.9510 C.3    61  TYR61       0.1605
      3  C        144.7240   41.2220   58.2830 C.2    61  TYR61       0.2264
      4  O        144.1740   41.8860   59.1500 O.2    61  TYR61      -0.2867
      5  CB       144.2570   41.4020   55.8080 C.3    61  TYR61       0.0534
      6  CG       144.2530   42.3870   54.6680 C.ar   61  TYR61      -0.0201
      7  CD1      145.1860   42.3190   53.6420 C.ar   61  TYR61      -0.0009
      8  CD2      143.2890   43.3690   54.6120 C.ar   61  TYR61      -0.0009
      9  CE1      145.1620   43.2410   52.6130 C.ar   61  TYR61       0.0417
     10  CE2      143.2440   44.2630   53.5920 C.ar   61  TYR61       0.0417
     11  CZ       144.1880   44.2070   52.5920 C.ar   61  TYR61       0.1957
     12  OH       144.0830   45.1200   51.5560 O.3    61  TYR61      -0.2866
     13  N        140.2610   48.0980   53.9220 N.3    89  PRO89      -0.2102
     14  CA       139.4430   47.1200   53.1820 C.3    89  PRO89       0.1504
     15  C        139.5280   45.7590   53.8890 C.2    89  PRO89       0.2576
     16  O        140.1040   44.7900   53.3460 O.2    89  PRO89      -0.2718
     17  CB       140.0730   47.1310   51.7620 C.3    89  PRO89       0.0282
     18  CG       141.4490   47.5400   51.9810 C.3    89  PRO89       0.0208
     19  CD       141.4340   48.5220   53.1310 C.3    89  PRO89       0.0893
     20  N        138.9310   45.6920   55.0740 N.am   90  LEU90      -0.1966
     21  CA       138.9550   44.5120   55.9330 C.3    90  LEU90       0.1728
     22  C        137.6270   43.7860   55.8160 C.2    90  LEU90       0.2616
     23  O        136.5730   44.2840   56.1490 O.2    90  LEU90      -0.2715
     24  CB       139.2020   44.9450   57.3880 C.3    90  LEU90       0.0311
     25  CG       139.4460   43.8240   58.3920 C.3    90  LEU90       0.0022
     26  CD1      140.7500   43.1200   58.1230 C.3    90  LEU90       0.0001
     27  CD2      139.4230   44.3660   59.8120 C.3    90  LEU90       0.0001
     28  N        137.7040   42.5830   55.2730 N.am   91  THR91      -0.1951
     29  CA       136.5350   41.7860   54.9630 C.3    91  THR91       0.1897
     30  C        135.8860   41.2050   56.2150 C.2    91  THR91       0.2313
     31  O        136.5360   40.5990   57.0740 O.2    91  THR91      -0.2863
     32  CB       136.9410   40.6600   54.0040 C.3    91  THR91       0.1794
     33  OG1      137.5700   41.2770   52.8740 O.3    91  THR91      -0.2208
     34  CG2      135.7310   39.8200   53.5690 C.3    91  THR91       0.0378
     35  N        136.3970   36.0220   61.9040 N.3    96  ARG96      -0.1245
     36  CA       136.7520   37.3020   62.4830 C.3    96  ARG96       0.1563
     37  C        135.6740   37.8770   63.4040 C.2    96  ARG96       0.2260
     38  O        135.9890   38.4560   64.4430 O.2    96  ARG96      -0.2867
     39  CB       137.1240   38.2930   61.3990 C.3    96  ARG96       0.0307
     40  CG       138.4210   37.9430   60.6760 C.3    96  ARG96       0.0489
     41  CD       138.6190   38.8320   59.4610 C.3    96  ARG96       0.2205
     42  NE       139.8720   38.5620   58.8180 N.pl3  96  ARG96      -0.0865
     43  CZ       140.2550   39.1730   57.7080 C.cat  96  ARG96       0.5346
     44  NH1      139.4370   40.0040   57.0910 N.pl3  96  ARG96       0.1354
     45  NH2      141.4490   38.9290   57.2060 N.pl3  96  ARG96       0.1354
     46  N        146.2230   36.3220   47.0650 N.3   138  LEU138     -0.1245
     47  CA       147.0220   36.9490   48.1090 C.3   138  LEU138      0.1561
     48  C        147.3080   35.8790   49.1800 C.2   138  LEU138      0.2260
     49  O        146.4120   35.0870   49.4900 O.2   138  LEU138     -0.2867
     50  CB       146.2250   38.1130   48.6780 C.3   138  LEU138      0.0270
     51  CG       146.9020   38.9910   49.7030 C.3   138  LEU138      0.0019
     52  CD1      148.0420   39.7520   49.0730 C.3   138  LEU138      0.0001
     53  CD2      145.8990   39.9350   50.3450 C.3   138  LEU138      0.0001
     54  N        144.8450   36.1900   54.1630 N.3   141  GLY141     -0.1210
     55  CA       143.7020   37.0700   54.1610 C.3   141  GLY141      0.1956
     56  C        142.4610   36.2900   53.8180 C.2   141  GLY141      0.2613
     57  O        142.4530   35.0530   53.7230 O.2   141  GLY141     -0.2717
     58  N        141.3680   37.0090   53.6320 N.am  142  SER142     -0.1938
     59  CA       140.0780   36.3490   53.4690 C.3   142  SER142      0.2055
     60  C        139.9590   35.5820   52.1720 C.2   142  SER142      0.2644
     61  O        139.2170   34.6130   52.1260 O.2   142  SER142     -0.2714
     62  CB       138.9130   37.3390   53.6130 C.3   142  SER142      0.2130
     63  OG       138.9960   38.4180   52.7040 O.3   142  SER142     -0.2179
     64  N        140.6310   36.0200   51.1090 N.am  143  THR143     -0.1936
     65  CA       140.5150   35.2580   49.8690 C.3   143  THR143      0.2028
     66  C        141.1170   33.8640   50.0140 C.2   143  THR143      0.2642
     67  O        140.4890   32.8570   49.6690 O.2   143  THR143     -0.2714
     68  CB       141.1350   35.9970   48.6890 C.3   143  THR143      0.1808
     69  OG1      140.4660   37.2650   48.5120 O.3   143  THR143     -0.2208
     70  CG2      141.0150   35.1880   47.4020 C.3   143  THR143      0.0379
     71  N        142.3250   33.8010   50.5400 N.am  144  LYS144     -0.1977
     72  CA       142.9640   32.5230   50.7690 C.3   144  LYS144      0.1596
     73  C        142.1040   31.6450   51.7040 C.2   144  LYS144      0.2287
     74  O        141.9270   30.4480   51.4600 O.2   144  LYS144     -0.2864
     75  CB       144.3580   32.7100   51.3440 C.3   144  LYS144      0.0298
     76  CG       145.1280   31.4050   51.3470 C.3   144  LYS144      0.0038
     77  CD       146.5020   31.6160   51.8200 C.3   144  LYS144      0.0206
     78  CE       147.3920   30.4450   51.5140 C.3   144  LYS144      0.1093
     79  NZ       148.5950   30.5230   52.3960 N.3   144  LYS144     -0.1314
     80  N        148.7190   42.7820   46.6880 N.3   174  THR174     -0.1218
     81  CA       147.9870   42.9340   45.4460 C.3   174  THR174      0.1862
     82  C        148.8930   43.4160   44.3240 C.2   174  THR174      0.2287
     83  O        148.7980   42.9220   43.2090 O.2   174  THR174     -0.2866
     84  CB       146.8260   43.9100   45.6300 C.3   174  THR174      0.1770
     85  OG1      146.0070   43.4310   46.6760 O.3   174  THR174     -0.2211
     86  CG2      145.9900   44.0560   44.3740 C.3   174  THR174      0.0375
     87  N        144.9180   35.9910   38.2980 N.3   190  TYR190     -0.1227
     88  CA       144.9580   36.3220   39.7260 C.3   190  TYR190      0.1736
     89  C        143.5490   36.4030   40.2700 C.2   190  TYR190      0.2595
     90  O        142.6880   37.0690   39.6870 O.2   190  TYR190     -0.2718
     91  CB       145.7460   37.6190   39.9030 C.3   190  TYR190      0.0548
     92  CG       146.0310   38.0130   41.3390 C.ar  190  TYR190     -0.0200
     93  CD1      146.5910   37.1120   42.2300 C.ar  190  TYR190     -0.0009
     94  CD2      145.7760   39.3110   41.8060 C.ar  190  TYR190     -0.0009
     95  CE1      146.8390   37.4610   43.5290 C.ar  190  TYR190      0.0417
     96  CE2      146.0330   39.6610   43.1120 C.ar  190  TYR190      0.0417
     97  CZ       146.5610   38.7180   43.9710 C.ar  190  TYR190      0.1957
     98  OH       146.8200   39.0230   45.3020 O.3   190  TYR190     -0.2866
     99  N        143.3280   35.7240   41.3870 N.am  191  LEU191     -0.1966
    100  CA       142.0420   35.7570   42.0710 C.3   191  LEU191      0.1728
    101  C        142.1390   36.7890   43.1750 C.2   191  LEU191      0.2616
    102  O        142.9720   36.6450   44.0700 O.2   191  LEU191     -0.2715
    103  CB       141.7350   34.3760   42.6560 C.3   191  LEU191      0.0311
    104  CG       141.4160   33.2860   41.6440 C.3   191  LEU191      0.0022
    105  CD1      141.6970   31.8960   42.1750 C.3   191  LEU191      0.0001
    106  CD2      139.9570   33.4660   41.1880 C.3   191  LEU191      0.0001
    107  N        141.3030   37.8180   43.0940 N.am  192  LEU192     -0.1963
    108  CA       141.3720   38.9140   44.0570 C.3   192  LEU192      0.1728
    109  C        140.0160   39.5820   44.2180 C.2   192  LEU192      0.2616
    110  O        139.0990   39.3680   43.4310 O.2   192  LEU192     -0.2715
    111  CB       142.4190   39.9630   43.6340 C.3   192  LEU192      0.0311
    112  CG       142.0610   40.9740   42.5450 C.3   192  LEU192      0.0022
    113  CD1      143.0940   42.0700   42.3830 C.3   192  LEU192      0.0001
    114  CD2      141.8100   40.2710   41.1860 C.3   192  LEU192      0.0001
    115  N        139.9220   40.3890   45.2640 N.am  193  GLU193     -0.1977
    116  CA       138.6910   41.0760   45.5360 C.3   193  GLU193      0.1602
    117  C        138.3210   42.0180   44.3840 C.2   193  GLU193      0.2287
    118  O        139.1700   42.7240   43.8450 O.2   193  GLU193     -0.2864
    119  CB       138.7560   41.7710   46.9040 C.3   193  GLU193      0.0415
    120  CG       138.8240   40.7330   47.9930 C.3   193  GLU193      0.1163
    121  CD       138.9620   41.2610   49.4090 C.2   193  GLU193      0.3649
    122  OE1      139.4670   42.3810   49.5990 O.co2 193  GLU193     -0.2457
    123  OE2      138.5780   40.5190   50.3330 O.co2 193  GLU193     -0.2457
    124  N        139.4850   45.6970   44.2290 N.3   196  MET196     -0.1245
    125  CA       140.8580   45.8940   43.7360 C.3   196  MET196      0.1570
    126  C        140.9740   45.6510   42.2280 C.2   196  MET196      0.2261
    127  O        141.6250   46.4140   41.5240 O.2   196  MET196     -0.2867
    128  CB       141.8860   45.0410   44.4910 C.3   196  MET196      0.0387
    129  CG       142.1880   45.4790   45.9090 C.3   196  MET196      0.0595
    130  SD       140.7930   45.2060   47.0560 S.3   196  MET196     -0.1393
    131  CE       141.6220   45.2270   48.6380 C.3   196  MET196      0.0692
@<TRIPOS>BOND
     1    87    88    1
     2    90    89    2
     3    88    91    1
     4    88    89    1
     5    91    92    1
     6    89    99   am
     7   114   112    1
     8   106   104    1
     9    92    94   ar
    10    92    93   ar
    11    99   100    1
    12   127   126    2
    13   104   105    1
    14   104   103    1
    15    94    96   ar
    16   100   103    1
    17   100   101    1
    18   126   125    1
    19    93    95   ar
    20   113   112    1
    21   112   111    1
    22   107   101   am
    23   107   108    1
    24    96    97   ar
    25   101   102    2
    26    83    82    2
    27   110   109    2
    28    95    97   ar
    29   111   108    1
    30   125   124    1
    31   125   128    1
    32   118   117    2
    33    97    98    1
    34   108   109    1
    35   109   115   am
    36    82    81    1
    37    86    84    1
    38   117   116    1
    39   128   129    1
    40   115   116    1
    41    81    84    1
    42    81    80    1
    43   116   119    1
    44    84    85    1
    45   129   130    1
    46   119   120    1
    47   130   131    1
    48    46    47    1
    49    70    68    1
    50   120   121    1
    51    47    50    1
    52    47    48    1
    53    69    68    1
    54    50    51    1
    55    68    65    1
    56    52    51    1
    57    48    49    2
    58   121   122   ar
    59   121   123   ar
    60    67    66    2
    61    51    53    1
    62    65    66    1
    63    65    64    1
    64    66    71   am
    65    71    72    1
    66    72    75    1
    67    72    73    1
    68    64    60   am
    69    75    76    1
    70    76    77    1
    71    74    73    2
    72    78    77    1
    73    78    79    1
    74    12    11    1
    75    17    18    1
    76    17    14    1
    77    18    19    1
    78    61    60    2
    79    60    59    1
    80    11     9   ar
    81    11    10   ar
    82     9     7   ar
    83    63    62    1
    84    33    32    1
    85    19    13    1
    86    14    15    1
    87    14    13    1
    88    16    15    2
    89    59    62    1
    90    59    58    1
    91    34    32    1
    92    10     8   ar
    93    58    56   am
    94     7     6   ar
    95    57    56    2
    96    56    55    1
    97    15    20   am
    98    32    29    1
    99    55    54    1
   100     8     6   ar
   101     6     5    1
   102    29    28    1
   103    29    30    1
   104    20    21    1
   105    28    22   am
   106     5     2    1
   107    22    21    1
   108    22    23    2
   109    21    24    1
   110    30    31    2
   111     1     2    1
   112     2     3    1
   113    44    43    1
   114    45    43    1
   115    24    25    1
   116    43    42    2
   117    26    25    1
   118     3     4    2
   119    25    27    1
   120    42    41    1
   121    41    40    1
   122    40    39    1
   123    39    36    1
   124    35    36    1
   125    36    37    1
   126    37    38    2
