@<TRIPOS>MOLECULE
tmp/5jeiA06.pdb
 76 72 0 0 0
SMALL
GASTEIGER

@<TRIPOS>ATOM
      1  N        144.8640   40.9860   29.5040 N.3   117  LYS117     -0.1245
      2  CA       143.9290   41.0310   28.3930 C.3   117  LYS117      0.1561
      3  C        144.3270   40.0260   27.3270 C.2   117  LYS117      0.2260
      4  O        145.5090   39.9050   26.9820 O.2   117  LYS117     -0.2867
      5  CB       143.8500   42.4510   27.8240 C.3   117  LYS117      0.0271
      6  CG       143.0150   43.3650   28.7110 C.3   117  LYS117      0.0035
      7  CD       142.9380   44.7740   28.1660 C.3   117  LYS117      0.0206
      8  CE       142.0740   45.6080   29.0660 C.3   117  LYS117      0.1093
      9  NZ       142.0050   47.0170   28.6060 N.3   117  LYS117     -0.1314
     10  N        141.9760   47.7820   36.6350 N.3   201  GLU201     -0.1231
     11  CA       141.6310   47.8920   35.2180 C.3   201  GLU201      0.1699
     12  C        141.3600   49.3160   34.7850 C.2   201  GLU201      0.2592
     13  O        141.3050   49.5760   33.5910 O.2   201  GLU201     -0.2718
     14  CB       140.5050   46.9130   34.8470 C.3   201  GLU201      0.0402
     15  CG       139.1890   47.2790   35.4280 C.3   201  GLU201      0.1161
     16  CD       138.0270   46.3120   35.0530 C.2   201  GLU201      0.3649
     17  OE1      138.2340   45.2980   34.3310 O.co2 201  GLU201     -0.2457
     18  OE2      136.9130   46.5660   35.5300 O.co2 201  GLU201     -0.2457
     19  N        141.2370   50.2380   35.7510 N.am  202  GLN202     -0.1979
     20  CA       141.1740   51.6770   35.4810 C.3   202  GLN202      0.1601
     21  C        142.5550   52.3560   35.4770 C.2   202  GLN202      0.2287
     22  O        142.6260   53.5740   35.3590 O.2   202  GLN202     -0.2864
     23  CB       140.2750   52.3810   36.5120 C.3   202  GLN202      0.0394
     24  CG       138.8810   51.8110   36.6010 C.3   202  GLN202      0.0908
     25  CD       137.9770   52.2580   35.4680 C.2   202  GLN202      0.2608
     26  OE1      138.0950   53.3800   34.9510 O.2   202  GLN202     -0.2717
     27  NE2      137.0710   51.3960   35.0640 N.am  202  GLN202     -0.0878
     28  N        142.1110   43.0420   33.1140 N.3   209  MET209     -0.1230
     29  CA       140.6710   43.2370   33.2380 C.3   209  MET209      0.1702
     30  C        140.0740   42.1530   34.0990 C.2   209  MET209      0.2592
     31  O        140.6040   41.0350   34.2170 O.2   209  MET209     -0.2718
     32  CB       139.9710   43.2310   31.8610 C.3   209  MET209      0.0401
     33  CG       140.1010   41.9340   31.0890 C.3   209  MET209      0.0596
     34  SD       139.3810   42.0320   29.4370 S.3   209  MET209     -0.1393
     35  CE       137.6830   41.7060   29.8820 C.3   209  MET209      0.0692
     36  N        138.9260   42.4880   34.6820 N.am  210  LYS210     -0.1980
     37  CA       138.0660   41.5230   35.3270 C.3   210  LYS210      0.1596
     38  C        137.3630   40.7020   34.2540 C.2   210  LYS210      0.2287
     39  O        136.9160   41.2460   33.2430 O.2   210  LYS210     -0.2864
     40  CB       137.0350   42.2620   36.1580 C.3   210  LYS210      0.0298
     41  CG       136.1210   41.3740   36.9780 C.3   210  LYS210      0.0038
     42  CD       135.1260   42.2430   37.7400 C.3   210  LYS210      0.0206
     43  CE       134.3770   41.4950   38.8320 C.3   210  LYS210      0.1093
     44  NZ       133.4940   40.3790   38.3110 N.3   210  LYS210     -0.1314
     45  N        137.1000   55.7570   39.5440 N.3   256  TYR256     -0.1241
     46  CA       136.6080   55.9830   38.1710 C.3   256  TYR256      0.1605
     47  C        136.8410   57.3800   37.6090 C.2   256  TYR256      0.2264
     48  O        137.0650   57.5040   36.4080 O.2   256  TYR256     -0.2867
     49  CB       135.1140   55.6720   38.0870 C.3   256  TYR256      0.0534
     50  CG       134.7690   54.2760   38.5240 C.ar  256  TYR256     -0.0201
     51  CD1      135.2840   53.1670   37.8630 C.ar  256  TYR256     -0.0009
     52  CD2      133.9760   54.0680   39.6420 C.ar  256  TYR256     -0.0009
     53  CE1      135.0000   51.9080   38.2780 C.ar  256  TYR256      0.0417
     54  CE2      133.6910   52.7820   40.0670 C.ar  256  TYR256      0.0417
     55  CZ       134.2030   51.7220   39.3850 C.ar  256  TYR256      0.1957
     56  OH       133.9140   50.4470   39.8280 O.3   256  TYR256     -0.2866
     57  N        141.8800   54.4520   31.4660 N.3   261  CYS261     -0.1221
     58  CA       141.5930   53.4240   30.4810 C.3   261  CYS261      0.1808
     59  C        140.2460   53.6530   29.7940 C.2   261  CYS261      0.2602
     60  O        139.5670   52.7030   29.3800 O.2   261  CYS261     -0.2717
     61  CB       141.6690   52.0440   31.1380 C.3   261  CYS261      0.0970
     62  SG       143.2670   51.7110   31.9610 S.3   261  CYS261     -0.0800
     63  N        139.8730   54.9180   29.6660 N.am  262  GLY262     -0.1942
     64  CA       138.6500   55.2700   28.9800 C.3   262  GLY262      0.2014
     65  C        137.4340   55.3770   29.8820 C.2   262  GLY262      0.2640
     66  O        137.5360   55.3050   31.1140 O.2   262  GLY262     -0.2714
     67  N        136.2700   55.5420   29.2480 N.am  263  SER263     -0.1935
     68  CA       135.0160   55.7620   29.9610 C.3   263  SER263      0.2055
     69  C        133.9500   54.7630   29.5500 C.2   263  SER263      0.2643
     70  O        134.1650   53.8920   28.7010 O.2   263  SER263     -0.2714
     71  CB       134.5180   57.1840   29.7100 C.3   263  SER263      0.2130
     72  OG       135.3970   58.1380   30.3040 O.3   263  SER263     -0.2179
     73  N        132.8030   54.8820   30.1920 N.am  264  GLY264     -0.1954
     74  CA       131.6100   54.1830   29.7590 C.3   264  GLY264      0.1869
     75  C        131.3440   52.9550   30.5980 C.2   264  GLY264      0.2309
     76  O        130.9620   51.9200   30.0750 O.2   264  GLY264     -0.2863
@<TRIPOS>BOND
     1     4     3    2
     2     3     2    1
     3     5     2    1
     4     5     6    1
     5     7     6    1
     6     7     8    1
     7     2     1    1
     8     9     8    1
     9    70    69    2
    10    64    63    1
    11    64    65    1
    12    67    65   am
    13    67    68    1
    14    60    59    2
    15    34    35    1
    16    34    33    1
    17    69    68    1
    18    69    73   am
    19    63    59   am
    20    71    68    1
    21    71    72    1
    22    74    73    1
    23    74    75    1
    24    59    58    1
    25    65    66    2
    26    76    75    2
    27    58    61    1
    28    58    57    1
    29    33    32    1
    30    61    62    1
    31    32    29    1
    32    28    29    1
    33    29    30    1
    34    39    38    2
    35    13    12    2
    36    30    31    2
    37    30    36   am
    38    38    37    1
    39    17    16   ar
    40    36    37    1
    41    12    11    1
    42    12    19   am
    43    14    11    1
    44    14    15    1
    45    26    25    2
    46    16    15    1
    47    16    18   ar
    48    27    25   am
    49    11    10    1
    50    37    40    1
    51    22    21    2
    52    25    24    1
    53    21    20    1
    54    20    19    1
    55    20    23    1
    56    40    41    1
    57    48    47    2
    58    23    24    1
    59    41    42    1
    60    47    46    1
    61    42    43    1
    62    51    53   ar
    63    51    50   ar
    64    49    46    1
    65    49    50    1
    66    46    45    1
    67    53    55   ar
    68    44    43    1
    69    50    52   ar
    70    55    56    1
    71    55    54   ar
    72    52    54   ar
