@<TRIPOS>MOLECULE
tmp/5jf1A00.pdb
 136 130 0 0 0
SMALL
GASTEIGER

@<TRIPOS>ATOM
      1  N         -8.9620    2.0720   20.6240 N.3    67  ARG67      -0.1231
      2  CA        -8.9320    2.7490   19.3270 C.3    67  ARG67       0.1694
      3  C         -9.8100    1.8400   18.3630 C.2    67  ARG67       0.2593
      4  O         -9.6470    0.6020   18.3740 O.2    67  ARG67      -0.2718
      5  CB        -7.4110    2.8030   18.8920 C.3    67  ARG67       0.0321
      6  CG        -7.0450    3.9840   18.0120 C.3    67  ARG67       0.0489
      7  CD        -5.5100    4.1880   17.9560 C.3    67  ARG67       0.2205
      8  NE        -5.1410    4.4380   16.5410 N.pl3  67  ARG67      -0.0865
      9  CZ        -4.0060    4.0910   15.9270 C.cat  67  ARG67       0.5346
     10  NH1       -2.9990    3.4400   16.5820 N.pl3  67  ARG67       0.1354
     11  NH2       -3.8600    4.5160   14.6680 N.pl3  67  ARG67       0.1354
     12  N        -10.7200    2.4490   17.6240 N.am   68  GLY68      -0.1942
     13  CA       -11.6000    1.8070   16.6760 C.3    68  GLY68       0.2014
     14  C        -10.7650    1.1400   15.5580 C.2    68  GLY68       0.2639
     15  O         -9.7950    1.7180   15.0030 O.2    68  GLY68      -0.2714
     16  N        -11.1450   -0.0390   15.1820 N.am   69  GLY69      -0.1939
     17  CA       -10.4610   -0.7710   14.1350 C.3    69  GLY69       0.2014
     18  C        -11.4560   -1.5990   13.3520 C.2    69  GLY69       0.2639
     19  O        -12.5500   -1.9010   13.8650 O.2    69  GLY69      -0.2714
     20  N        -11.0440   -2.0670   12.1990 N.am   70  VAL70      -0.1963
     21  CA       -11.8550   -2.9200   11.3160 C.3    70  VAL70       0.1727
     22  C        -11.2300   -4.2340   10.9900 C.2    70  VAL70       0.2616
     23  O        -11.7960   -5.0580   10.2320 O.2    70  VAL70      -0.2715
     24  CB       -12.2070   -2.1460    9.9990 C.3    70  VAL70       0.0290
     25  CG1      -13.1320   -0.9850   10.3030 C.3    70  VAL70       0.0023
     26  CG2      -10.9430   -1.7210    9.2200 C.3    70  VAL70       0.0023
     27  N        -10.0620   -4.4870   11.5700 N.am   71  GLY71      -0.1955
     28  CA        -9.4330   -5.7540   11.4320 C.3    71  GLY71       0.1869
     29  C         -8.2910   -5.9080   12.4400 C.2    71  GLY71       0.2309
     30  O         -7.9300   -4.9290   13.0990 O.2    71  GLY71      -0.2863
     31  N         -0.4150   -9.2910   16.0240 N.3    76  GLN76      -0.1245
     32  CA        -0.5200   -8.0740   16.7940 C.3    76  GLN76       0.1566
     33  C         -0.7940   -8.2900   18.2280 C.2    76  GLN76       0.2260
     34  O         -0.6830   -7.3450   19.0190 O.2    76  GLN76      -0.2867
     35  CB        -1.6040   -7.1620   16.2220 C.3    76  GLN76       0.0367
     36  CG        -1.3270   -6.5940   14.8850 C.3    76  GLN76       0.0905
     37  CD        -2.5510   -5.8440   14.2990 C.2    76  GLN76       0.2608
     38  OE1       -3.5650   -6.4130   13.8780 O.2    76  GLN76      -0.2717
     39  NE2       -2.4000   -4.5050   14.2030 N.am   76  GLN76      -0.0878
     40  N         -6.5600    3.8260   -0.1860 N.3   124  LEU124     -0.1245
     41  CA        -7.4450    4.7200    0.4310 C.3   124  LEU124      0.1561
     42  C         -6.9390    6.1700    0.4660 C.2   124  LEU124      0.2260
     43  O         -5.7510    6.4440    0.7150 O.2   124  LEU124     -0.2867
     44  CB        -7.7940    4.3130    1.8510 C.3   124  LEU124      0.0270
     45  CG        -8.3120    3.0360    2.2200 C.3   124  LEU124      0.0019
     46  CD1       -8.4210    3.0450    3.7570 C.3   124  LEU124      0.0001
     47  CD2       -9.6520    2.8770    1.6190 C.3   124  LEU124      0.0001
     48  N         -7.5000    8.6080    2.4390 N.3   126  ASP126     -0.1225
     49  CA        -7.0070    9.0080    3.7630 C.3   126  ASP126      0.1805
     50  C         -5.8190    8.2750    4.3480 C.2   126  ASP126      0.2598
     51  O         -5.3350    8.6420    5.4110 O.2   126  ASP126     -0.2718
     52  CB        -8.1750    8.9110    4.7420 C.3   126  ASP126      0.1424
     53  CG        -9.2740    9.7970    4.3670 C.2   126  ASP126      0.3668
     54  OD1       -8.9890   10.8830    3.7500 O.co2 126  ASP126     -0.2456
     55  OD2      -10.4330    9.4190    4.6470 O.co2 126  ASP126     -0.2456
     56  N         -5.2200    7.3550    3.5790 N.am  127  GLY127     -0.1942
     57  CA        -4.1500    6.5750    4.0900 C.3   127  GLY127      0.2014
     58  C         -4.6690    5.4960    5.0170 C.2   127  GLY127      0.2639
     59  O         -5.8800    5.2030    5.0750 O.2   127  GLY127     -0.2714
     60  N         -3.7580    4.9340    5.7890 N.am  128  GLU128     -0.1963
     61  CA        -4.0580    3.8450    6.6690 C.3   128  GLU128      0.1733
     62  C         -3.4410    4.1790    8.0080 C.2   128  GLU128      0.2616
     63  O         -2.3920    4.7780    8.0400 O.2   128  GLU128     -0.2715
     64  CB        -3.5390    2.4640    6.1100 C.3   128  GLU128      0.0429
     65  CG        -4.2870    1.9870    4.8080 C.3   128  GLU128      0.1163
     66  CD        -3.9570    0.5430    4.3580 C.2   128  GLU128      0.3649
     67  OE1       -4.2280    0.1990    3.2130 O.co2 128  GLU128     -0.2457
     68  OE2       -3.4080   -0.2880    5.1180 O.co2 128  GLU128     -0.2457
     69  N         -4.0830    3.7290    9.0860 N.am  129  GLY129     -0.1955
     70  CA        -3.5490    3.6910   10.4140 C.3   129  GLY129      0.1869
     71  C         -3.5180    2.2580   10.9290 C.2   129  GLY129      0.2309
     72  O         -4.1310    1.3660   10.3200 O.2   129  GLY129     -0.2863
     73  N         -3.1970   -0.2190   14.6310 N.3   130  LEU130     -0.1245
     74  CA        -3.2130   -0.3210   16.1050 C.3   130  LEU130      0.1561
     75  C         -1.8160   -0.4930   16.7800 C.2   130  LEU130      0.2260
     76  O         -1.6760   -0.1520   17.9420 O.2   130  LEU130     -0.2867
     77  CB        -4.0750   -1.4460   16.5580 C.3   130  LEU130      0.0270
     78  CG        -5.5010   -1.4160   16.0730 C.3   130  LEU130      0.0019
     79  CD1       -6.1840   -2.7620   16.0910 C.3   130  LEU130      0.0001
     80  CD2       -6.2720   -0.3420   16.7890 C.3   130  LEU130      0.0001
     81  N        -13.2810   -1.1800   -0.3230 N.3   165  TYR165     -0.1241
     82  CA       -12.7690   -1.1300    1.0310 C.3   165  TYR165      0.1605
     83  C        -12.4920   -2.4980    1.6660 C.2   165  TYR165      0.2264
     84  O        -11.4520   -2.6890    2.3550 O.2   165  TYR165     -0.2867
     85  CB       -13.7530   -0.2550    1.8920 C.3   165  TYR165      0.0534
     86  CG       -13.3640    0.0400    3.2790 C.ar  165  TYR165     -0.0201
     87  CD1      -14.3250    0.1190    4.2800 C.ar  165  TYR165     -0.0009
     88  CD2      -12.0600    0.3500    3.6250 C.ar  165  TYR165     -0.0009
     89  CE1      -13.9680    0.4920    5.5850 C.ar  165  TYR165      0.0417
     90  CE2      -11.7040    0.6540    4.9230 C.ar  165  TYR165      0.0417
     91  CZ       -12.6490    0.7080    5.8790 C.ar  165  TYR165      0.1957
     92  OH       -12.2710    1.0100    7.1250 O.3   165  TYR165     -0.2866
     93  N         -9.1280   -3.8270    0.5750 N.3   168  ILE168     -0.1231
     94  CA        -8.1170   -3.1270    1.2700 C.3   168  ILE168      0.1692
     95  C         -7.9080   -3.6600    2.6500 C.2   168  ILE168      0.2591
     96  O         -6.7990   -3.9720    3.0550 O.2   168  ILE168     -0.2718
     97  CB        -8.3800   -1.5880    1.3280 C.3   168  ILE168      0.0266
     98  CG1       -8.4380   -0.9700   -0.0260 C.3   168  ILE168      0.0019
     99  CG2       -7.3090   -0.8880    2.1540 C.3   168  ILE168      0.0020
    100  CD1       -7.2190   -0.8460   -0.7640 C.3   168  ILE168      0.0001
    101  N         -9.0050   -3.8720    3.3850 N.am  169  VAL169     -0.1980
    102  CA        -8.8990   -4.3510    4.7620 C.3   169  VAL169      0.1595
    103  C         -8.2560   -5.7660    4.8870 C.2   169  VAL169      0.2287
    104  O         -7.3520   -6.0280    5.6580 O.2   169  VAL169     -0.2864
    105  CB       -10.2730   -4.3650    5.4060 C.3   169  VAL169      0.0276
    106  CG1      -10.1950   -5.0570    6.7640 C.3   169  VAL169      0.0022
    107  CG2      -10.7530   -2.9930    5.5710 C.3   169  VAL169      0.0022
    108  N         -4.5170   -5.6940    4.2000 N.3   172  HIS172     -0.1226
    109  CA        -3.8530   -5.2160    5.3050 C.3   172  HIS172      0.1752
    110  C         -3.5810   -6.2850    6.3440 C.2   172  HIS172      0.2595
    111  O         -2.4680   -6.4690    6.7890 O.2   172  HIS172     -0.2718
    112  CB        -4.5950   -4.0090    5.8670 C.3   172  HIS172      0.0759
    113  CG        -3.9990   -3.4480    7.1110 C.ar  172  HIS172      0.0818
    114  ND1       -3.5230   -2.1530    7.1530 N.ar  172  HIS172     -0.2268
    115  CD2       -3.9380   -3.8930    8.3570 C.ar  172  HIS172      0.1154
    116  CE1       -3.1050   -1.8600    8.3790 C.ar  172  HIS172      0.1986
    117  NE2       -3.3920   -2.8980    9.1260 N.ar  172  HIS172     -0.2212
    118  N         -4.6110   -7.0310    6.6990 N.am  173  GLU173     -0.1979
    119  CA        -4.4750   -8.1660    7.6830 C.3   173  GLU173      0.1602
    120  C         -3.6080   -9.3290    7.2320 C.2   173  GLU173      0.2287
    121  O         -2.7870   -9.7980    7.9860 O.2   173  GLU173     -0.2864
    122  CB        -5.8150   -8.6290    8.1410 C.3   173  GLU173      0.0415
    123  CG        -6.6870   -7.6590    8.7830 C.3   173  GLU173      0.1163
    124  CD        -6.1110   -6.6740    9.7580 C.2   173  GLU173      0.3649
    125  OE1       -6.7280   -5.5280    9.8850 O.co2 173  GLU173     -0.2457
    126  OE2       -5.1350   -6.9340   10.4560 O.co2 173  GLU173     -0.2457
    127  N         -0.0650   -8.6010    7.7320 N.3   176  HIS176     -0.1241
    128  CA         0.4260   -8.8140    9.0720 C.3   176  HIS176      0.1621
    129  C          0.9180  -10.2580    9.3280 C.2   176  HIS176      0.2264
    130  O          1.9120  -10.4590   10.0160 O.2   176  HIS176     -0.2867
    131  CB        -0.5410   -8.5050   10.1910 C.3   176  HIS176      0.0745
    132  CG        -0.7020   -7.0860   10.4700 C.ar  176  HIS176      0.0817
    133  ND1        0.3060   -6.2890   10.9020 N.ar  176  HIS176     -0.2268
    134  CD2       -1.7830   -6.3160   10.4400 C.ar  176  HIS176      0.1154
    135  CE1       -0.1530   -5.1070   11.1680 C.ar  176  HIS176      0.1986
    136  NE2       -1.4140   -5.1030   10.8600 N.ar  176  HIS176     -0.2212
@<TRIPOS>BOND
     1   100    98    1
     2    81    82    1
     3    40    41    1
     4    98    97    1
     5    41    42    1
     6    41    44    1
     7    42    43    2
     8    93    94    1
     9    82    83    1
    10    82    85    1
    11    94    97    1
    12    94    95    1
    13    97    99    1
    14    47    45    1
    15    83    84    2
    16    44    45    1
    17    85    86    1
    18    45    46    1
    19    48    49    1
    20    95    96    2
    21    95   101   am
    22    67    66   ar
    23    86    88   ar
    24    86    87   ar
    25   101   102    1
    26    56    57    1
    27    56    50   am
    28    88    90   ar
    29    54    53   ar
    30    49    50    1
    31    49    52    1
    32    57    58    1
    33   108   109    1
    34    87    89   ar
    35    50    51    2
    36    66    65    1
    37    66    68   ar
    38    53    55   ar
    39    53    52    1
    40   102   103    1
    41   102   105    1
    42    65    64    1
    43   103   104    2
    44    90    91   ar
    45    58    59    2
    46    58    60   am
    47   109   112    1
    48   109   110    1
    49   105   107    1
    50   105   106    1
    51    89    91   ar
    52    60    61    1
    53   112   113    1
    54    91    92    1
    55    64    61    1
    56   110   118   am
    57   110   111    2
    58    61    62    1
    59   118   119    1
    60   113   114   ar
    61   113   115   ar
    62   114   116   ar
    63   120   119    1
    64   120   121    2
    65   119   122    1
    66   127   128    1
    67    62    63    2
    68    62    69   am
    69   122   123    1
    70   115   117   ar
    71   116   117   ar
    72   123   124    1
    73   128   129    1
    74   128   131    1
    75    69    70    1
    76    26    24    1
    77   129   130    2
    78   124   125   ar
    79   124   126   ar
    80    24    25    1
    81    24    21    1
    82   131   132    1
    83    23    22    2
    84    72    71    2
    85    70    71    1
    86   134   132   ar
    87   134   136   ar
    88   132   133   ar
    89   136   135   ar
    90   133   135   ar
    91    22    21    1
    92    22    27   am
    93    21    20    1
    94    28    27    1
    95    28    29    1
    96    20    18   am
    97    29    30    2
    98    18    19    2
    99    18    17    1
   100    38    37    2
   101    17    16    1
   102    39    37   am
   103    37    36    1
   104    73    74    1
   105    11     9    1
   106    36    35    1
   107    15    14    2
   108    16    14   am
   109    14    13    1
   110     9     8    2
   111     9    10    1
   112    31    32    1
   113    78    79    1
   114    78    77    1
   115    78    80    1
   116    74    77    1
   117    74    75    1
   118    35    32    1
   119     8     7    1
   120    13    12    1
   121    75    76    2
   122    32    33    1
   123    12     3   am
   124     7     6    1
   125     6     5    1
   126    33    34    2
   127     3     4    2
   128     3     2    1
   129     5     2    1
   130     2     1    1
