@<TRIPOS>MOLECULE
tmp/5jf3A00.pdb
 124 118 0 0 0
SMALL
GASTEIGER

@<TRIPOS>ATOM
      1  N         -8.9710    2.0340   20.7090 N.3    67  ARG67      -0.1231
      2  CA        -8.8520    2.6540   19.4050 C.3    67  ARG67       0.1694
      3  C         -9.7170    1.8480   18.4170 C.2    67  ARG67       0.2593
      4  O         -9.6570    0.6130   18.3880 O.2    67  ARG67      -0.2718
      5  CB        -7.3890    2.6340   18.9890 C.3    67  ARG67       0.0321
      6  CG        -7.0430    3.5610   17.8610 C.3    67  ARG67       0.0489
      7  CD        -5.5430    3.6370   17.7500 C.3    67  ARG67       0.2205
      8  NE        -5.1450    3.9460   16.3840 N.pl3  67  ARG67      -0.0865
      9  CZ        -3.8980    3.8720   15.9260 C.cat  67  ARG67       0.5346
     10  NH1       -2.8990    3.4910   16.7240 N.pl3  67  ARG67       0.1354
     11  NH2       -3.6610    4.1870   14.6590 N.pl3  67  ARG67       0.1354
     12  N        -10.5310    2.5550   17.6340 N.am   68  GLY68      -0.1942
     13  CA       -11.4190    1.9350   16.6570 C.3    68  GLY68       0.2014
     14  C        -10.6720    1.1660   15.5910 C.2    68  GLY68       0.2639
     15  O         -9.6230    1.6090   15.0930 O.2    68  GLY68      -0.2714
     16  N        -11.2100    0.0020   15.2360 N.am   69  GLY69      -0.1939
     17  CA       -10.5780   -0.8240   14.2180 C.3    69  GLY69       0.2014
     18  C        -11.5960   -1.5510   13.3670 C.2    69  GLY69       0.2639
     19  O        -12.7420   -1.7670   13.7870 O.2    69  GLY69      -0.2714
     20  N        -11.1710   -1.9220   12.1620 N.am   70  VAL70      -0.1963
     21  CA       -12.0010   -2.8010   11.3080 C.3    70  VAL70       0.1727
     22  C        -11.3130   -4.1520   11.0260 C.2    70  VAL70       0.2616
     23  O        -11.8620   -5.0060   10.3210 O.2    70  VAL70      -0.2715
     24  CB       -12.3600   -2.1130    9.9610 C.3    70  VAL70       0.0290
     25  CG1      -13.3300   -0.9450   10.1840 C.3    70  VAL70       0.0023
     26  CG2      -11.0960   -1.6640    9.2390 C.3    70  VAL70       0.0023
     27  N        -10.1210   -4.3500   11.5800 N.am   71  GLY71      -0.1955
     28  CA        -9.3860   -5.5970   11.3500 C.3    71  GLY71       0.1869
     29  C         -8.3640   -5.7790   12.4500 C.2    71  GLY71       0.2309
     30  O         -7.9740   -4.8030   13.1090 O.2    71  GLY71      -0.2863
     31  N         -0.4520   -9.2080   16.0280 N.3    76  GLN76      -0.1245
     32  CA        -0.5490   -7.9670   16.8100 C.3    76  GLN76       0.1566
     33  C         -0.8150   -8.2400   18.2800 C.2    76  GLN76       0.2260
     34  O         -0.7310   -7.3060   19.0900 O.2    76  GLN76      -0.2867
     35  CB        -1.6710   -7.1010   16.2610 C.3    76  GLN76       0.0367
     36  CG        -1.3460   -6.5430   14.9060 C.3    76  GLN76       0.0905
     37  CD        -2.5160   -5.7720   14.3400 C.2    76  GLN76       0.2608
     38  OE1       -3.4760   -6.3670   13.8570 O.2    76  GLN76      -0.2717
     39  NE2       -2.4410   -4.4480   14.3890 N.am   76  GLN76      -0.0878
     40  N         -6.5020    3.9230   -0.1500 N.3   124  LEU124     -0.1245
     41  CA        -7.3970    4.8160    0.5780 C.3   124  LEU124      0.1561
     42  C         -6.8870    6.2580    0.4980 C.2   124  LEU124      0.2260
     43  O         -5.7070    6.5280    0.7130 O.2   124  LEU124     -0.2867
     44  CB        -7.5270    4.3930    2.0420 C.3   124  LEU124      0.0270
     45  CG        -8.1100    3.0070    2.2990 C.3   124  LEU124      0.0019
     46  CD1       -8.1070    2.7480    3.7940 C.3   124  LEU124      0.0001
     47  CD2       -9.5280    2.8690    1.7210 C.3   124  LEU124      0.0001
     48  N         -3.6340    4.9340    5.7500 N.3   128  GLU128     -0.1231
     49  CA        -3.9950    3.8780    6.6730 C.3   128  GLU128      0.1699
     50  C         -3.3580    4.1420    8.0210 C.2   128  GLU128      0.2592
     51  O         -2.3770    4.8670    8.1180 O.2   128  GLU128     -0.2718
     52  CB        -3.5260    2.5100    6.1450 C.3   128  GLU128      0.0402
     53  CG        -4.2740    2.0680    4.8820 C.3   128  GLU128      0.1161
     54  CD        -3.9150    0.6550    4.3990 C.2   128  GLU128      0.3649
     55  OE1       -4.2240    0.3600    3.2230 O.co2 128  GLU128     -0.2457
     56  OE2       -3.3440   -0.1680    5.1720 O.co2 128  GLU128     -0.2457
     57  N         -3.9310    3.5390    9.0520 N.am  129  GLY129     -0.1957
     58  CA        -3.3530    3.5670   10.3830 C.3   129  GLY129      0.1869
     59  C         -3.1810    2.1310   10.8210 C.2   129  GLY129      0.2309
     60  O         -3.5050    1.1820   10.0710 O.2   129  GLY129     -0.2863
     61  N         -3.1270   -0.2880   14.6500 N.3   130  LEU130     -0.1245
     62  CA        -3.2090   -0.3930   16.1150 C.3   130  LEU130      0.1561
     63  C         -1.8270   -0.5210   16.7900 C.2   130  LEU130      0.2260
     64  O         -1.6510   -0.1040   17.9370 O.2   130  LEU130     -0.2867
     65  CB        -4.1370   -1.5530   16.5180 C.3   130  LEU130      0.0270
     66  CG        -5.5980   -1.4530   16.0500 C.3   130  LEU130      0.0019
     67  CD1       -6.3300   -2.8270   16.0200 C.3   130  LEU130      0.0001
     68  CD2       -6.3550   -0.4400   16.9080 C.3   130  LEU130      0.0001
     69  N        -13.3610   -1.0800   -0.0780 N.3   165  TYR165     -0.1241
     70  CA       -12.7570   -1.0150    1.2520 C.3   165  TYR165      0.1605
     71  C        -12.5130   -2.4270    1.8240 C.2   165  TYR165      0.2264
     72  O        -11.4920   -2.6700    2.4920 O.2   165  TYR165     -0.2867
     73  CB       -13.6550   -0.1530    2.1560 C.3   165  TYR165      0.0534
     74  CG       -13.0650    0.2280    3.4880 C.ar  165  TYR165     -0.0201
     75  CD1      -13.7270   -0.0720    4.6750 C.ar  165  TYR165     -0.0009
     76  CD2      -11.8500    0.9170    3.5670 C.ar  165  TYR165     -0.0009
     77  CE1      -13.1920    0.2930    5.9170 C.ar  165  TYR165      0.0417
     78  CE2      -11.3060    1.2830    4.8010 C.ar  165  TYR165      0.0417
     79  CZ       -11.9830    0.9620    5.9670 C.ar  165  TYR165      0.1957
     80  OH       -11.4460    1.3190    7.1880 O.3   165  TYR165     -0.2866
     81  N         -9.1470   -3.6670    0.6200 N.3   168  ILE168     -0.1231
     82  CA        -8.0590   -2.9790    1.3140 C.3   168  ILE168      0.1692
     83  C         -7.8880   -3.5650    2.7170 C.2   168  ILE168      0.2591
     84  O         -6.7640   -3.9070    3.1200 O.2   168  ILE168     -0.2718
     85  CB        -8.3390   -1.4640    1.4250 C.3   168  ILE168      0.0266
     86  CG1       -8.4710   -0.8190    0.0370 C.3   168  ILE168      0.0019
     87  CG2       -7.2490   -0.7500    2.2490 C.3   168  ILE168      0.0020
     88  CD1       -7.2240   -0.7990   -0.7860 C.3   168  ILE168      0.0001
     89  N         -9.0000   -3.6970    3.4530 N.am  169  VAL169     -0.1980
     90  CA        -8.9230   -4.1810    4.8430 C.3   169  VAL169      0.1595
     91  C         -8.3110   -5.5780    4.9250 C.2   169  VAL169      0.2287
     92  O         -7.3860   -5.8290    5.7110 O.2   169  VAL169     -0.2864
     93  CB       -10.2930   -4.1300    5.5280 C.3   169  VAL169      0.0276
     94  CG1      -10.2200   -4.7970    6.8980 C.3   169  VAL169      0.0022
     95  CG2      -10.7390   -2.6630    5.6260 C.3   169  VAL169      0.0022
     96  N         -4.6010   -5.6230    4.2560 N.3   172  HIS172     -0.1226
     97  CA        -3.8370   -5.0530    5.3710 C.3   172  HIS172      0.1752
     98  C         -3.6190   -6.1740    6.4090 C.2   172  HIS172      0.2595
     99  O         -2.5020   -6.3600    6.9170 O.2   172  HIS172     -0.2718
    100  CB        -4.6100   -3.8930    5.9670 C.3   172  HIS172      0.0759
    101  CG        -3.9850   -3.2920    7.1870 C.ar  172  HIS172      0.0818
    102  ND1       -3.5130   -1.9960    7.2250 N.ar  172  HIS172     -0.2268
    103  CD2       -3.8210   -3.7900    8.4370 C.ar  172  HIS172      0.1154
    104  CE1       -3.0440   -1.7350    8.4360 C.ar  172  HIS172      0.1986
    105  NE2       -3.2100   -2.8110    9.1840 N.ar  172  HIS172     -0.2212
    106  N         -4.6790   -6.9130    6.7110 N.am  173  GLU173     -0.1979
    107  CA        -4.5690   -7.9680    7.7360 C.3   173  GLU173      0.1602
    108  C         -3.7140   -9.1330    7.2600 C.2   173  GLU173      0.2287
    109  O         -2.9190   -9.6830    8.0190 O.2   173  GLU173     -0.2864
    110  CB        -5.9320   -8.4630    8.2080 C.3   173  GLU173      0.0415
    111  CG        -6.8070   -7.3880    8.7970 C.3   173  GLU173      0.1163
    112  CD        -6.1160   -6.5090    9.8440 C.2   173  GLU173      0.3649
    113  OE1       -6.5180   -5.3390    9.9730 O.co2 173  GLU173     -0.2457
    114  OE2       -5.2110   -6.9940   10.5580 O.co2 173  GLU173     -0.2457
    115  N         -0.1400   -8.5160    7.7810 N.3   176  HIS176     -0.1241
    116  CA         0.3490   -8.7920    9.1400 C.3   176  HIS176      0.1621
    117  C          0.8190  -10.2000    9.3680 C.2   176  HIS176      0.2264
    118  O          1.7780  -10.3980   10.1110 O.2   176  HIS176     -0.2867
    119  CB        -0.6890   -8.4980   10.2070 C.3   176  HIS176      0.0745
    120  CG        -0.7970   -7.0530   10.5610 C.ar  176  HIS176      0.0817
    121  ND1        0.2870   -6.2890   10.9530 N.ar  176  HIS176     -0.2268
    122  CD2       -1.8800   -6.2380   10.6430 C.ar  176  HIS176      0.1154
    123  CE1       -0.1260   -5.0590   11.2200 C.ar  176  HIS176      0.1986
    124  NE2       -1.4310   -5.0060   11.0350 N.ar  176  HIS176     -0.2212
@<TRIPOS>BOND
     1    88    86    1
     2    40    41    1
     3    69    70    1
     4    86    85    1
     5    42    41    1
     6    42    43    2
     7    41    44    1
     8    81    82    1
     9    70    71    1
    10    70    73    1
    11    82    85    1
    12    82    83    1
    13    85    87    1
    14    47    45    1
    15    71    72    2
    16    44    45    1
    17    73    74    1
    18    45    46    1
    19    83    84    2
    20    83    89   am
    21    55    54   ar
    22    89    90    1
    23    74    76   ar
    24    74    75   ar
    25    76    78   ar
    26    96    97    1
    27    54    53    1
    28    54    56   ar
    29    75    77   ar
    30    78    79   ar
    31    90    91    1
    32    90    93    1
    33    53    52    1
    34    91    92    2
    35    97   100    1
    36    97    98    1
    37    93    95    1
    38    93    94    1
    39    48    49    1
    40    77    79   ar
    41    79    80    1
    42   100   101    1
    43    52    49    1
    44    98   106   am
    45    98    99    2
    46    49    50    1
    47   106   107    1
    48   101   102   ar
    49   101   103   ar
    50   102   104   ar
    51   108   107    1
    52   108   109    2
    53   107   110    1
    54   115   116    1
    55    50    51    2
    56    50    57   am
    57   110   111    1
    58   104   105   ar
    59   103   105   ar
    60   111   112    1
    61    57    58    1
    62   116   117    1
    63   116   119    1
    64    26    24    1
    65   117   118    2
    66   112   113   ar
    67   112   114   ar
    68    24    25    1
    69    24    21    1
    70    60    59    2
    71   119   120    1
    72    23    22    2
    73    58    59    1
    74   120   122   ar
    75   120   121   ar
    76   122   124   ar
    77   121   123   ar
    78    22    21    1
    79    22    27   am
    80   124   123   ar
    81    21    20    1
    82    28    27    1
    83    28    29    1
    84    20    18   am
    85    29    30    2
    86    18    19    2
    87    18    17    1
    88    38    37    2
    89    17    16    1
    90    37    39   am
    91    37    36    1
    92    61    62    1
    93    11     9    1
    94    36    35    1
    95    15    14    2
    96    16    14   am
    97    14    13    1
    98     9     8    2
    99     9    10    1
   100    67    66    1
   101    31    32    1
   102    66    65    1
   103    66    68    1
   104    62    65    1
   105    62    63    1
   106    35    32    1
   107     8     7    1
   108    13    12    1
   109    63    64    2
   110    32    33    1
   111    12     3   am
   112     7     6    1
   113     6     5    1
   114    33    34    2
   115     4     3    2
   116     3     2    1
   117     5     2    1
   118     2     1    1
