@<TRIPOS>MOLECULE
tmp/5jf4A00.pdb
 124 118 0 0 0
SMALL
GASTEIGER

@<TRIPOS>ATOM
      1  N         -9.5110    2.1970   20.4760 N.3    67  ARG67      -0.1231
      2  CA        -9.6930    2.9920   19.2710 C.3    67  ARG67       0.1694
      3  C        -10.4160    2.1550   18.2000 C.2    67  ARG67       0.2593
      4  O        -10.0150    0.9920   17.9730 O.2    67  ARG67      -0.2718
      5  CB        -8.3290    3.5450   18.7690 C.3    67  ARG67       0.0321
      6  CG        -7.1190    2.6110   18.8470 C.3    67  ARG67       0.0489
      7  CD        -5.8390    3.3140   18.2770 C.3    67  ARG67       0.2205
      8  NE        -5.8420    3.5650   16.8110 N.pl3  67  ARG67      -0.0865
      9  CZ        -4.7290    3.6120   16.0360 C.cat  67  ARG67       0.5346
     10  NH1       -3.5040    3.4220   16.5770 N.pl3  67  ARG67       0.1354
     11  NH2       -4.8200    3.8370   14.7100 N.pl3  67  ARG67       0.1354
     12  N        -11.4850    2.7330   17.6180 N.am   68  GLY68      -0.1942
     13  CA       -12.2250    2.2130   16.4240 C.3    68  GLY68       0.2014
     14  C        -11.3110    1.3980   15.5090 C.2    68  GLY68       0.2639
     15  O        -10.1280    1.7630   15.3020 O.2    68  GLY68      -0.2714
     16  N        -11.8040    0.2600   14.9990 N.am   69  GLY69      -0.1939
     17  CA       -10.9360   -0.6860   14.2630 C.3    69  GLY69       0.2014
     18  C        -11.7980   -1.5760   13.4010 C.2    69  GLY69       0.2639
     19  O        -12.9310   -1.8790   13.7750 O.2    69  GLY69      -0.2714
     20  N        -11.2670   -2.0280   12.2660 N.am   70  VAL70      -0.1963
     21  CA       -12.0110   -2.9490   11.3750 C.3    70  VAL70       0.1727
     22  C        -11.3180   -4.2880   11.0830 C.2    70  VAL70       0.2616
     23  O        -11.8770   -5.1920   10.4420 O.2    70  VAL70      -0.2715
     24  CB       -12.4430   -2.2490   10.0560 C.3    70  VAL70       0.0290
     25  CG1      -13.5020   -1.1520   10.3340 C.3    70  VAL70       0.0023
     26  CG2      -11.1910   -1.6960    9.3110 C.3    70  VAL70       0.0023
     27  N        -10.0860   -4.4190   11.5350 N.am   71  GLY71      -0.1955
     28  CA        -9.3670   -5.6750   11.3560 C.3    71  GLY71       0.1869
     29  C         -8.3740   -5.8370   12.4860 C.2    71  GLY71       0.2309
     30  O         -7.9510   -4.8260   13.0720 O.2    71  GLY71      -0.2863
     31  N         -0.4540   -9.3230   16.0450 N.3    76  GLN76      -0.1245
     32  CA        -0.5540   -8.0570   16.7560 C.3    76  GLN76       0.1566
     33  C         -0.7570   -8.2820   18.2570 C.2    76  GLN76       0.2260
     34  O         -0.5440   -7.3880   19.0570 O.2    76  GLN76      -0.2867
     35  CB        -1.7020   -7.2540   16.1510 C.3    76  GLN76       0.0367
     36  CG        -1.4020   -6.6640   14.7800 C.3    76  GLN76       0.0905
     37  CD        -2.5530   -5.8010   14.2640 C.2    76  GLN76       0.2608
     38  OE1       -3.6050   -6.3050   13.8220 O.2    76  GLN76      -0.2717
     39  NE2       -2.3700   -4.4950   14.3300 N.am   76  GLN76      -0.0878
     40  N         -6.4590    3.9050   -0.0470 N.3   124  LEU124     -0.1245
     41  CA        -7.3090    4.8230    0.6830 C.3   124  LEU124      0.1561
     42  C         -6.7510    6.2130    0.5410 C.2   124  LEU124      0.2260
     43  O         -5.5660    6.4620    0.7550 O.2   124  LEU124     -0.2867
     44  CB        -7.4090    4.4910    2.1510 C.3   124  LEU124      0.0270
     45  CG        -8.0090    3.1340    2.5110 C.3   124  LEU124      0.0019
     46  CD1       -8.0280    2.9940    4.0510 C.3   124  LEU124      0.0001
     47  CD2       -9.4080    2.9960    1.8580 C.3   124  LEU124      0.0001
     48  N         -3.4480    4.9360    5.7350 N.3   128  GLU128     -0.1231
     49  CA        -3.8540    3.8690    6.6010 C.3   128  GLU128      0.1699
     50  C         -3.2860    4.0850    7.9950 C.2   128  GLU128      0.2592
     51  O         -2.3830    4.8750    8.2010 O.2   128  GLU128     -0.2718
     52  CB        -3.4470    2.5030    6.0520 C.3   128  GLU128      0.0402
     53  CG        -3.9960    2.1470    4.6720 C.3   128  GLU128      0.1161
     54  CD        -3.8230    0.6730    4.3560 C.2   128  GLU128      0.3649
     55  OE1       -4.2580    0.2460    3.2500 O.co2 128  GLU128     -0.2457
     56  OE2       -3.2830   -0.0470    5.2400 O.co2 128  GLU128     -0.2457
     57  N         -3.8610    3.4040    8.9660 N.am  129  GLY129     -0.1957
     58  CA        -3.3800    3.4860   10.3270 C.3   129  GLY129      0.1869
     59  C         -3.0450    2.0800   10.7750 C.2   129  GLY129      0.2309
     60  O         -3.1820    1.0960    9.9980 O.2   129  GLY129     -0.2863
     61  N         -3.0900   -0.1210   14.7610 N.3   130  LEU130     -0.1245
     62  CA        -3.0640   -0.3880   16.1950 C.3   130  LEU130      0.1561
     63  C         -1.6790   -0.5100   16.8320 C.2   130  LEU130      0.2260
     64  O         -1.5170   -0.1760   18.0010 O.2   130  LEU130     -0.2867
     65  CB        -3.8580   -1.6810   16.5060 C.3   130  LEU130      0.0270
     66  CG        -5.3230   -1.6700   16.1380 C.3   130  LEU130      0.0019
     67  CD1       -5.9120   -3.0830   16.1400 C.3   130  LEU130      0.0001
     68  CD2       -6.0580   -0.7180   17.0930 C.3   130  LEU130      0.0001
     69  N        -13.3460   -1.0970   -0.0790 N.3   165  TYR165     -0.1241
     70  CA       -12.7540   -1.0080    1.2320 C.3   165  TYR165      0.1605
     71  C        -12.4570   -2.4200    1.8450 C.2   165  TYR165      0.2264
     72  O        -11.4400   -2.6170    2.4820 O.2   165  TYR165     -0.2867
     73  CB       -13.6900   -0.1440    2.0950 C.3   165  TYR165      0.0534
     74  CG       -13.1540    0.1900    3.4440 C.ar  165  TYR165     -0.0201
     75  CD1      -13.9390    0.0340    4.6020 C.ar  165  TYR165     -0.0009
     76  CD2      -11.8240    0.6970    3.6060 C.ar  165  TYR165     -0.0009
     77  CE1      -13.4180    0.4080    5.8950 C.ar  165  TYR165      0.0417
     78  CE2      -11.2950    1.0370    4.9050 C.ar  165  TYR165      0.0417
     79  CZ       -12.1090    0.8740    6.0190 C.ar  165  TYR165      0.1957
     80  OH       -11.6260    1.2130    7.2470 O.3   165  TYR165     -0.2866
     81  N         -9.0790   -3.6220    0.6720 N.3   168  ILE168     -0.1231
     82  CA        -8.0030   -2.9050    1.3700 C.3   168  ILE168      0.1692
     83  C         -7.8070   -3.4660    2.7830 C.2   168  ILE168      0.2591
     84  O         -6.6570   -3.6890    3.1890 O.2   168  ILE168     -0.2718
     85  CB        -8.2400   -1.3290    1.4890 C.3   168  ILE168      0.0266
     86  CG1       -8.3530   -0.6120    0.1100 C.3   168  ILE168      0.0019
     87  CG2       -7.1750   -0.6650    2.4150 C.3   168  ILE168      0.0020
     88  CD1       -7.1320   -0.5890   -0.7360 C.3   168  ILE168      0.0001
     89  N         -8.9190   -3.6840    3.5180 N.am  169  VAL169     -0.1980
     90  CA        -8.8930   -4.1830    4.9040 C.3   169  VAL169      0.1595
     91  C         -8.2120   -5.5370    5.0100 C.2   169  VAL169      0.2287
     92  O         -7.2660   -5.7180    5.7810 O.2   169  VAL169     -0.2864
     93  CB       -10.3010   -4.2140    5.5880 C.3   169  VAL169      0.0276
     94  CG1      -10.1730   -4.8780    6.9740 C.3   169  VAL169      0.0022
     95  CG2      -10.8980   -2.7870    5.7320 C.3   169  VAL169      0.0022
     96  N         -4.4830   -5.6630    4.2030 N.3   172  HIS172     -0.1226
     97  CA        -3.8030   -5.1000    5.3920 C.3   172  HIS172      0.1752
     98  C         -3.5160   -6.1450    6.4900 C.2   172  HIS172      0.2595
     99  O         -2.3950   -6.2550    6.9620 O.2   172  HIS172     -0.2718
    100  CB        -4.5980   -3.9190    5.9340 C.3   172  HIS172      0.0759
    101  CG        -3.9700   -3.2640    7.1240 C.ar  172  HIS172      0.0818
    102  ND1       -3.5170   -1.9620    7.1160 N.ar  172  HIS172     -0.2268
    103  CD2       -3.7100   -3.7270    8.3620 C.ar  172  HIS172      0.1154
    104  CE1       -3.0100   -1.6520    8.2880 C.ar  172  HIS172      0.1986
    105  NE2       -3.0910   -2.7160    9.0530 N.ar  172  HIS172     -0.2212
    106  N         -4.5350   -6.9150    6.8640 N.am  173  GLU173     -0.1979
    107  CA        -4.4590   -8.0420    7.7740 C.3   173  GLU173      0.1602
    108  C         -3.6410   -9.2400    7.2790 C.2   173  GLU173      0.2287
    109  O         -2.7990   -9.7390    8.0140 O.2   173  GLU173     -0.2864
    110  CB        -5.8770   -8.5130    8.1760 C.3   173  GLU173      0.0415
    111  CG        -6.7690   -7.4780    8.9150 C.3   173  GLU173      0.1163
    112  CD        -6.0100   -6.5030    9.8440 C.2   173  GLU173      0.3649
    113  OE1       -5.1010   -6.9430   10.5700 O.co2 173  GLU173     -0.2457
    114  OE2       -6.3580   -5.2870    9.8880 O.co2 173  GLU173     -0.2457
    115  N         -0.0270   -8.6400    7.7450 N.3   176  HIS176     -0.1241
    116  CA         0.4160   -8.8410    9.1290 C.3   176  HIS176      0.1621
    117  C          0.8990  -10.2630    9.3920 C.2   176  HIS176      0.2264
    118  O          1.8460  -10.4680   10.1870 O.2   176  HIS176     -0.2867
    119  CB        -0.6970   -8.4960   10.1400 C.3   176  HIS176      0.0745
    120  CG        -0.7720   -7.0400   10.5130 C.ar  176  HIS176      0.0817
    121  ND1        0.3130   -6.3200   10.9670 N.ar  176  HIS176     -0.2268
    122  CD2       -1.8070   -6.1710   10.5020 C.ar  176  HIS176      0.1154
    123  CE1       -0.0470   -5.0820   11.2310 C.ar  176  HIS176      0.1986
    124  NE2       -1.3300   -4.9580   10.9430 N.ar  176  HIS176     -0.2212
@<TRIPOS>BOND
     1    88    86    1
     2    69    70    1
     3    40    41    1
     4    86    85    1
     5    42    41    1
     6    42    43    2
     7    81    82    1
     8    41    44    1
     9    70    71    1
    10    70    73    1
    11    82    85    1
    12    82    83    1
    13    85    87    1
    14    71    72    2
    15    47    45    1
    16    73    74    1
    17    44    45    1
    18    45    46    1
    19    83    84    2
    20    83    89   am
    21    55    54   ar
    22    74    76   ar
    23    74    75   ar
    24    89    90    1
    25    76    78   ar
    26    96    97    1
    27    54    53    1
    28    54    56   ar
    29    75    77   ar
    30    53    52    1
    31    90    91    1
    32    90    93    1
    33    78    79   ar
    34    91    92    2
    35    97   100    1
    36    97    98    1
    37    93    95    1
    38    93    94    1
    39    48    49    1
    40    77    79   ar
    41   100   101    1
    42    79    80    1
    43    52    49    1
    44    98   106   am
    45    98    99    2
    46    49    50    1
    47   106   107    1
    48   102   101   ar
    49   102   104   ar
    50   101   103   ar
    51   108   107    1
    52   108   109    2
    53   115   116    1
    54   107   110    1
    55    50    51    2
    56    50    57   am
    57   110   111    1
    58   104   105   ar
    59   103   105   ar
    60   111   112    1
    61    57    58    1
    62   116   117    1
    63   116   119    1
    64    26    24    1
    65   117   118    2
    66   112   114   ar
    67   112   113   ar
    68    60    59    2
    69    24    25    1
    70    24    21    1
    71   119   120    1
    72    58    59    1
    73    23    22    2
    74   122   120   ar
    75   122   124   ar
    76   120   121   ar
    77   124   123   ar
    78   121   123   ar
    79    22    21    1
    80    22    27   am
    81    28    27    1
    82    28    29    1
    83    21    20    1
    84    20    18   am
    85    29    30    2
    86    18    19    2
    87    18    17    1
    88    38    37    2
    89    17    16    1
    90    37    39   am
    91    37    36    1
    92    11     9    1
    93    61    62    1
    94    36    35    1
    95    16    14   am
    96    15    14    2
    97    14    13    1
    98     9    10    1
    99     9     8    2
   100    31    32    1
   101    66    67    1
   102    66    65    1
   103    66    68    1
   104    35    32    1
   105    62    65    1
   106    62    63    1
   107    13    12    1
   108    32    33    1
   109     8     7    1
   110    63    64    2
   111    12     3   am
   112     4     3    2
   113     3     2    1
   114    33    34    2
   115     7     6    1
   116     5     6    1
   117     5     2    1
   118     2     1    1
