@<TRIPOS>MOLECULE
tmp/5jf6A00.pdb
 101 95 0 0 0
SMALL
GASTEIGER

@<TRIPOS>ATOM
      1  N        -11.8600    0.2810   14.9770 N.3    69  GLY69      -0.1210
      2  CA       -10.9300   -0.3360   13.9830 C.3    69  GLY69       0.1956
      3  C        -11.7050   -1.5240   13.2280 C.2    69  GLY69       0.2612
      4  O        -12.7280   -1.9920   13.7230 O.2    69  GLY69      -0.2717
      5  N        -11.1240   -2.0060   12.1650 N.am   70  VAL70      -0.1965
      6  CA       -11.8240   -2.9130   11.1990 C.3    70  VAL70       0.1727
      7  C        -11.1090   -4.2390   11.0160 C.2    70  VAL70       0.2613
      8  O        -11.6530   -5.1540   10.2950 O.2    70  VAL70      -0.2715
      9  CB       -12.1250   -2.2520    9.8250 C.3    70  VAL70       0.0290
     10  CG1      -13.0790   -1.0720   10.0480 C.3    70  VAL70       0.0023
     11  CG2      -10.9070   -1.8670    9.2200 C.3    70  VAL70       0.0023
     12  N        -10.0070   -4.4140   11.6460 N.am   71  GLY71      -0.2012
     13  CA        -9.2880   -5.6570   11.4880 C.3    71  GLY71       0.1506
     14  C         -8.1670   -5.8580   12.4650 C.3    71  GLY71       0.2054
     15  O         -7.7130   -4.8620   13.1390 O.3    71  GLY71      -0.2184
     16  N         -0.2440   -9.2350   16.0330 N.3    76  GLN76      -0.1245
     17  CA        -0.3920   -8.0250   16.8120 C.3    76  GLN76       0.1566
     18  C         -0.6040   -8.2880   18.2730 C.2    76  GLN76       0.2260
     19  O         -0.4380   -7.3640   19.0730 O.2    76  GLN76      -0.2867
     20  CB        -1.5060   -7.1500   16.2440 C.3    76  GLN76       0.0367
     21  CG        -1.1260   -6.5840   14.9130 C.3    76  GLN76       0.0905
     22  CD        -2.3360   -5.8130   14.3600 C.2    76  GLN76       0.2608
     23  OE1       -3.3230   -6.4270   13.9520 O.2    76  GLN76      -0.2717
     24  NE2       -2.2920   -4.5410   14.3920 N.am   76  GLN76      -0.0878
     25  N         -6.3990    3.7250   -0.0820 N.3   124  LEU124     -0.1245
     26  CA        -7.2760    4.6380    0.6730 C.3   124  LEU124      0.1561
     27  C         -6.7560    6.0980    0.5820 C.2   124  LEU124      0.2260
     28  O         -5.5510    6.3610    0.7580 O.2   124  LEU124     -0.2867
     29  CB        -7.3230    4.1870    2.1430 C.3   124  LEU124      0.0270
     30  CG        -7.8200    2.8230    2.4360 C.3   124  LEU124      0.0019
     31  CD1       -7.9010    2.6670    3.9720 C.3   124  LEU124      0.0001
     32  CD2       -9.1940    2.5670    1.8710 C.3   124  LEU124      0.0001
     33  N         -4.9100    7.2860    3.6220 N.3   127  GLY127     -0.1210
     34  CA        -3.7680    6.5400    4.0700 C.3   127  GLY127      0.1956
     35  C         -4.2610    5.4290    4.9980 C.2   127  GLY127      0.2612
     36  O         -5.4430    5.1390    5.0750 O.2   127  GLY127     -0.2717
     37  N         -3.3260    4.8230    5.7130 N.am  128  GLU128     -0.1965
     38  CA        -3.5980    3.7710    6.6890 C.3   128  GLU128      0.1733
     39  C         -2.9670    4.1000    8.0060 C.2   128  GLU128      0.2616
     40  O         -2.6080    5.2520    8.3000 O.2   128  GLU128     -0.2715
     41  CB        -3.2170    2.3270    6.1650 C.3   128  GLU128      0.0429
     42  CG        -3.9810    1.8870    4.9010 C.3   128  GLU128      0.1163
     43  CD        -3.6940    0.4950    4.3720 C.2   128  GLU128      0.3649
     44  OE1       -4.0690    0.2090    3.2920 O.co2 128  GLU128     -0.2457
     45  OE2       -3.0130   -0.2740    5.1300 O.co2 128  GLU128     -0.2457
     46  N         -3.0120    3.1830    8.9210 N.am  129  GLY129     -0.1955
     47  CA        -2.4280    3.3160   10.2800 C.3   129  GLY129      0.1869
     48  C         -2.4160    1.9770   10.8560 C.2   129  GLY129      0.2309
     49  O         -2.6130    0.9860   10.0840 O.2   129  GLY129     -0.2863
     50  N         -2.7920   -0.3520   14.8500 N.3   130  LEU130     -0.1245
     51  CA        -2.8340   -0.4240   16.2230 C.3   130  LEU130      0.1561
     52  C         -1.4600   -0.4870   16.9640 C.2   130  LEU130      0.2260
     53  O         -1.3110    0.0590   18.0900 O.2   130  LEU130     -0.2867
     54  CB        -3.7070   -1.6280   16.6930 C.3   130  LEU130      0.0270
     55  CG        -5.0970   -1.7520   16.1820 C.3   130  LEU130      0.0019
     56  CD1       -5.7030   -3.2030   16.1100 C.3   130  LEU130      0.0001
     57  CD2       -5.8190   -0.9410   17.2690 C.3   130  LEU130      0.0001
     58  N         -8.9510   -3.8860    0.6420 N.3   168  ILE168     -0.1231
     59  CA        -7.8920   -3.1740    1.3560 C.3   168  ILE168      0.1692
     60  C         -7.6390   -3.7520    2.7540 C.2   168  ILE168      0.2591
     61  O         -6.5140   -4.0630    3.1310 O.2   168  ILE168     -0.2718
     62  CB        -8.1950   -1.6660    1.4530 C.3   168  ILE168      0.0266
     63  CG1       -8.2370   -0.9600    0.1060 C.3   168  ILE168      0.0019
     64  CG2       -7.1160   -0.9760    2.3350 C.3   168  ILE168      0.0020
     65  CD1       -7.0320   -0.9120   -0.7440 C.3   168  ILE168      0.0001
     66  N         -8.7660   -3.9530    3.5260 N.am  169  VAL169     -0.1980
     67  CA        -8.6380   -4.4260    4.8900 C.3   169  VAL169      0.1595
     68  C         -8.0410   -5.7740    4.9310 C.2   169  VAL169      0.2287
     69  O         -7.1660   -6.0960    5.7440 O.2   169  VAL169     -0.2864
     70  CB        -9.9920   -4.3000    5.6100 C.3   169  VAL169      0.0276
     71  CG1       -9.9970   -4.9600    6.9810 C.3   169  VAL169      0.0022
     72  CG2      -10.4500   -2.8460    5.6330 C.3   169  VAL169      0.0022
     73  N         -4.3470   -5.7490    4.2910 N.3   172  HIS172     -0.1226
     74  CA        -3.6500   -5.1550    5.3690 C.3   172  HIS172      0.1752
     75  C         -3.4090   -6.2940    6.4300 C.2   172  HIS172      0.2595
     76  O         -2.3220   -6.5060    6.9330 O.2   172  HIS172     -0.2718
     77  CB        -4.3900   -3.9940    5.9490 C.3   172  HIS172      0.0759
     78  CG        -3.7990   -3.4170    7.1870 C.ar  172  HIS172      0.0818
     79  ND1       -3.2850   -2.1260    7.2590 N.ar  172  HIS172     -0.2268
     80  CD2       -3.7050   -3.9030    8.4580 C.ar  172  HIS172      0.1154
     81  CE1       -2.8110   -1.8900    8.4820 C.ar  172  HIS172      0.1986
     82  NE2       -3.0650   -2.9390    9.2040 N.ar  172  HIS172     -0.2212
     83  N         -4.4750   -7.0360    6.7530 N.am  173  GLU173     -0.1979
     84  CA        -4.3520   -8.1010    7.7690 C.3   173  GLU173      0.1602
     85  C         -3.4820   -9.2870    7.3170 C.2   173  GLU173      0.2287
     86  O         -2.6900   -9.7730    8.1070 O.2   173  GLU173     -0.2864
     87  CB        -5.7260   -8.5380    8.2480 C.3   173  GLU173      0.0415
     88  CG        -6.5830   -7.4860    8.8660 C.3   173  GLU173      0.1163
     89  CD        -5.9590   -6.4910    9.8610 C.2   173  GLU173      0.3649
     90  OE1       -5.0380   -6.9380   10.6050 O.co2 173  GLU173     -0.2457
     91  OE2       -6.4910   -5.3700    9.9870 O.co2 173  GLU173     -0.2457
     92  N          0.1150   -8.6500    7.8890 N.3   176  HIS176     -0.1241
     93  CA         0.6210   -8.9090    9.1900 C.3   176  HIS176      0.1621
     94  C          1.0990  -10.3320    9.3980 C.2   176  HIS176      0.2264
     95  O          2.0730  -10.5260   10.1480 O.2   176  HIS176     -0.2867
     96  CB        -0.4070   -8.5900   10.3060 C.3   176  HIS176      0.0745
     97  CG        -0.5500   -7.1420   10.6470 C.ar  176  HIS176      0.0817
     98  ND1        0.5490   -6.3340   10.9780 N.ar  176  HIS176     -0.2268
     99  CD2       -1.6330   -6.3270   10.6820 C.ar  176  HIS176      0.1154
    100  CE1        0.1250   -5.1380   11.2470 C.ar  176  HIS176      0.1986
    101  NE2       -1.1640   -5.1070   11.0370 N.ar  176  HIS176     -0.2212
@<TRIPOS>BOND
     1    65    63    1
     2    25    26    1
     3    63    62    1
     4    27    26    1
     5    27    28    2
     6    58    59    1
     7    26    29    1
     8    59    62    1
     9    59    60    1
    10    62    64    1
    11    32    30    1
    12    29    30    1
    13    30    31    1
    14    60    61    2
    15    60    66   am
    16    44    43   ar
    17    66    67    1
    18    33    34    1
    19    34    35    1
    20    73    74    1
    21    43    42    1
    22    43    45   ar
    23    67    68    1
    24    67    70    1
    25    42    41    1
    26    68    69    2
    27    35    36    2
    28    35    37   am
    29    74    77    1
    30    74    75    1
    31    70    72    1
    32    70    71    1
    33    37    38    1
    34    77    78    1
    35    41    38    1
    36    75    83   am
    37    75    76    2
    38    38    39    1
    39    83    84    1
    40    78    79   ar
    41    78    80   ar
    42    79    81   ar
    43    85    84    1
    44    85    86    2
    45    84    87    1
    46    92    93    1
    47    39    40    2
    48    39    46   am
    49    87    88    1
    50    80    82   ar
    51    81    82   ar
    52    88    89    1
    53    46    47    1
    54    93    94    1
    55    93    96    1
    56    11     9    1
    57    94    95    2
    58     9    10    1
    59     9     6    1
    60    89    91   ar
    61    89    90   ar
    62    49    48    2
    63    47    48    1
    64     8     7    2
    65    96    97    1
    66    97    99   ar
    67    97    98   ar
    68    99   101   ar
    69    98   100   ar
    70     7     6    1
    71     7    12   am
    72   101   100   ar
    73     6     5    1
    74    13    12    1
    75    13    14    1
    76     5     3   am
    77    14    15    1
    78     3     4    2
    79     3     2    1
    80    23    22    2
    81     2     1    1
    82    22    24   am
    83    22    21    1
    84    50    51    1
    85    21    20    1
    86    16    17    1
    87    56    55    1
    88    55    54    1
    89    55    57    1
    90    51    54    1
    91    51    52    1
    92    20    17    1
    93    17    18    1
    94    52    53    2
    95    18    19    2
