@<TRIPOS>MOLECULE
tmp/5jf7A00.pdb
 120 113 0 0 0
SMALL
GASTEIGER

@<TRIPOS>ATOM
      1  N        -10.1500    2.6280   20.3910 N.3    67  ARG67      -0.1245
      2  CA       -10.7060    3.3310   19.2210 C.3    67  ARG67       0.1563
      3  C        -11.2960    2.3870   18.1910 C.2    67  ARG67       0.2260
      4  O        -10.9500    1.2060   18.1520 O.2    67  ARG67      -0.2867
      5  CB        -9.6360    4.2060   18.5590 C.3    67  ARG67       0.0307
      6  CG        -8.2620    3.5640   18.2960 C.3    67  ARG67       0.0489
      7  CD        -7.1270    4.5740   18.0420 C.3    67  ARG67       0.2205
      8  NE        -5.9810    4.0520   17.2780 N.pl3  67  ARG67      -0.0865
      9  CZ        -5.9680    3.9110   15.9240 C.cat  67  ARG67       0.5346
     10  NH1       -7.0320    4.2380   15.1640 N.pl3  67  ARG67       0.1354
     11  NH2       -4.8780    3.4060   15.3190 N.pl3  67  ARG67       0.1354
     12  N        -12.2410    0.3410   14.8680 N.3    69  GLY69      -0.1210
     13  CA       -11.2840   -0.4320   14.0450 C.3    69  GLY69       0.1956
     14  C        -12.0870   -1.4680   13.3140 C.2    69  GLY69       0.2612
     15  O        -13.2250   -1.7840   13.7480 O.2    69  GLY69      -0.2717
     16  N        -11.5600   -1.9630   12.2100 N.am   70  VAL70      -0.1965
     17  CA       -12.2780   -2.9350   11.3760 C.3    70  VAL70       0.1727
     18  C        -11.5660   -4.2940   11.1200 C.2    70  VAL70       0.2616
     19  O        -12.0740   -5.1270   10.3500 O.2    70  VAL70      -0.2715
     20  CB       -12.6640   -2.2730    9.9710 C.3    70  VAL70       0.0290
     21  CG1      -13.6670   -1.1080   10.1990 C.3    70  VAL70       0.0023
     22  CG2      -11.4160   -1.7930    9.2800 C.3    70  VAL70       0.0023
     23  N        -10.3560   -4.4400   11.6250 N.am   71  GLY71      -0.1955
     24  CA        -9.5260   -5.5980   11.3290 C.3    71  GLY71       0.1869
     25  C         -8.5630   -5.8400   12.4770 C.2    71  GLY71       0.2309
     26  O         -8.1450   -4.9430   13.1570 O.2    71  GLY71      -0.2863
     27  N         -0.6590   -9.2970   16.1550 N.3    76  GLN76      -0.1245
     28  CA        -0.7080   -8.0360   16.8930 C.3    76  GLN76       0.1566
     29  C         -0.9360   -8.2580   18.3650 C.2    76  GLN76       0.2260
     30  O         -0.7340   -7.3450   19.1720 O.2    76  GLN76      -0.2867
     31  CB        -1.8630   -7.2000   16.3500 C.3    76  GLN76       0.0367
     32  CG        -1.5810   -6.6030   15.0040 C.3    76  GLN76       0.0905
     33  CD        -2.7360   -5.7420   14.4370 C.2    76  GLN76       0.2608
     34  OE1       -3.7370   -6.2590   13.9050 O.2    76  GLN76      -0.2717
     35  NE2       -2.5640   -4.4320   14.4870 N.am   76  GLN76      -0.0878
     36  N         -6.5590    3.9220   -0.2080 N.3   124  LEU124     -0.1245
     37  CA        -7.4660    4.8300    0.4270 C.3   124  LEU124      0.1561
     38  C         -6.9510    6.2680    0.3680 C.2   124  LEU124      0.2260
     39  O         -5.7480    6.5390    0.5920 O.2   124  LEU124     -0.2867
     40  CB        -7.6700    4.5070    1.8950 C.3   124  LEU124      0.0270
     41  CG        -8.1140    3.1090    2.2350 C.3   124  LEU124      0.0019
     42  CD1       -8.2610    2.9080    3.7760 C.3   124  LEU124      0.0001
     43  CD2       -9.4290    2.9000    1.5260 C.3   124  LEU124      0.0001
     44  N         -3.6940    5.0310    5.7420 N.3   128  GLU128     -0.1231
     45  CA        -4.0980    3.9540    6.6400 C.3   128  GLU128      0.1699
     46  C         -3.4850    4.2630    7.9880 C.2   128  GLU128      0.2592
     47  O         -2.6970    5.1300    8.0620 O.2   128  GLU128     -0.2718
     48  CB        -3.5980    2.5450    6.1240 C.3   128  GLU128      0.0402
     49  CG        -4.2640    2.1000    4.7700 C.3   128  GLU128      0.1161
     50  CD        -3.9830    0.6620    4.3190 C.2   128  GLU128      0.3649
     51  OE1       -4.3360    0.3380    3.1860 O.co2 128  GLU128     -0.2457
     52  OE2       -3.4900   -0.1780    5.1370 O.co2 128  GLU128     -0.2457
     53  N         -3.7560    3.4610    9.0050 N.am  129  GLY129     -0.1957
     54  CA        -3.1270    3.5790   10.3450 C.3   129  GLY129      0.1869
     55  C         -3.0680    2.1500   10.9300 C.2   129  GLY129      0.2309
     56  O         -3.3950    1.2010   10.2160 O.2   129  GLY129     -0.2863
     57  N         -3.0770   -0.0470   14.8960 N.3   130  LEU130     -0.1245
     58  CA        -3.0320   -0.0800   16.3500 C.3   130  LEU130      0.1561
     59  C         -1.6740   -0.3150   16.9320 C.2   130  LEU130      0.2260
     60  O         -1.4200    0.1390   18.0230 O.2   130  LEU130     -0.2867
     61  CB        -3.9300   -1.1790   16.9030 C.3   130  LEU130      0.0270
     62  CG        -5.4330   -1.1010   16.6130 C.3   130  LEU130      0.0019
     63  CD1       -6.0880   -2.4820   16.6700 C.3   130  LEU130      0.0001
     64  CD2       -6.1320   -0.1690   17.5810 C.3   130  LEU130      0.0001
     65  N        -13.3670   -0.9760   -0.3620 N.3   165  TYR165     -0.1241
     66  CA       -12.8160   -0.8870    0.9920 C.3   165  TYR165      0.1605
     67  C        -12.5670   -2.2530    1.6440 C.2   165  TYR165      0.2264
     68  O        -11.6050   -2.4220    2.4150 O.2   165  TYR165     -0.2867
     69  CB       -13.7570    0.0120    1.8460 C.3   165  TYR165      0.0534
     70  CG       -13.3020    0.2750    3.2210 C.ar  165  TYR165     -0.0201
     71  CD1      -13.9870   -0.1370    4.2540 C.ar  165  TYR165     -0.0009
     72  CD2      -12.1000    0.9800    3.4780 C.ar  165  TYR165     -0.0009
     73  CE1      -13.5920    0.1880    5.5470 C.ar  165  TYR165      0.0417
     74  CE2      -11.6430    1.2590    4.7730 C.ar  165  TYR165      0.0417
     75  CZ       -12.4330    0.8610    5.8160 C.ar  165  TYR165      0.1957
     76  OH       -12.0920    1.1380    7.0840 O.3   165  TYR165     -0.2866
     77  N         -9.2970   -3.6760    0.6110 N.3   168  ILE168     -0.1231
     78  CA        -8.2040   -2.9730    1.2380 C.3   168  ILE168      0.1692
     79  C         -8.0390   -3.4950    2.6860 C.2   168  ILE168      0.2591
     80  O         -6.9760   -3.8110    3.0980 O.2   168  ILE168     -0.2718
     81  CB        -8.4320   -1.4530    1.2990 C.3   168  ILE168      0.0266
     82  CG1       -8.5960   -0.8350   -0.0910 C.3   168  ILE168      0.0019
     83  CG2       -7.3900   -0.7540    2.1600 C.3   168  ILE168      0.0020
     84  CD1       -7.3620   -0.6930   -0.9320 C.3   168  ILE168      0.0001
     85  N         -9.1380   -3.7500    3.3570 N.am  169  VAL169     -0.1980
     86  CA        -9.0580   -4.1940    4.7380 C.3   169  VAL169      0.1595
     87  C         -8.4580   -5.5610    4.8460 C.2   169  VAL169      0.2287
     88  O         -7.6060   -5.7900    5.6770 O.2   169  VAL169     -0.2864
     89  CB       -10.4610   -4.1560    5.3950 C.3   169  VAL169      0.0276
     90  CG1      -10.4430   -4.7890    6.7740 C.3   169  VAL169      0.0022
     91  CG2      -10.9300   -2.6850    5.4890 C.3   169  VAL169      0.0022
     92  N         -4.6850   -5.5580    4.1980 N.3   172  HIS172     -0.1226
     93  CA        -3.9780   -5.0510    5.3510 C.3   172  HIS172      0.1752
     94  C         -3.7260   -6.1750    6.4460 C.2   172  HIS172      0.2595
     95  O         -2.5910   -6.3900    6.9010 O.2   172  HIS172     -0.2718
     96  CB        -4.7580   -3.8590    5.9510 C.3   172  HIS172      0.0759
     97  CG        -4.1350   -3.2830    7.1800 C.ar  172  HIS172      0.0818
     98  ND1       -3.6460   -2.0070    7.2290 N.ar  172  HIS172     -0.2268
     99  CD2       -4.0110   -3.7690    8.4360 C.ar  172  HIS172      0.1154
    100  CE1       -3.1470   -1.7690    8.4270 C.ar  172  HIS172      0.1986
    101  NE2       -3.3750   -2.8160    9.1750 N.ar  172  HIS172     -0.2212
    102  N         -4.7890   -6.9150    6.8020 N.am  173  GLU173     -0.1979
    103  CA        -4.6850   -8.0770    7.7470 C.3   173  GLU173      0.1602
    104  C         -3.9140   -9.2770    7.2980 C.2   173  GLU173      0.2287
    105  O         -3.0810   -9.7800    8.0750 O.2   173  GLU173     -0.2864
    106  CB        -6.0490   -8.5190    8.2900 C.3   173  GLU173      0.0415
    107  CG        -6.8640   -7.3510    8.8490 C.3   173  GLU173      0.1163
    108  CD        -6.1820   -6.5260    9.8990 C.2   173  GLU173      0.3649
    109  OE1       -6.6000   -5.3290   10.0410 O.co2 173  GLU173     -0.2457
    110  OE2       -5.2340   -7.0310   10.5700 O.co2 173  GLU173     -0.2457
    111  N         -0.2750   -8.6090    7.7970 N.3   176  HIS176     -0.1241
    112  CA         0.2860   -8.8330    9.1210 C.3   176  HIS176      0.1621
    113  C          0.7440  -10.2540    9.3540 C.2   176  HIS176      0.2264
    114  O          1.6660  -10.4740   10.1220 O.2   176  HIS176     -0.2867
    115  CB        -0.7280   -8.5580   10.1980 C.3   176  HIS176      0.0745
    116  CG        -0.8510   -7.1440   10.5790 C.ar  176  HIS176      0.0817
    117  ND1        0.2130   -6.3570   10.9780 N.ar  176  HIS176     -0.2268
    118  CD2       -1.9380   -6.3580   10.6360 C.ar  176  HIS176      0.1154
    119  CE1       -0.2420   -5.1420   11.2480 C.ar  176  HIS176      0.1986
    120  NE2       -1.5420   -5.1300   11.0560 N.ar  176  HIS176     -0.2212
@<TRIPOS>BOND
     1    84    82    1
     2    65    66    1
     3    36    37    1
     4    82    81    1
     5    38    37    1
     6    38    39    2
     7    37    40    1
     8    77    78    1
     9    66    67    1
    10    66    69    1
    11    78    81    1
    12    78    79    1
    13    81    83    1
    14    43    41    1
    15    67    68    2
    16    69    70    1
    17    40    41    1
    18    41    42    1
    19    79    80    2
    20    79    85   am
    21    51    50   ar
    22    70    72   ar
    23    70    71   ar
    24    85    86    1
    25    72    74   ar
    26    92    93    1
    27    71    73   ar
    28    50    49    1
    29    50    52   ar
    30    86    87    1
    31    86    89    1
    32    49    48    1
    33    74    75   ar
    34    87    88    2
    35    93    96    1
    36    93    94    1
    37    89    91    1
    38    89    90    1
    39    73    75   ar
    40    44    45    1
    41    75    76    1
    42    96    97    1
    43    48    45    1
    44    94   102   am
    45    94    95    2
    46    45    46    1
    47   102   103    1
    48    97    98   ar
    49    97    99   ar
    50    98   100   ar
    51   104   103    1
    52   104   105    2
    53   103   106    1
    54   111   112    1
    55    46    47    2
    56    46    53   am
    57   106   107    1
    58   100   101   ar
    59    99   101   ar
    60   107   108    1
    61    53    54    1
    62   112   113    1
    63   112   115    1
    64    22    20    1
    65   113   114    2
    66   108   109   ar
    67   108   110   ar
    68    20    21    1
    69    20    17    1
    70   115   116    1
    71    56    55    2
    72    54    55    1
    73    19    18    2
    74   116   118   ar
    75   116   117   ar
    76   118   120   ar
    77   117   119   ar
    78   120   119   ar
    79    18    17    1
    80    18    23   am
    81    24    23    1
    82    24    25    1
    83    17    16    1
    84    16    14   am
    85    25    26    2
    86    14    15    2
    87    14    13    1
    88    34    33    2
    89    13    12    1
    90    33    35   am
    91    33    32    1
    92    57    58    1
    93    32    31    1
    94    10     9    1
    95    11     9    1
    96     9     8    2
    97    27    28    1
    98    31    28    1
    99    58    61    1
   100    58    59    1
   101    62    63    1
   102    62    61    1
   103    62    64    1
   104    28    29    1
   105    59    60    2
   106     8     7    1
   107     7     6    1
   108     4     3    2
   109     3     2    1
   110     6     5    1
   111    29    30    2
   112     5     2    1
   113     2     1    1
