@<TRIPOS>MOLECULE
tmp/5jf8A00.pdb
 124 118 0 0 0
SMALL
GASTEIGER

@<TRIPOS>ATOM
      1  N         -9.9730    2.6250   20.2640 N.3    67  ARG67      -0.1231
      2  CA       -10.3960    3.3580   19.0720 C.3    67  ARG67       0.1694
      3  C        -11.1290    2.3930   18.1180 C.2    67  ARG67       0.2593
      4  O        -10.8570    1.1900   18.1090 O.2    67  ARG67      -0.2718
      5  CB        -9.1870    4.0120   18.3840 C.3    67  ARG67       0.0321
      6  CG        -8.4200    4.9910   19.2640 C.3    67  ARG67       0.0489
      7  CD        -7.5580    5.9040   18.3940 C.3    67  ARG67       0.2205
      8  NE        -6.6020    5.1280   17.6030 N.pl3  67  ARG67      -0.0865
      9  CZ        -5.3840    4.7860   18.0090 C.cat  67  ARG67       0.5346
     10  NH1       -4.9360    5.1470   19.2060 N.pl3  67  ARG67       0.1354
     11  NH2       -4.5860    4.0820   17.2130 N.pl3  67  ARG67       0.1354
     12  N        -12.0660    2.9160   17.3330 N.am   68  GLY68      -0.1942
     13  CA       -12.7770    2.1240   16.3160 C.3    68  GLY68       0.2014
     14  C        -11.7880    1.5240   15.3270 C.2    68  GLY68       0.2639
     15  O        -10.7580    2.1330   15.0180 O.2    68  GLY68      -0.2714
     16  N        -12.0820    0.3060   14.8770 N.am   69  GLY69      -0.1939
     17  CA       -11.1980   -0.4670   13.9900 C.3    69  GLY69       0.2014
     18  C        -12.0260   -1.5270   13.2810 C.2    69  GLY69       0.2639
     19  O        -13.0960   -1.9170   13.7800 O.2    69  GLY69      -0.2714
     20  N        -11.5050   -2.0310   12.1600 N.am   70  VAL70      -0.1963
     21  CA       -12.2190   -2.9770   11.3080 C.3    70  VAL70       0.1727
     22  C        -11.4280   -4.2920   11.0820 C.2    70  VAL70       0.2616
     23  O        -11.9140   -5.2280   10.4270 O.2    70  VAL70      -0.2715
     24  CB       -12.5640   -2.3430    9.9270 C.3    70  VAL70       0.0290
     25  CG1      -13.5260   -1.1270   10.1100 C.3    70  VAL70       0.0023
     26  CG2      -11.2730   -1.9740    9.1530 C.3    70  VAL70       0.0023
     27  N        -10.2060   -4.3370   11.6130 N.am   71  GLY71      -0.1955
     28  CA        -9.3460   -5.4830   11.4190 C.3    71  GLY71       0.1869
     29  C         -8.3690   -5.6620   12.5510 C.2    71  GLY71       0.2309
     30  O         -7.9910   -4.6750   13.2430 O.2    71  GLY71      -0.2863
     31  N         -0.3220   -9.1970   16.0220 N.3    76  GLN76      -0.1245
     32  CA        -0.4600   -7.9370   16.7520 C.3    76  GLN76       0.1566
     33  C         -0.7070   -8.1760   18.2440 C.2    76  GLN76       0.2260
     34  O         -0.5280   -7.2630   19.0510 O.2    76  GLN76      -0.2867
     35  CB        -1.6140   -7.1120   16.1720 C.3    76  GLN76       0.0367
     36  CG        -1.3880   -6.6050   14.7620 C.3    76  GLN76       0.0905
     37  CD        -2.5040   -5.6560   14.3150 C.2    76  GLN76       0.2608
     38  OE1       -3.5850   -6.0940   13.9560 O.2    76  GLN76      -0.2717
     39  NE2       -2.2300   -4.3540   14.3370 N.am   76  GLN76      -0.0878
     40  N         -6.3020    3.9240   -0.1640 N.3   124  LEU124     -0.1245
     41  CA        -7.1770    4.7920    0.5930 C.3   124  LEU124      0.1561
     42  C         -6.7070    6.2590    0.5210 C.2   124  LEU124      0.2260
     43  O         -5.5210    6.5410    0.7020 O.2   124  LEU124     -0.2867
     44  CB        -7.2240    4.2810    2.0390 C.3   124  LEU124      0.0270
     45  CG        -7.9020    2.9390    2.3250 C.3   124  LEU124      0.0019
     46  CD1       -8.0480    2.7680    3.8330 C.3   124  LEU124      0.0001
     47  CD2       -9.2690    2.8230    1.6120 C.3   124  LEU124      0.0001
     48  N         -3.3420    4.9300    5.7700 N.3   128  GLU128     -0.1231
     49  CA        -3.6950    3.8540    6.6840 C.3   128  GLU128      0.1699
     50  C         -3.0660    4.1280    8.0490 C.2   128  GLU128      0.2592
     51  O         -2.0940    4.8770    8.1460 O.2   128  GLU128     -0.2718
     52  CB        -3.2550    2.4880    6.1470 C.3   128  GLU128      0.0402
     53  CG        -4.0090    2.0350    4.8210 C.3   128  GLU128      0.1161
     54  CD        -3.7330    0.5640    4.3670 C.2   128  GLU128      0.3649
     55  OE1       -4.1060    0.2370    3.2260 O.co2 128  GLU128     -0.2457
     56  OE2       -3.1440   -0.2600    5.1180 O.co2 128  GLU128     -0.2457
     57  N         -3.6150    3.4930    9.0850 N.am  129  GLY129     -0.1957
     58  CA        -3.0590    3.5260   10.4400 C.3   129  GLY129      0.1869
     59  C         -2.7730    2.0970   10.9220 C.2   129  GLY129      0.2309
     60  O         -2.9510    1.1180   10.1830 O.2   129  GLY129     -0.2863
     61  N         -2.6790   -0.0210   14.9110 N.3   130  LEU130     -0.1245
     62  CA        -2.6940   -0.0990   16.3780 C.3   130  LEU130      0.1561
     63  C         -1.3140   -0.2310   17.0150 C.2   130  LEU130      0.2260
     64  O         -1.1210    0.2220   18.1400 O.2   130  LEU130     -0.2867
     65  CB        -3.5810   -1.2680   16.8500 C.3   130  LEU130      0.0270
     66  CG        -5.0820   -0.9390   16.8690 C.3   130  LEU130      0.0019
     67  CD1       -5.8810   -2.1560   17.3170 C.3   130  LEU130      0.0001
     68  CD2       -5.4020    0.2570   17.7780 C.3   130  LEU130      0.0001
     69  N        -13.0770   -0.8750   -0.4130 N.3   165  TYR165     -0.1241
     70  CA       -12.5500   -0.8490    0.9520 C.3   165  TYR165      0.1605
     71  C        -12.2950   -2.2360    1.5770 C.2   165  TYR165      0.2264
     72  O        -11.2480   -2.4650    2.2030 O.2   165  TYR165     -0.2867
     73  CB       -13.5030    0.0030    1.8130 C.3   165  TYR165      0.0534
     74  CG       -13.0130    0.2860    3.2070 C.ar  165  TYR165     -0.0201
     75  CD1      -13.6100   -0.3240    4.2950 C.ar  165  TYR165     -0.0009
     76  CD2      -11.9570    1.1750    3.4400 C.ar  165  TYR165     -0.0009
     77  CE1      -13.1820   -0.0660    5.5840 C.ar  165  TYR165      0.0417
     78  CE2      -11.5190    1.4360    4.7430 C.ar  165  TYR165      0.0417
     79  CZ       -12.1470    0.8060    5.8040 C.ar  165  TYR165      0.1957
     80  OH       -11.7360    1.0180    7.1030 O.3   165  TYR165     -0.2866
     81  N         -8.9220   -3.6600    0.5270 N.3   168  ILE168     -0.1231
     82  CA        -7.8630   -2.9330    1.2850 C.3   168  ILE168      0.1692
     83  C         -7.7200   -3.5450    2.6820 C.2   168  ILE168      0.2591
     84  O         -6.6110   -3.8610    3.1190 O.2   168  ILE168     -0.2718
     85  CB        -8.1270   -1.3600    1.3700 C.3   168  ILE168      0.0266
     86  CG1       -8.2070   -0.6910   -0.0230 C.3   168  ILE168      0.0019
     87  CG2       -7.0660   -0.6270    2.2520 C.3   168  ILE168      0.0020
     88  CD1       -6.9820   -0.8630   -0.8680 C.3   168  ILE168      0.0001
     89  N         -8.8540   -3.7510    3.3520 N.am  169  VAL169     -0.1980
     90  CA        -8.8620   -4.2800    4.7130 C.3   169  VAL169      0.1595
     91  C         -8.2310   -5.6610    4.8190 C.2   169  VAL169      0.2287
     92  O         -7.3590   -5.8850    5.6540 O.2   169  VAL169     -0.2864
     93  CB       -10.2940   -4.2460    5.3160 C.3   169  VAL169      0.0276
     94  CG1      -10.3750   -5.0960    6.6200 C.3   169  VAL169      0.0022
     95  CG2      -10.7280   -2.8150    5.5480 C.3   169  VAL169      0.0022
     96  N         -4.4730   -5.6060    4.1890 N.3   172  HIS172     -0.1226
     97  CA        -3.7450   -5.0860    5.3180 C.3   172  HIS172      0.1752
     98  C         -3.5670   -6.1720    6.4050 C.2   172  HIS172      0.2595
     99  O         -2.4590   -6.4320    6.9350 O.2   172  HIS172     -0.2718
    100  CB        -4.5170   -3.8780    5.8840 C.3   172  HIS172      0.0759
    101  CG        -3.8970   -3.2960    7.1170 C.ar  172  HIS172      0.0818
    102  ND1       -3.4640   -1.9910    7.1760 N.ar  172  HIS172     -0.2268
    103  CD2       -3.6750   -3.8210    8.3480 C.ar  172  HIS172      0.1154
    104  CE1       -2.9620   -1.7440    8.3740 C.ar  172  HIS172      0.1986
    105  NE2       -3.1000   -2.8280    9.1110 N.ar  172  HIS172     -0.2212
    106  N         -4.6570   -6.8410    6.7340 N.am  173  GLU173     -0.1979
    107  CA        -4.5500   -7.9580    7.6850 C.3   173  GLU173      0.1602
    108  C         -3.6530   -9.1080    7.2250 C.2   173  GLU173      0.2287
    109  O         -2.8190   -9.5710    8.0040 O.2   173  GLU173     -0.2864
    110  CB        -5.9350   -8.4660    8.1260 C.3   173  GLU173      0.0415
    111  CG        -6.8190   -7.4030    8.8310 C.3   173  GLU173      0.1163
    112  CD        -6.0720   -6.5550    9.8590 C.2   173  GLU173      0.3649
    113  OE1       -5.2080   -7.0980   10.5890 O.co2 173  GLU173     -0.2457
    114  OE2       -6.3650   -5.3270    9.9310 O.co2 173  GLU173     -0.2457
    115  N         -0.0130   -8.4650    7.8130 N.3   176  HIS176     -0.1241
    116  CA         0.4320   -8.7570    9.1830 C.3   176  HIS176      0.1621
    117  C          0.8780  -10.1970    9.3800 C.2   176  HIS176      0.2264
    118  O          1.8620  -10.4480   10.0890 O.2   176  HIS176     -0.2867
    119  CB        -0.6460   -8.4360   10.2260 C.3   176  HIS176      0.0745
    120  CG        -0.7240   -6.9960   10.5950 C.ar  176  HIS176      0.0817
    121  ND1        0.3820   -6.2670   10.9930 N.ar  176  HIS176     -0.2268
    122  CD2       -1.7800   -6.1570   10.6720 C.ar  176  HIS176      0.1154
    123  CE1        0.0080   -5.0310   11.2670 C.ar  176  HIS176      0.1986
    124  NE2       -1.2970   -4.9380   11.0800 N.ar  176  HIS176     -0.2212
@<TRIPOS>BOND
     1    88    86    1
     2    69    70    1
     3    40    41    1
     4    86    85    1
     5    42    41    1
     6    42    43    2
     7    81    82    1
     8    41    44    1
     9    70    71    1
    10    70    73    1
    11    82    85    1
    12    82    83    1
    13    85    87    1
    14    71    72    2
    15    47    45    1
    16    73    74    1
    17    44    45    1
    18    45    46    1
    19    83    84    2
    20    83    89   am
    21    74    76   ar
    22    74    75   ar
    23    55    54   ar
    24    89    90    1
    25    76    78   ar
    26    96    97    1
    27    75    77   ar
    28    54    53    1
    29    54    56   ar
    30    90    91    1
    31    90    93    1
    32    78    79   ar
    33    91    92    2
    34    53    52    1
    35    93    95    1
    36    93    94    1
    37    97   100    1
    38    97    98    1
    39    77    79   ar
    40    48    49    1
    41    79    80    1
    42   100   101    1
    43    52    49    1
    44    98   106   am
    45    98    99    2
    46    49    50    1
    47   106   107    1
    48   101   102   ar
    49   101   103   ar
    50   102   104   ar
    51   108   107    1
    52   108   109    2
    53   107   110    1
    54   115   116    1
    55    50    51    2
    56    50    57   am
    57   110   111    1
    58   103   105   ar
    59   104   105   ar
    60   111   112    1
    61    57    58    1
    62    26    24    1
    63   116   117    1
    64   116   119    1
    65   117   118    2
    66   112   114   ar
    67   112   113   ar
    68    24    25    1
    69    24    21    1
    70    60    59    2
    71   119   120    1
    72    23    22    2
    73    58    59    1
    74   120   122   ar
    75   120   121   ar
    76   122   124   ar
    77   121   123   ar
    78   124   123   ar
    79    22    21    1
    80    22    27   am
    81    21    20    1
    82    28    27    1
    83    28    29    1
    84    20    18   am
    85    29    30    2
    86    18    19    2
    87    18    17    1
    88    38    37    2
    89    17    16    1
    90    37    39   am
    91    37    36    1
    92    36    35    1
    93    16    14   am
    94    61    62    1
    95    15    14    2
    96    14    13    1
    97    31    32    1
    98    35    32    1
    99    13    12    1
   100    62    65    1
   101    62    63    1
   102    32    33    1
   103    65    66    1
   104    66    67    1
   105    66    68    1
   106    63    64    2
   107    11     9    1
   108    12     3   am
   109     8     9    2
   110     8     7    1
   111     9    10    1
   112     4     3    2
   113     3     2    1
   114    33    34    2
   115     5     2    1
   116     5     6    1
   117     7     6    1
   118     2     1    1
