@<TRIPOS>MOLECULE
tmp/5jfgA00.pdb
 142 138 0 0 0
SMALL
GASTEIGER

@<TRIPOS>ATOM
      1  N         17.7460   -2.0730   40.0720 N.3    62  MET62      -0.1230
      2  CA        18.9500   -1.5060   39.4390 C.3    62  MET62       0.1702
      3  C         18.4630   -0.5200   38.3660 C.2    62  MET62       0.2592
      4  O         17.5770   -0.8610   37.6000 O.2    62  MET62      -0.2718
      5  CB        19.8180   -2.6120   38.8450 C.3    62  MET62       0.0401
      6  CG        20.2870   -3.6080   39.8930 C.3    62  MET62       0.0596
      7  SD        21.5750   -4.7400   39.2890 S.3    62  MET62      -0.1393
      8  CE        22.9540   -3.5900   39.2040 C.3    62  MET62       0.0692
      9  N         18.9980    0.7000   38.3440 N.am   63  TYR63      -0.1962
     10  CA        18.5500    1.7570   37.4560 C.3    63  TYR63       0.1771
     11  C         19.6990    2.2800   36.6660 C.2    63  TYR63       0.2619
     12  O         20.6010    2.9030   37.2200 O.2    63  TYR63      -0.2715
     13  CB        17.9160    2.8760   38.2910 C.3    63  TYR63       0.0574
     14  CG        16.9870    3.8140   37.5630 C.ar   63  TYR63      -0.0198
     15  CD1       17.4630    4.6860   36.5910 C.ar   63  TYR63      -0.0009
     16  CD2       15.6580    3.9290   37.9390 C.ar   63  TYR63      -0.0009
     17  CE1       16.6140    5.5910   35.9550 C.ar   63  TYR63       0.0417
     18  CE2       14.8130    4.8420   37.3350 C.ar   63  TYR63       0.0417
     19  CZ        15.2940    5.6850   36.3550 C.ar   63  TYR63       0.1957
     20  OH        14.4410    6.5960   35.7910 O.3    63  TYR63      -0.2866
     21  N         19.6340    2.0790   35.3480 N.am   64  ILE64      -0.1977
     22  CA        20.6200    2.6060   34.4070 C.3    64  ILE64       0.1596
     23  C         19.9810    3.8850   33.8140 C.2    64  ILE64       0.2287
     24  O         18.9340    3.8300   33.1740 O.2    64  ILE64      -0.2864
     25  CB        21.0210    1.5800   33.3360 C.3    64  ILE64       0.0276
     26  CG1       21.7930    0.4130   33.9770 C.3    64  ILE64       0.0022
     27  CG2       21.8740    2.2770   32.2190 C.3    64  ILE64       0.0022
     28  CD1       22.1430   -0.7140   33.0530 C.3    64  ILE64       0.0001
     29  N         17.0370   10.1840   36.6940 N.3    70  PHE70      -0.1241
     30  CA        16.8910    9.6360   38.0330 C.3    70  PHE70       0.1605
     31  C         16.8150   10.6870   39.1190 C.2    70  PHE70       0.2264
     32  O         17.7060   11.5160   39.2420 O.2    70  PHE70      -0.2867
     33  CB        18.0220    8.6760   38.3020 C.3    70  PHE70       0.0534
     34  CG        17.9180    7.9010   39.5860 C.ar   70  PHE70      -0.0203
     35  CD1       16.9760    6.9010   39.7320 C.ar   70  PHE70      -0.0042
     36  CD2       18.7700    8.1670   40.6520 C.ar   70  PHE70      -0.0042
     37  CE1       16.9130    6.1460   40.8990 C.ar   70  PHE70      -0.0003
     38  CE2       18.6970    7.4190   41.8310 C.ar   70  PHE70      -0.0003
     39  CZ        17.7710    6.4090   41.9480 C.ar   70  PHE70      -0.0000
     40  N         16.4640   10.7630   43.1230 N.3    72  PRO72      -0.2116
     41  CA        16.3530   10.0950   44.4280 C.3    72  PRO72       0.1372
     42  C         15.2770   10.7050   45.3160 C.2    72  PRO72       0.2244
     43  O         14.6030    9.9680   45.9930 O.2    72  PRO72      -0.2868
     44  CB        17.7480   10.2790   45.0270 C.3    72  PRO72       0.0268
     45  CG        18.6120   10.5490   43.8950 C.3    72  PRO72       0.0207
     46  CD        17.8260   11.3030   42.9290 C.3    72  PRO72       0.0892
     47  N         15.7560    3.6980   49.2520 N.3    90  LEU90      -0.1231
     48  CA        16.8400    4.1640   48.4000 C.3    90  LEU90       0.1693
     49  C         18.0510    3.2410   48.4220 C.2    90  LEU90       0.2592
     50  O         18.7520    3.1250   47.4140 O.2    90  LEU90      -0.2718
     51  CB        17.2800    5.5520   48.8400 C.3    90  LEU90       0.0284
     52  CG        16.4130    6.6750   48.3670 C.3    90  LEU90       0.0019
     53  CD1       16.5440    7.8000   49.3140 C.3    90  LEU90       0.0001
     54  CD2       16.8230    7.1320   46.9700 C.3    90  LEU90       0.0001
     55  N         18.3060    2.5960   49.5680 N.am   91  ASP91      -0.1974
     56  CA        19.4190    1.6650   49.7000 C.3    91  ASP91       0.1709
     57  C         19.2440    0.4050   48.8530 C.2    91  ASP91       0.2293
     58  O         20.2210   -0.2750   48.5480 O.2    91  ASP91      -0.2864
     59  CB        19.6530    1.2730   51.1650 C.3    91  ASP91       0.1436
     60  CG        20.5210    2.2460   51.9380 C.2    91  ASP91       0.3671
     61  OD1       21.4320    2.8490   51.3220 O.co2  91  ASP91      -0.2456
     62  OD2       20.3230    2.3660   53.1710 O.co2  91  ASP91      -0.2456
     63  N         17.9700    0.5450   45.7790 N.3    93  VAL93      -0.1231
     64  CA        18.0150    0.9460   44.3770 C.3    93  VAL93       0.1692
     65  C         19.4670    1.2620   44.0360 C.2    93  VAL93       0.2592
     66  O         20.0300    2.2210   44.5690 O.2    93  VAL93      -0.2718
     67  CB        17.0500    2.0990   44.0060 C.3    93  VAL93       0.0266
     68  CG1       17.0570    2.3610   42.4900 C.3    93  VAL93       0.0020
     69  CG2       15.6390    1.7960   44.5150 C.3    93  VAL93       0.0020
     70  N         20.1040    0.3920   43.2470 N.am   94  ALA94      -0.1966
     71  CA        21.4710    0.6120   42.7870 C.3    94  ALA94       0.1728
     72  C         21.3610    1.3940   41.4670 C.2    94  ALA94       0.2616
     73  O         20.6160    1.0110   40.5630 O.2    94  ALA94      -0.2715
     74  CB        22.1840   -0.7030   42.6060 C.3    94  ALA94       0.0334
     75  N         22.0340    2.5260   41.3900 N.am   95  TYR95      -0.1960
     76  CA        21.9590    3.4610   40.2740 C.3    95  TYR95       0.1771
     77  C         23.2770    3.5470   39.5050 C.2    95  TYR95       0.2619
     78  O         24.3530    3.5180   40.1190 O.2    95  TYR95      -0.2715
     79  CB        21.6640    4.8340   40.9040 C.3    95  TYR95       0.0574
     80  CG        21.7380    5.9830   39.9430 C.ar   95  TYR95      -0.0198
     81  CD1       20.7610    6.1610   38.9760 C.ar   95  TYR95      -0.0009
     82  CD2       22.7740    6.9010   40.0010 C.ar   95  TYR95      -0.0009
     83  CE1       20.8090    7.2250   38.1010 C.ar   95  TYR95       0.0417
     84  CE2       22.8340    7.9750   39.1240 C.ar   95  TYR95       0.0417
     85  CZ        21.8450    8.1320   38.1700 C.ar   95  TYR95       0.1957
     86  OH        21.8170    9.2180   37.3310 O.3    95  TYR95      -0.2866
     87  N         23.2070    3.7580   38.1830 N.am   96  ALA96      -0.1963
     88  CA        24.4130    4.0660   37.4010 C.3    96  ALA96       0.1728
     89  C         24.0530    4.9800   36.2510 C.2    96  ALA96       0.2616
     90  O         22.9920    4.8300   35.6370 O.2    96  ALA96      -0.2715
     91  CB        25.0560    2.8140   36.8840 C.3    96  ALA96       0.0334
     92  N         24.9040    5.9730   35.9990 N.am   97  ARG97      -0.1977
     93  CA        24.7430    6.8480   34.8540 C.3    97  ARG97       0.1597
     94  C         25.5250    6.2490   33.7250 C.2    97  ARG97       0.2287
     95  O         26.7200    5.9600   33.8940 O.2    97  ARG97      -0.2864
     96  CB        25.2830    8.2630   35.1330 C.3    97  ARG97       0.0334
     97  CG        24.3940    8.9790   36.0860 C.3    97  ARG97       0.0492
     98  CD        24.8170   10.3940   36.4220 C.3    97  ARG97       0.2205
     99  NE        23.6780   11.1500   36.9460 N.pl3  97  ARG97      -0.0865
    100  CZ        23.5320   12.4720   36.9210 C.cat  97  ARG97       0.5346
    101  NH1       22.4490   13.0370   37.4370 N.pl3  97  ARG97       0.1354
    102  NH2       24.4740   13.2430   36.3840 N.pl3  97  ARG97       0.1354
    103  N         29.4410    2.3130   27.2150 N.3   103  HIS103     -0.1241
    104  CA        29.4560    2.2790   28.6740 C.3   103  HIS103      0.1621
    105  C         28.1470    1.6140   29.1390 C.2   103  HIS103      0.2264
    106  O         28.1410    0.8660   30.1110 O.2   103  HIS103     -0.2867
    107  CB        29.5770    3.6980   29.2740 C.3   103  HIS103      0.0745
    108  CG        29.6590    3.7190   30.7650 C.ar  103  HIS103      0.0817
    109  ND1       29.0130    4.6860   31.5140 N.ar  103  HIS103     -0.2268
    110  CD2       30.3130    2.8720   31.6010 C.ar  103  HIS103      0.1154
    111  CE1       29.3270    4.4180   32.7740 C.ar  103  HIS103      0.1986
    112  NE2       30.0960    3.3200   32.8640 N.ar  103  HIS103     -0.2212
    113  N         27.7640   -1.5240   31.5580 N.3   107  LEU107     -0.1245
    114  CA        26.9360   -1.4900   32.7640 C.3   107  LEU107      0.1561
    115  C         26.0140   -2.6780   32.8990 C.2   107  LEU107      0.2260
    116  O         25.7410   -3.0870   34.0150 O.2   107  LEU107     -0.2867
    117  CB        26.1310   -0.2000   32.8790 C.3   107  LEU107      0.0270
    118  CG        26.9530    1.0300   33.2740 C.3   107  LEU107      0.0019
    119  CD1       26.1150    2.2790   33.1350 C.3   107  LEU107      0.0001
    120  CD2       27.5150    0.9360   34.6910 C.3   107  LEU107      0.0001
    121  N         28.1050   -5.4630   34.2790 N.3   110  GLN110     -0.1231
    122  CA        28.2900   -5.2440   35.7100 C.3   110  GLN110      0.1698
    123  C         27.0220   -5.5270   36.4550 C.2   110  GLN110      0.2592
    124  O         27.0750   -6.0220   37.5860 O.2   110  GLN110     -0.2718
    125  CB        28.7380   -3.8200   36.0250 C.3   110  GLN110      0.0381
    126  CG        30.1010   -3.5480   35.4740 C.3   110  GLN110      0.0905
    127  CD        30.5240   -2.1480   35.7070 C.2   110  GLN110      0.2608
    128  OE1       30.1470   -1.2720   34.9690 O.2   110  GLN110     -0.2717
    129  NE2       31.2430   -1.8960   36.7590 N.am  110  GLN110     -0.0878
    130  N         25.8730   -5.2120   35.8510 N.am  111  ALA111     -0.1980
    131  CA        24.6000   -5.5130   36.5040 C.3   111  ALA111      0.1597
    132  C         24.5080   -7.0130   36.7570 C.2   111  ALA111      0.2287
    133  O         24.0100   -7.4220   37.8080 O.2   111  ALA111     -0.2864
    134  CB        23.4310   -5.0660   35.6380 C.3   111  ALA111      0.0319
    135  N         26.1580   -8.0840   40.0570 N.3   114  MET114     -0.1245
    136  CA        25.3690   -7.7940   41.2410 C.3   114  MET114      0.1570
    137  C         24.1800   -8.7440   41.3290 C.2   114  MET114      0.2261
    138  O         23.8830   -9.2340   42.4110 O.2   114  MET114     -0.2867
    139  CB        24.8900   -6.3410   41.2470 C.3   114  MET114      0.0387
    140  CG        24.2900   -5.9220   42.5660 C.3   114  MET114      0.0595
    141  SD        23.7390   -4.1990   42.5700 S.3   114  MET114     -0.1393
    142  CE        23.2730   -4.0450   44.2250 C.3   114  MET114      0.0692
@<TRIPOS>BOND
     1   103   104    1
     2   104   105    1
     3   104   107    1
     4   105   106    2
     5   107   108    1
     6   108   109   ar
     7   108   110   ar
     8   109   111   ar
     9   113   114    1
    10   110   112   ar
    11    27    25    1
    12   114   117    1
    13   114   115    1
    14   111   112   ar
    15   117   118    1
    16   115   116    2
    17    28    26    1
    18   119   118    1
    19    24    23    2
    20   118   120    1
    21    25    26    1
    22    25    22    1
    23    94    95    2
    24    94    93    1
    25    23    22    1
    26   121   122    1
    27    22    21    1
    28    93    96    1
    29    93    92    1
    30   128   127    2
    31    96    97    1
    32    21    11   am
    33   126   127    1
    34   126   125    1
    35    90    89    2
    36   134   131    1
    37   127   129   am
    38   122   125    1
    39   122   123    1
    40    20    19    1
    41   130   123   am
    42   130   131    1
    43    17    19   ar
    44    17    15   ar
    45    92    89   am
    46    97    98    1
    47    89    88    1
    48    19    18   ar
    49   102   100    1
    50    98    99    1
    51   123   124    2
    52   131   132    1
    53    15    14   ar
    54    11    12    2
    55    11    10    1
    56    29    30    1
    57   132   133    2
    58    91    88    1
    59   100    99    2
    60   100   101    1
    61    86    85    1
    62    18    16   ar
    63    88    87    1
    64    10    13    1
    65    10     9    1
    66    14    16   ar
    67    14    13    1
    68     4     3    2
    69    30    33    1
    70    30    31    1
    71    83    85   ar
    72    83    81   ar
    73    85    84   ar
    74    87    77   am
    75    33    34    1
    76     9     3   am
    77     3     2    1
    78     5     2    1
    79     5     6    1
    80    81    80   ar
    81    31    32    2
    82    84    82   ar
    83     8     7    1
    84     7     6    1
    85     2     1    1
    86    77    78    2
    87    77    76    1
    88    34    35   ar
    89    34    36   ar
    90    35    37   ar
    91    80    82   ar
    92    80    79    1
    93   135   136    1
    94    76    79    1
    95    76    75    1
    96    73    72    2
    97    36    38   ar
    98    37    39   ar
    99   136   139    1
   100   136   137    1
   101   139   140    1
   102   137   138    2
   103    75    72   am
   104    72    71    1
   105    38    39   ar
   106    68    67    1
   107   140   141    1
   108   141   142    1
   109    74    71    1
   110    71    70    1
   111    46    40    1
   112    46    45    1
   113    40    41    1
   114    70    65   am
   115    45    44    1
   116    67    64    1
   117    67    69    1
   118    65    64    1
   119    65    66    2
   120    64    63    1
   121    41    44    1
   122    41    42    1
   123    42    43    2
   124    54    52    1
   125    50    49    2
   126    52    51    1
   127    52    53    1
   128    48    49    1
   129    48    51    1
   130    48    47    1
   131    49    55   am
   132    58    57    2
   133    57    56    1
   134    55    56    1
   135    56    59    1
   136    59    60    1
   137    61    60   ar
   138    60    62   ar
