@<TRIPOS>MOLECULE
tmp/5jfnB01.pdb
 87 83 0 0 0
SMALL
GASTEIGER

@<TRIPOS>ATOM
      1  N        -35.2860  -32.9340    7.1200 N.3   325  PRO325     -0.2102
      2  CA       -35.4500  -31.6600    6.4130 C.3   325  PRO325      0.1504
      3  C        -35.6150  -30.5040    7.3880 C.2   325  PRO325      0.2576
      4  O        -35.9270  -30.6830    8.5670 O.2   325  PRO325     -0.2718
      5  CB       -36.7180  -31.8710    5.5790 C.3   325  PRO325      0.0282
      6  CG       -37.4370  -32.9930    6.2550 C.3   325  PRO325      0.0208
      7  CD       -36.3660  -33.8840    6.7930 C.3   325  PRO325      0.0893
      8  N        -35.4050  -29.2940    6.8650 N.am  326  ARG326     -0.1966
      9  CA       -35.4440  -28.0980    7.6970 C.3   326  ARG326      0.1729
     10  C        -36.8210  -27.8440    8.2950 C.2   326  ARG326      0.2616
     11  O        -36.9190  -27.1840    9.3350 O.2   326  ARG326     -0.2715
     12  CB       -35.0070  -26.8840    6.8780 C.3   326  ARG326      0.0348
     13  CG       -36.0270  -26.4410    5.8380 C.3   326  ARG326      0.0492
     14  CD       -35.3980  -25.5140    4.8120 C.3   326  ARG326      0.2205
     15  NE       -34.2640  -26.1480    4.1460 N.pl3 326  ARG326     -0.0865
     16  CZ       -33.5240  -25.5640    3.2070 C.cat 326  ARG326      0.5346
     17  NH1      -33.7950  -24.3260    2.8220 N.pl3 326  ARG326      0.1354
     18  NH2      -32.5110  -26.2170    2.6520 N.pl3 326  ARG326      0.1354
     19  N        -37.8830  -28.3420    7.6640 N.am  327  GLU327     -0.1977
     20  CA       -39.2360  -28.1120    8.1510 C.3   327  GLU327      0.1602
     21  C        -39.5860  -28.9720    9.3560 C.2   327  GLU327      0.2287
     22  O        -40.6050  -28.7080   10.0040 O.2   327  GLU327     -0.2864
     23  CB       -40.2540  -28.3750    7.0360 C.3   327  GLU327      0.0415
     24  CG       -40.1420  -27.4430    5.8430 C.3   327  GLU327      0.1163
     25  CD       -39.1230  -27.9110    4.8220 C.2   327  GLU327      0.3649
     26  OE1      -38.6590  -29.0690    4.9180 O.co2 327  GLU327     -0.2457
     27  OE2      -38.7880  -27.1180    3.9170 O.co2 327  GLU327     -0.2457
     28  N        -28.7660  -31.0660    6.1830 N.3   344  ARG344     -0.1231
     29  CA       -27.6440  -31.0640    5.2590 C.3   344  ARG344      0.1694
     30  C        -27.8880  -30.0030    4.1950 C.2   344  ARG344      0.2592
     31  O        -28.9800  -29.9340    3.6200 O.2   344  ARG344     -0.2718
     32  CB       -27.4830  -32.4480    4.6220 C.3   344  ARG344      0.0321
     33  CG       -26.2630  -32.6280    3.7350 C.3   344  ARG344      0.0489
     34  CD       -26.2690  -34.0300    3.1100 C.3   344  ARG344      0.2205
     35  NE       -26.3000  -35.0760    4.1300 N.pl3 344  ARG344     -0.0865
     36  CZ       -25.3310  -35.9660    4.3260 C.cat 344  ARG344      0.5346
     37  NH1      -24.2500  -35.9630    3.5560 N.pl3 344  ARG344      0.1354
     38  NH2      -25.4450  -36.8690    5.2900 N.pl3 344  ARG344      0.1354
     39  N        -26.8810  -29.1640    3.9510 N.am  345  VAL345     -0.1966
     40  CA       -26.9580  -28.1370    2.9210 C.3   345  VAL345      0.1727
     41  C        -25.7170  -28.2450    2.0460 C.2   345  VAL345      0.2616
     42  O        -24.7200  -28.8710    2.4150 O.2   345  VAL345     -0.2715
     43  CB       -27.0870  -26.7200    3.5110 C.3   345  VAL345      0.0290
     44  CG1      -28.3650  -26.6010    4.3280 C.3   345  VAL345      0.0023
     45  CG2      -25.8680  -26.3910    4.3510 C.3   345  VAL345      0.0023
     46  N        -25.7860  -27.6250    0.8660 N.am  346  GLU346     -0.1977
     47  CA       -24.7120  -27.8100   -0.1070 C.3   346  GLU346      0.1602
     48  C        -23.4630  -27.0180    0.2630 C.2   346  GLU346      0.2287
     49  O        -22.3480  -27.5470    0.2020 O.2   346  GLU346     -0.2864
     50  CB       -25.1900  -27.4300   -1.5100 C.3   346  GLU346      0.0415
     51  CG       -25.9330  -28.5510   -2.2270 C.3   346  GLU346      0.1163
     52  CD       -25.2330  -29.8950   -2.0900 C.2   346  GLU346      0.3649
     53  OE1      -24.0310  -29.9860   -2.4240 O.co2 346  GLU346     -0.2457
     54  OE2      -25.8840  -30.8590   -1.6330 O.co2 346  GLU346     -0.2457
     55  N        -25.1900  -21.4660    2.0240 N.3   350  ASP350     -0.1239
     56  CA       -26.5140  -22.0190    2.2800 C.3   350  ASP350      0.1674
     57  C        -26.7130  -22.2690    3.7690 C.2   350  ASP350      0.2266
     58  O        -27.7840  -21.9870    4.3180 O.2   350  ASP350     -0.2867
     59  CB       -26.7090  -23.3230    1.5040 C.3   350  ASP350      0.1410
     60  CG       -26.7530  -23.1180    0.0010 C.2   350  ASP350      0.3668
     61  OD1      -27.2310  -22.0570   -0.4580 O.co2 350  ASP350     -0.2456
     62  OD2      -26.3120  -24.0350   -0.7170 O.co2 350  ASP350     -0.2456
     63  N        -27.3880  -18.9860    5.5450 N.3   353  ASP353     -0.1225
     64  CA       -28.7460  -18.5390    5.2430 C.3   353  ASP353      0.1805
     65  C        -29.7790  -19.3600    6.0060 C.2   353  ASP353      0.2597
     66  O        -30.7180  -18.8080    6.5900 O.2   353  ASP353     -0.2718
     67  CB       -29.0070  -18.6170    3.7360 C.3   353  ASP353      0.1424
     68  CG       -28.1840  -17.6100    2.9420 C.2   353  ASP353      0.3668
     69  OD1      -27.6960  -16.6300    3.5400 O.co2 353  ASP353     -0.2456
     70  OD2      -28.0320  -17.7960    1.7150 O.co2 353  ASP353     -0.2456
     71  N        -29.6250  -20.6850    6.0160 N.am  354  LEU354     -0.1979
     72  CA       -30.5990  -21.5040    6.7320 C.3   354  LEU354      0.1596
     73  C        -30.5320  -21.2570    8.2340 C.2   354  LEU354      0.2287
     74  O        -31.5680  -21.2430    8.9100 O.2   354  LEU354     -0.2864
     75  CB       -30.3870  -22.9830    6.4180 C.3   354  LEU354      0.0297
     76  CG       -31.4140  -23.9150    7.0690 C.3   354  LEU354      0.0022
     77  CD1      -32.8250  -23.5000    6.6900 C.3   354  LEU354      0.0001
     78  CD2      -31.1570  -25.3590    6.6930 C.3   354  LEU354      0.0001
     79  N        -32.4890  -18.2470    9.0820 N.3   357  GLU357     -0.1245
     80  CA       -33.9150  -18.5260    8.9610 C.3   357  GLU357      0.1567
     81  C        -34.4360  -19.3020   10.1660 C.2   357  GLU357      0.2260
     82  O        -35.4180  -18.8980   10.8000 O.2   357  GLU357     -0.2867
     83  CB       -34.1810  -19.2920    7.6630 C.3   357  GLU357      0.0388
     84  CG       -35.6000  -19.8080    7.5270 C.3   357  GLU357      0.1160
     85  CD       -35.8560  -20.4450    6.1750 C.2   357  GLU357      0.3649
     86  OE1      -35.7850  -19.7250    5.1580 O.co2 357  GLU357     -0.2457
     87  OE2      -36.1090  -21.6670    6.1320 O.co2 357  GLU357     -0.2457
@<TRIPOS>BOND
     1    53    52   ar
     2    51    52    1
     3    51    50    1
     4    52    54   ar
     5    50    47    1
     6    62    60   ar
     7    61    60   ar
     8    47    48    1
     9    47    46    1
    10    60    59    1
    11    49    48    2
    12    46    41   am
    13    59    56    1
    14    70    68   ar
    15    55    56    1
    16    41    42    2
    17    41    40    1
    18    56    57    1
    19    18    16    1
    20    17    16    1
    21    40    43    1
    22    40    39    1
    23    68    69   ar
    24    68    67    1
    25    34    33    1
    26    34    35    1
    27    16    15    2
    28    43    44    1
    29    43    45    1
    30    37    36    1
    31    31    30    2
    32    33    32    1
    33    67    64    1
    34    57    58    2
    35    27    25   ar
    36    39    30   am
    37    35    36    2
    38    15    14    1
    39    30    29    1
    40    36    38    1
    41    32    29    1
    42    14    13    1
    43    25    26   ar
    44    25    24    1
    45    86    85   ar
    46    64    63    1
    47    64    65    1
    48    29    28    1
    49     5     6    1
    50     5     2    1
    51    13    12    1
    52    24    23    1
    53    65    71   am
    54    65    66    2
    55    71    72    1
    56    87    85   ar
    57    85    84    1
    58     6     7    1
    59     2     1    1
    60     2     3    1
    61    75    72    1
    62    75    76    1
    63    77    76    1
    64    78    76    1
    65    72    73    1
    66     7     1    1
    67     8     3   am
    68     8     9    1
    69    12     9    1
    70    23    20    1
    71     3     4    2
    72    84    83    1
    73    83    80    1
    74    19    20    1
    75    19    10   am
    76     9    10    1
    77    20    21    1
    78    73    74    2
    79    10    11    2
    80    80    79    1
    81    80    81    1
    82    21    22    2
    83    81    82    2
