@<TRIPOS>MOLECULE
tmp/5jfrA00.pdb
 161 156 0 0 0
SMALL
GASTEIGER

@<TRIPOS>ATOM
      1  N         23.6870  -31.6860   -8.9600 N.3   110  PHE110     -0.1228
      2  CA        23.6770  -32.3830  -10.2420 C.3   110  PHE110      0.1721
      3  C         25.0840  -32.3270  -10.8340 C.2   110  PHE110      0.2437
      4  O         25.9200  -31.5070  -10.3940 O.2   110  PHE110     -0.2733
      5  CB        22.6180  -31.8020  -11.2190 C.3   110  PHE110      0.0547
      6  CG        22.7310  -30.3130  -11.4470 C.ar  110  PHE110     -0.0202
      7  CD1       23.6570  -29.8000  -12.3550 C.ar  110  PHE110     -0.0042
      8  CD2       21.9110  -29.4290  -10.7590 C.ar  110  PHE110     -0.0042
      9  CE1       23.7590  -28.4300  -12.5640 C.ar  110  PHE110     -0.0003
     10  CE2       22.0120  -28.0640  -10.9660 C.ar  110  PHE110     -0.0003
     11  CZ        22.9380  -27.5640  -11.8610 C.ar  110  PHE110     -0.0000
     12  N         25.3730  -33.1940  -11.8330 N.am  111  PRO111     -0.2729
     13  CA        26.7400  -33.2410  -12.3640 C.3   111  PRO111      0.1401
     14  C         27.1920  -31.9490  -13.0410 C.2   111  PRO111      0.2269
     15  O         26.3640  -31.1970  -13.5400 O.2   111  PRO111     -0.2865
     16  CB        26.6790  -34.3850  -13.4030 C.3   111  PRO111      0.0296
     17  CG        25.5230  -35.2190  -12.9740 C.3   111  PRO111      0.0237
     18  CD        24.5310  -34.2440  -12.4310 C.3   111  PRO111      0.0939
     19  N         24.0680  -31.1860  -20.8320 N.3   122  HIS122     -0.1241
     20  CA        24.0930  -32.5620  -20.3400 C.3   122  HIS122      0.1621
     21  C         25.2430  -33.4390  -20.8110 C.2   122  HIS122      0.2264
     22  O         25.1430  -34.6670  -20.7630 O.2   122  HIS122     -0.2867
     23  CB        22.7280  -33.2320  -20.5350 C.3   122  HIS122      0.0745
     24  CG        21.6380  -32.5460  -19.7740 C.ar  122  HIS122      0.0817
     25  ND1       20.2990  -32.7760  -20.0040 N.ar  122  HIS122     -0.2268
     26  CD2       21.6970  -31.5730  -18.8350 C.ar  122  HIS122      0.1154
     27  CE1       19.5810  -32.0040  -19.2100 C.ar  122  HIS122      0.1986
     28  NE2       20.4060  -31.2620  -18.4930 N.ar  122  HIS122     -0.2212
     29  N         27.9030  -25.6380  -16.2960 N.3   142  ASP142     -0.1239
     30  CA        26.6040  -25.6510  -15.6240 C.3   142  ASP142      0.1674
     31  C         26.7400  -26.5910  -14.4460 C.2   142  ASP142      0.2266
     32  O         26.8810  -27.8050  -14.6260 O.2   142  ASP142     -0.2867
     33  CB        25.4870  -26.0880  -16.6110 C.3   142  ASP142      0.1410
     34  CG        24.0420  -25.9300  -16.0690 C.2   142  ASP142      0.3668
     35  OD1       23.7330  -25.7190  -14.8780 O.co2 142  ASP142     -0.2456
     36  OD2       23.1460  -26.0470  -16.8870 O.co2 142  ASP142     -0.2456
     37  N         20.8270  -23.7370   -9.4150 N.3   153  ASP153     -0.1239
     38  CA        21.0710  -24.1480  -10.7840 C.3   153  ASP153      0.1674
     39  C         21.5350  -22.8760  -11.4940 C.2   153  ASP153      0.2266
     40  O         20.7390  -21.9440  -11.6990 O.2   153  ASP153     -0.2867
     41  CB        19.7640  -24.6800  -11.3760 C.3   153  ASP153      0.1410
     42  CG        19.9450  -25.3390  -12.7310 C.2   153  ASP153      0.3668
     43  OD1       21.0850  -25.3460  -13.2560 O.co2 153  ASP153     -0.2456
     44  OD2       18.9120  -25.8310  -13.2580 O.co2 153  ASP153     -0.2456
     45  N         14.8850  -26.3490  -25.5340 N.3   219  LEU219     -0.1231
     46  CA        15.4170  -26.1910  -24.1830 C.3   219  LEU219      0.1693
     47  C         14.6460  -25.0600  -23.5360 C.2   219  LEU219      0.2592
     48  O         13.9680  -24.2890  -24.2410 O.2   219  LEU219     -0.2718
     49  CB        16.9180  -25.9020  -24.2000 C.3   219  LEU219      0.0284
     50  CG        17.7730  -27.0740  -24.6670 C.3   219  LEU219      0.0019
     51  CD1       19.2060  -26.6190  -24.9000 C.3   219  LEU219      0.0001
     52  CD2       17.7280  -28.2130  -23.6630 C.3   219  LEU219      0.0001
     53  N         14.7260  -24.9740  -22.2060 N.am  220  ASN220     -0.1974
     54  CA        13.8440  -24.0850  -21.4320 C.3   220  ASN220      0.1688
     55  C         14.1970  -23.9980  -19.9500 C.2   220  ASN220      0.2292
     56  O         14.8070  -24.9070  -19.3920 O.2   220  ASN220     -0.2864
     57  CB        12.3780  -24.5270  -21.5790 C.3   220  ASN220      0.1181
     58  CG        12.2090  -26.0300  -21.5150 C.2   220  ASN220      0.2629
     59  OD1       12.0370  -26.6910  -22.5450 O.2   220  ASN220     -0.2716
     60  ND2       12.2640  -26.5830  -20.3070 N.am  220  ASN220     -0.0877
     61  N         12.7960  -23.5060  -15.8650 N.3   222  HIS222     -0.1241
     62  CA        11.9440  -24.4160  -15.0960 C.3   222  HIS222      0.1621
     63  C         11.7920  -24.0180  -13.6370 C.2   222  HIS222      0.2264
     64  O         12.6610  -23.3870  -13.0560 O.2   222  HIS222     -0.2867
     65  CB        12.5370  -25.8390  -15.1480 C.3   222  HIS222      0.0745
     66  CG        14.0020  -25.8980  -14.8350 C.ar  222  HIS222      0.0817
     67  ND1       14.4940  -26.2520  -13.5970 N.ar  222  HIS222     -0.2268
     68  CD2       15.0810  -25.6280  -15.6020 C.ar  222  HIS222      0.1154
     69  CE1       15.8190  -26.2000  -13.6180 C.ar  222  HIS222      0.1986
     70  NE2       16.2030  -25.8350  -14.8290 N.ar  222  HIS222     -0.2212
     71  N         15.0590  -30.8000   -9.2110 N.3   229  ILE229     -0.1231
     72  CA        15.6510  -29.8180  -10.1360 C.3   229  ILE229      0.1692
     73  C         14.6050  -29.2280  -11.0920 C.2   229  ILE229      0.2592
     74  O         14.6350  -28.0230  -11.3770 O.2   229  ILE229     -0.2718
     75  CB        16.8580  -30.4080  -10.9100 C.3   229  ILE229      0.0266
     76  CG1       17.5790  -29.3350  -11.7350 C.3   229  ILE229      0.0019
     77  CG2       16.4430  -31.5390  -11.8310 C.3   229  ILE229      0.0020
     78  CD1       18.2100  -28.2430  -10.9040 C.3   229  ILE229      0.0001
     79  N         13.6620  -30.0610  -11.5430 N.am  230  HIS230     -0.1976
     80  CA        12.5780  -29.6280  -12.4140 C.3   230  HIS230      0.1656
     81  C         11.2730  -29.9810  -11.7290 C.2   230  HIS230      0.2291
     82  O         10.8580  -31.1440  -11.7310 O.2   230  HIS230     -0.2864
     83  CB        12.6830  -30.3240  -13.7830 C.3   230  HIS230      0.0771
     84  CG        11.8590  -29.6910  -14.8670 C.ar  230  HIS230      0.0820
     85  ND1       10.5480  -29.3150  -14.6850 N.ar  230  HIS230     -0.2267
     86  CD2       12.1580  -29.3870  -16.1550 C.ar  230  HIS230      0.1154
     87  CE1       10.0730  -28.7960  -15.8030 C.ar  230  HIS230      0.1986
     88  NE2       11.0270  -28.8370  -16.7150 N.ar  230  HIS230     -0.2212
     89  N         17.0450  -19.9050  -17.5720 N.3   252  GLU252     -0.1245
     90  CA        18.1650  -20.1750  -18.4540 C.3   252  GLU252      0.1567
     91  C         17.7550  -19.9390  -19.8820 C.2   252  GLU252      0.2260
     92  O         16.6040  -20.1610  -20.2630 O.2   252  GLU252     -0.2867
     93  CB        18.6970  -21.5980  -18.3030 C.3   252  GLU252      0.0388
     94  CG        17.6590  -22.7000  -18.3150 C.3   252  GLU252      0.1160
     95  CD        18.2460  -24.0510  -17.9310 C.2   252  GLU252      0.3649
     96  OE1       17.5350  -24.8740  -17.3060 O.co2 252  GLU252     -0.2457
     97  OE2       19.4410  -24.2920  -18.2360 O.co2 252  GLU252     -0.2457
     98  N         24.5320  -38.4370  -17.6620 N.3   270  HIS270     -0.1226
     99  CA        23.6380  -37.9000  -16.6160 C.3   270  HIS270      0.1752
    100  C         22.4210  -38.8230  -16.4160 C.2   270  HIS270      0.2596
    101  O         21.7890  -39.2580  -17.3910 O.2   270  HIS270     -0.2718
    102  CB        23.0570  -36.5340  -17.0080 C.3   270  HIS270      0.0759
    103  CG        24.0230  -35.3860  -16.9810 C.ar  270  HIS270      0.0818
    104  ND1       25.2600  -35.4240  -17.5930 N.ar  270  HIS270     -0.2268
    105  CD2       23.8980  -34.1360  -16.4730 C.ar  270  HIS270      0.1154
    106  CE1       25.8640  -34.2570  -17.4390 C.ar  270  HIS270      0.1986
    107  NE2       25.0610  -33.4610  -16.7610 N.ar  270  HIS270     -0.2212
    108  N         22.0880  -39.0750  -15.1560 N.am  271  TYR271     -0.1962
    109  CA        20.9280  -39.8800  -14.7880 C.3   271  TYR271      0.1771
    110  C         20.2580  -39.3010  -13.5500 C.2   271  TYR271      0.2619
    111  O         20.8820  -38.6030  -12.7680 O.2   271  TYR271     -0.2715
    112  CB        21.3370  -41.3310  -14.4980 C.3   271  TYR271      0.0574
    113  CG        22.0870  -41.9960  -15.6340 C.ar  271  TYR271     -0.0198
    114  CD1       23.4530  -41.7660  -15.8360 C.ar  271  TYR271     -0.0009
    115  CD2       21.4260  -42.8350  -16.5140 C.ar  271  TYR271     -0.0009
    116  CE1       24.1140  -42.3380  -16.8960 C.ar  271  TYR271      0.0417
    117  CE2       22.0880  -43.4290  -17.5780 C.ar  271  TYR271      0.0417
    118  CZ        23.4290  -43.1680  -17.7640 C.ar  271  TYR271      0.1957
    119  OH        24.1250  -43.7360  -18.7920 O.3   271  TYR271     -0.2866
    120  N         18.9730  -39.5810  -13.3760 N.am  272  MET272     -0.1977
    121  CA        18.2560  -39.1350  -12.1760 C.3   272  MET272      0.1605
    122  C         17.0230  -39.9980  -11.9370 C.2   272  MET272      0.2287
    123  O         16.2870  -40.3050  -12.8690 O.2   272  MET272     -0.2864
    124  CB        17.8310  -37.6680  -12.3390 C.3   272  MET272      0.0413
    125  CG        17.2790  -37.0030  -11.0780 C.3   272  MET272      0.0598
    126  SD        16.9330  -35.2440  -11.3310 S.3   272  MET272     -0.1393
    127  CE        15.5770  -35.2890  -12.4790 C.3   272  MET272      0.0692
    128  N         20.1730  -35.5420   -9.3520 N.3   302  ALA302     -0.1245
    129  CA        20.8410  -36.1590  -10.4930 C.3   302  ALA302      0.1562
    130  C         22.2680  -36.5630  -10.1560 C.2   302  ALA302      0.2260
    131  O         22.9040  -35.9820   -9.2770 O.2   302  ALA302     -0.2867
    132  CB        20.8510  -35.2220  -11.6800 C.3   302  ALA302      0.0290
    133  N         19.5220  -38.8260  -19.0790 N.3   332  TYR332     -0.1241
    134  CA        19.4740  -37.4610  -19.6280 C.3   332  TYR332      0.1605
    135  C         20.6870  -37.2580  -20.5210 C.2   332  TYR332      0.2264
    136  O         21.7250  -36.7230  -20.0710 O.2   332  TYR332     -0.2867
    137  CB        19.4440  -36.4160  -18.4910 C.3   332  TYR332      0.0534
    138  CG        18.1140  -36.4320  -17.7750 C.ar  332  TYR332     -0.0201
    139  CD1       17.0460  -35.6730  -18.2340 C.ar  332  TYR332     -0.0009
    140  CD2       17.9060  -37.2500  -16.6610 C.ar  332  TYR332     -0.0009
    141  CE1       15.8170  -35.7000  -17.6030 C.ar  332  TYR332      0.0417
    142  CE2       16.6740  -37.2760  -16.0200 C.ar  332  TYR332      0.0417
    143  CZ        15.6360  -36.5100  -16.4950 C.ar  332  TYR332      0.1957
    144  OH        14.4110  -36.5450  -15.8550 O.3   332  TYR332     -0.2866
    145  N         22.5340  -33.0320  -25.2500 N.3   335  LEU335     -0.1245
    146  CA        21.5740  -32.4310  -26.1630 C.3   335  LEU335      0.1561
    147  C         22.3280  -31.4840  -27.0930 C.2   335  LEU335      0.2260
    148  O         22.9080  -30.4990  -26.6400 O.2   335  LEU335     -0.2867
    149  CB        20.5200  -31.6780  -25.3560 C.3   335  LEU335      0.0270
    150  CG        19.7420  -32.5460  -24.3670 C.3   335  LEU335      0.0019
    151  CD1       18.8090  -31.7100  -23.5110 C.3   335  LEU335      0.0001
    152  CD2       18.9560  -33.5990  -25.1220 C.3   335  LEU335      0.0001
    153  N         22.4350  -18.9320  -17.0130 N.3   347  GLU347     -0.1245
    154  CA        21.3500  -19.3950  -16.1520 C.3   347  GLU347      0.1567
    155  C         21.5090  -18.8530  -14.7370 C.2   347  GLU347      0.2260
    156  O         22.6200  -18.8700  -14.2000 O.2   347  GLU347     -0.2867
    157  CB        21.3630  -20.9200  -16.1120 C.3   347  GLU347      0.0388
    158  CG        20.3650  -21.5610  -15.1550 C.3   347  GLU347      0.1160
    159  CD        20.3030  -23.0730  -15.3020 C.2   347  GLU347      0.3649
    160  OE1       19.1910  -23.6340  -15.1650 O.co2 347  GLU347     -0.2457
    161  OE2       21.3540  -23.6920  -15.5740 O.co2 347  GLU347     -0.2457
@<TRIPOS>BOND
     1   147   148    2
     2   147   146    1
     3   146   149    1
     4   146   145    1
     5    45    46    1
     6   149   150    1
     7   152   150    1
     8    51    50    1
     9    50    49    1
    10    50    52    1
    11   150   151    1
    12    48    47    2
    13    49    46    1
    14    46    47    1
    15    47    53   am
    16    59    58    2
    17    53    54    1
    18    57    58    1
    19    57    54    1
    20    58    60   am
    21    54    55    1
    22    19    20    1
    23    21    22    2
    24    21    20    1
    25    23    20    1
    26    23    24    1
    27   135   136    2
    28   135   134    1
    29    92    91    2
    30    25    24   ar
    31    25    27   ar
    32    55    56    2
    33    91    90    1
    34    24    26   ar
    35   134   133    1
    36   134   137    1
    37    27    28   ar
    38    26    28   ar
    39   119   118    1
    40   137   138    1
    41    90    93    1
    42    90    89    1
    43    94    93    1
    44    94    95    1
    45    97    95   ar
    46   139   138   ar
    47   139   141   ar
    48    95    96   ar
    49   138   140   ar
    50   118   117   ar
    51   118   116   ar
    52    98    99    1
    53   141   143   ar
    54   104   106   ar
    55   104   103   ar
    56   117   115   ar
    57   106   107   ar
    58   101   100    2
    59   153   154    1
    60   102   103    1
    61   102    99    1
    62   103   105   ar
    63   116   114   ar
    64    36    34   ar
    65   107   105   ar
    66    88    86   ar
    67    88    87   ar
    68   140   142   ar
    69    99   100    1
    70    33    34    1
    71    33    30    1
    72   115   113   ar
    73   143   142   ar
    74   143   144    1
    75   100   108   am
    76    29    30    1
    77    86    84   ar
    78   154   157    1
    79   154   155    1
    80   157   158    1
    81    34    35   ar
    82    61    62    1
    83   114   113   ar
    84    87    85   ar
    85   113   112    1
    86    30    31    1
    87    68    66   ar
    88    68    70   ar
    89   161   159   ar
    90   159   160   ar
    91   159   158    1
    92   108   109    1
    93    65    62    1
    94    65    66    1
    95    62    63    1
    96    84    85   ar
    97    84    83    1
    98    66    67   ar
    99    70    69   ar
   100   109   112    1
   101   109   110    1
   102   155   156    2
   103    32    31    2
   104    83    80    1
   105    63    64    2
   106    69    67   ar
   107   110   120   am
   108   110   111    2
   109    15    14    2
   110    16    17    1
   111    16    13    1
   112   120   121    1
   113    44    42   ar
   114    43    42   ar
   115    14    13    1
   116    17    18    1
   117   123   122    2
   118    42    41    1
   119     9     7   ar
   120     9    11   ar
   121   127   126    1
   122    18    12    1
   123    80    81    1
   124    80    79    1
   125    13    12    1
   126     7     6   ar
   127   124   121    1
   128   124   125    1
   129   121   122    1
   130    11    10   ar
   131    12     3   am
   132    77    75    1
   133    76    75    1
   134    76    78    1
   135    82    81    2
   136    40    39    2
   137   132   129    1
   138    79    73   am
   139    39    38    1
   140     6     5    1
   141     6     8   ar
   142    74    73    2
   143    41    38    1
   144   126   125    1
   145     5     2    1
   146    73    72    1
   147    10     8   ar
   148    75    72    1
   149     3     4    2
   150     3     2    1
   151    38    37    1
   152   129   130    1
   153   129   128    1
   154     2     1    1
   155   130   131    2
   156    72    71    1
