@<TRIPOS>MOLECULE
tmp/5jfsA00.pdb
 202 192 0 0 0
SMALL
GASTEIGER

@<TRIPOS>ATOM
      1  N         23.9480   52.7560   -0.6230 N.3    28  LEU28      -0.1231
      2  CA        22.6110   52.5090   -0.0680 C.3    28  LEU28       0.1693
      3  C         22.7230   51.9460    1.3480 C.2    28  LEU28       0.2593
      4  O         21.8590   52.2160    2.1820 O.2    28  LEU28      -0.2718
      5  CB        21.7690   51.5740   -0.9580 C.3    28  LEU28       0.0284
      6  CG        21.2930   52.1120   -2.3080 C.3    28  LEU28       0.0019
      7  CD1       20.6740   50.9930   -3.1420 C.3    28  LEU28       0.0001
      8  CD2       20.2950   53.2710   -2.1510 C.3    28  LEU28       0.0001
      9  N         23.8070   51.2160    1.5990 N.am   29  GLY29      -0.1942
     10  CA        24.1510   50.6110    2.8790 C.3    29  GLY29       0.2014
     11  C         25.3420   49.6890    2.7320 C.2    29  GLY29       0.2638
     12  O         25.9920   49.6760    1.6810 O.2    29  GLY29      -0.2714
     13  N         25.6680   48.9310    3.7840 N.am   30  GLU30      -0.1977
     14  CA        26.7270   47.9380    3.6770 C.3    30  GLU30       0.1602
     15  C         26.4480   46.5920    4.3380 C.2    30  GLU30       0.2287
     16  O         25.8540   45.7180    3.6990 O.2    30  GLU30      -0.2864
     17  CB        28.1670   48.4580    3.8320 C.3    30  GLU30       0.0415
     18  CG        28.5610   49.1970    5.0930 C.3    30  GLU30       0.1163
     19  CD        30.0600   49.4340    5.1170 C.2    30  GLU30       0.3649
     20  OE1       30.8220   48.4770    4.8410 O.co2  30  GLU30      -0.2457
     21  OE2       30.4730   50.5880    5.3740 O.co2  30  GLU30      -0.2457
     22  N         26.7000   48.3070   -0.6730 N.3    36  VAL36      -0.1245
     23  CA        25.6720   48.2260   -1.7010 C.3    36  VAL36       0.1561
     24  C         25.4650   49.6460   -2.1870 C.2    36  VAL36       0.2260
     25  O         25.2790   50.5560   -1.3740 O.2    36  VAL36      -0.2867
     26  CB        24.3520   47.6060   -1.1760 C.3    36  VAL36       0.0252
     27  CG1       23.2930   47.5550   -2.2830 C.3    36  VAL36       0.0019
     28  CG2       24.6030   46.2080   -0.6260 C.3    36  VAL36       0.0019
     29  N         20.8040   48.0020   -7.8860 N.3    54  ALA54      -0.1245
     30  CA        21.5420   47.9820   -6.6340 C.3    54  ALA54       0.1562
     31  C         22.7520   47.0890   -6.9210 C.2    54  ALA54       0.2260
     32  O         22.6180   46.0220   -7.5260 O.2    54  ALA54      -0.2867
     33  CB        20.6950   47.4210   -5.5010 C.3    54  ALA54       0.0290
     34  N         26.1810   45.2660   -5.3890 N.3    56  LYS56      -0.1245
     35  CA        26.9440   44.8530   -4.2170 C.3    56  LYS56       0.1561
     36  C         28.3880   44.7160   -4.6460 C.2    56  LYS56       0.2260
     37  O         28.6750   44.0120   -5.6040 O.2    56  LYS56      -0.2867
     38  CB        26.4000   43.5260   -3.6650 C.3    56  LYS56       0.0271
     39  CG        27.2670   42.9990   -2.5100 C.3    56  LYS56       0.0035
     40  CD        26.6510   41.8420   -1.7510 C.3    56  LYS56       0.0206
     41  CE        26.6670   40.5350   -2.4970 C.3    56  LYS56       0.1093
     42  NZ        26.7030   39.3680   -1.5530 N.3    56  LYS56      -0.1314
     43  N         27.6390   31.7040   -5.3110 N.3    72  GLU72      -0.1245
     44  CA        26.5230   32.5600   -4.9200 C.3    72  GLU72       0.1567
     45  C         25.8250   33.0690   -6.2030 C.2    72  GLU72       0.2260
     46  O         24.6020   33.0210   -6.2960 O.2    72  GLU72      -0.2867
     47  CB        27.0650   33.7490   -4.1090 C.3    72  GLU72       0.0388
     48  CG        25.9870   34.6920   -3.6050 C.3    72  GLU72       0.1160
     49  CD        26.5450   35.9070   -2.8900 C.2    72  GLU72       0.3649
     50  OE1       27.7520   35.9040   -2.5570 O.co2  72  GLU72      -0.2457
     51  OE2       25.7870   36.8840   -2.7060 O.co2  72  GLU72      -0.2457
     52  N         21.9370   32.5400   -7.2560 N.3    76  LEU76      -0.1245
     53  CA        21.0390   33.6710   -7.4510 C.3    76  LEU76       0.1561
     54  C         20.4300   33.6940   -8.8380 C.2    76  LEU76       0.2260
     55  O         19.2690   34.0990   -8.9710 O.2    76  LEU76      -0.2867
     56  CB        21.7460   34.9950   -7.1660 C.3    76  LEU76       0.0270
     57  CG        22.2780   35.1700   -5.7350 C.3    76  LEU76       0.0019
     58  CD1       23.1510   36.4310   -5.6430 C.3    76  LEU76       0.0001
     59  CD2       21.1340   35.1580   -4.7170 C.3    76  LEU76       0.0001
     60  N         17.2310   31.6450   -9.0410 N.3    79  LEU79      -0.1245
     61  CA        16.0450   32.1640   -8.3420 C.3    79  LEU79       0.1561
     62  C         15.2990   33.1740   -9.1910 C.2    79  LEU79       0.2260
     63  O         15.7390   34.3130   -9.3340 O.2    79  LEU79      -0.2867
     64  CB        16.4380   32.7880   -6.9850 C.3    79  LEU79       0.0270
     65  CG        17.2560   31.9180   -6.0280 C.3    79  LEU79       0.0019
     66  CD1       17.5160   32.6800   -4.7160 C.3    79  LEU79       0.0001
     67  CD2       16.5650   30.5990   -5.7320 C.3    79  LEU79       0.0001
     68  N         10.9040   37.2610   -5.2730 N.3    84  ILE84      -0.1231
     69  CA        12.3100   37.0490   -4.9070 C.3    84  ILE84       0.1692
     70  C         13.0710   38.1710   -5.6060 C.2    84  ILE84       0.2591
     71  O         12.7970   38.4280   -6.7990 O.2    84  ILE84      -0.2718
     72  CB        12.8390   35.6540   -5.3570 C.3    84  ILE84       0.0266
     73  CG1       12.0330   34.4860   -4.7120 C.3    84  ILE84       0.0019
     74  CG2       14.3500   35.5090   -5.0770 C.3    84  ILE84       0.0020
     75  CD1       12.1240   34.4090   -3.1240 C.3    84  ILE84       0.0001
     76  N         14.0110   38.8360   -4.8910 N.am   85  VAL85      -0.1980
     77  CA        14.8100   39.9150   -5.5010 C.3    85  VAL85       0.1595
     78  C         15.4150   39.4360   -6.8350 C.2    85  VAL85       0.2287
     79  O         15.8780   38.2910   -6.9350 O.2    85  VAL85      -0.2864
     80  CB        15.8800   40.4910   -4.5300 C.3    85  VAL85       0.0276
     81  CG1       16.8940   39.4430   -4.1390 C.3    85  VAL85       0.0022
     82  CG2       16.5850   41.6960   -5.1450 C.3    85  VAL85       0.0022
     83  N         21.5580   43.8020   -8.8840 N.3   101  PHE101     -0.1227
     84  CA        20.1640   43.4330   -8.6000 C.3   101  PHE101      0.1736
     85  C         19.2280   44.5170   -9.0730 C.2   101  PHE101      0.2595
     86  O         19.6120   45.6880   -9.1210 O.2   101  PHE101     -0.2718
     87  CB        19.9590   43.2470   -7.0700 C.3   101  PHE101      0.0547
     88  CG        20.8590   42.2080   -6.4370 C.ar  101  PHE101     -0.0202
     89  CD1       22.1390   42.5520   -5.9860 C.ar  101  PHE101     -0.0042
     90  CD2       20.4330   40.8910   -6.3030 C.ar  101  PHE101     -0.0042
     91  CE1       22.9840   41.5830   -5.4200 C.ar  101  PHE101     -0.0003
     92  CE2       21.2700   39.9250   -5.7110 C.ar  101  PHE101     -0.0003
     93  CZ        22.5390   40.2730   -5.2990 C.ar  101  PHE101     -0.0000
     94  N         17.9700   44.1560   -9.3270 N.am  102  GLU102     -0.1965
     95  CA        16.9510   45.1540   -9.6600 C.3   102  GLU102      0.1733
     96  C         16.7310   46.0660   -8.4270 C.2   102  GLU102      0.2616
     97  O         16.5440   45.5540   -7.3170 O.2   102  GLU102     -0.2715
     98  CB        15.6720   44.4120  -10.0060 C.3   102  GLU102      0.0429
     99  CG        14.4720   45.2980  -10.2030 C.3   102  GLU102      0.1163
    100  CD        13.2250   44.4550  -10.3110 C.2   102  GLU102      0.3649
    101  OE1       12.7220   44.3080  -11.4470 O.co2 102  GLU102     -0.2457
    102  OE2       12.8340   43.8420   -9.2890 O.co2 102  GLU102     -0.2457
    103  N         16.7590   47.4120   -8.6190 N.am  103  TYR103     -0.1960
    104  CA        16.5710   48.3450   -7.5050 C.3   103  TYR103      0.1771
    105  C         15.1310   48.3630   -7.0220 C.2   103  TYR103      0.2619
    106  O         14.1870   48.4290   -7.8280 O.2   103  TYR103     -0.2715
    107  CB        17.0100   49.7690   -7.9330 C.3   103  TYR103      0.0574
    108  CG        16.7960   50.8390   -6.8740 C.ar  103  TYR103     -0.0198
    109  CD1       17.4480   50.7720   -5.6460 C.ar  103  TYR103     -0.0009
    110  CD2       16.0130   51.9610   -7.1380 C.ar  103  TYR103     -0.0009
    111  CE1       17.3090   51.7890   -4.6900 C.ar  103  TYR103      0.0417
    112  CE2       15.8730   52.9860   -6.1950 C.ar  103  TYR103      0.0417
    113  CZ        16.5100   52.8850   -4.9680 C.ar  103  TYR103      0.1957
    114  OH        16.3490   53.8690   -4.0150 O.3   103  TYR103     -0.2866
    115  N         14.9640   48.3320   -5.6810 N.am  104  MET104     -0.1977
    116  CA        13.6410   48.3560   -5.0460 C.3   104  MET104      0.1605
    117  C         13.5720   49.6700   -4.2750 C.2   104  MET104      0.2287
    118  O         14.2700   49.8490   -3.2730 O.2   104  MET104     -0.2864
    119  CB        13.4790   47.1240   -4.1460 C.3   104  MET104      0.0413
    120  CG        13.5290   45.8210   -4.9370 C.3   104  MET104      0.0598
    121  SD        11.9920   45.5380   -5.7910 S.3   104  MET104     -0.1393
    122  CE        10.9480   44.9220   -4.3610 C.3   104  MET104      0.0692
    123  N         13.1740   50.4880   -0.3090 N.3   107  GLY107     -0.1210
    124  CA        14.1590   49.8820    0.5840 C.3   107  GLY107      0.1956
    125  C         13.6750   48.6990    1.4000 C.2   107  GLY107      0.2611
    126  O         12.7150   48.0260    1.0110 O.2   107  GLY107     -0.2717
    127  N         14.3490   48.4350    2.5430 N.am  108  ASP108     -0.1973
    128  CA        13.9980   47.2450    3.3340 C.3   108  ASP108      0.1709
    129  C         12.6500   47.3220    4.0260 C.2   108  ASP108      0.2293
    130  O         12.1920   48.4010    4.4260 O.2   108  ASP108     -0.2864
    131  CB        15.1440   46.7910    4.2590 C.3   108  ASP108      0.1436
    132  CG        15.1980   47.5310    5.5720 C.2   108  ASP108      0.3671
    133  OD1       16.0240   48.4540    5.6970 O.co2 108  ASP108     -0.2456
    134  OD2       14.3580   47.2380    6.4560 O.co2 108  ASP108     -0.2456
    135  N         10.6370   29.2340   -2.8440 N.3   143  LEU143     -0.1245
    136  CA        11.8920   28.6790   -2.3340 C.3   143  LEU143      0.1561
    137  C         11.7300   27.2360   -1.8500 C.2   143  LEU143      0.2260
    138  O         12.5760   26.3850   -2.1470 O.2   143  LEU143     -0.2867
    139  CB        12.5110   29.5600   -1.2440 C.3   143  LEU143      0.0270
    140  CG        12.8300   30.9970   -1.6870 C.3   143  LEU143      0.0019
    141  CD1       13.3690   31.8170   -0.4910 C.3   143  LEU143      0.0001
    142  CD2       13.9050   31.0000   -2.8410 C.3   143  LEU143      0.0001
    143  N         15.2110   25.2440   -1.5590 N.3   148  PHE148     -0.1241
    144  CA        16.1580   26.2910   -1.1690 C.3   148  PHE148      0.1605
    145  C         15.7810   26.7150    0.2670 C.2   148  PHE148      0.2264
    146  O         14.7000   27.2660    0.4620 O.2   148  PHE148     -0.2867
    147  CB        16.0550   27.5010   -2.1080 C.3   148  PHE148      0.0534
    148  CG        17.0860   28.5780   -1.8350 C.ar  148  PHE148     -0.0203
    149  CD1       16.8750   29.5360   -0.8460 C.ar  148  PHE148     -0.0042
    150  CD2       18.2620   28.6460   -2.5780 C.ar  148  PHE148     -0.0042
    151  CE1       17.8380   30.5230   -0.5820 C.ar  148  PHE148     -0.0003
    152  CE2       19.2200   29.6350   -2.3170 C.ar  148  PHE148     -0.0003
    153  CZ        18.9900   30.5830   -1.3330 C.ar  148  PHE148     -0.0000
    154  N         16.2760   29.2460    3.1550 N.3   150  HIS150     -0.1241
    155  CA        16.7780   30.6230    3.2290 C.3   150  HIS150      0.1621
    156  C         17.7110   30.8510    4.4380 C.2   150  HIS150      0.2264
    157  O         18.8020   31.4170    4.2930 O.2   150  HIS150     -0.2867
    158  CB        15.5650   31.5760    3.2620 C.3   150  HIS150      0.0745
    159  CG        15.9390   33.0250    3.2080 C.ar  150  HIS150      0.0817
    160  ND1       16.5980   33.6410    4.2630 N.ar  150  HIS150     -0.2268
    161  CD2       15.7400   33.9320    2.2200 C.ar  150  HIS150      0.1154
    162  CE1       16.7880   34.9000    3.8790 C.ar  150  HIS150      0.1986
    163  NE2       16.2660   35.1240    2.6620 N.ar  150  HIS150     -0.2212
    164  N         12.4560   43.5130    0.5960 N.3   159  LEU159     -0.1245
    165  CA        12.4920   44.8410   -0.0320 C.3   159  LEU159      0.1561
    166  C         11.1200   45.2350   -0.5030 C.2   159  LEU159      0.2260
    167  O         10.3020   44.3650   -0.8350 O.2   159  LEU159     -0.2867
    168  CB        13.4460   44.8150   -1.2430 C.3   159  LEU159      0.0270
    169  CG        14.9190   44.5870   -0.9170 C.3   159  LEU159      0.0019
    170  CD1       15.6930   44.2080   -2.1730 C.3   159  LEU159      0.0001
    171  CD2       15.5210   45.8130   -0.2480 C.3   159  LEU159      0.0001
    172  N         11.7590   38.9790   -1.4510 N.3   168  ILE168     -0.1231
    173  CA        12.6910   38.4520   -0.4570 C.3   168  ILE168      0.1692
    174  C         14.0930   38.5000   -0.9870 C.2   168  ILE168      0.2593
    175  O         14.3480   38.0650   -2.1180 O.2   168  ILE168     -0.2718
    176  CB        12.3040   36.9860   -0.1290 C.3   168  ILE168      0.0266
    177  CG1       10.8510   36.9130    0.3930 C.3   168  ILE168      0.0019
    178  CG2       13.3210   36.3330    0.8740 C.3   168  ILE168      0.0020
    179  CD1       10.4020   35.4450    0.5690 C.3   168  ILE168      0.0001
    180  N         15.0090   38.9260   -0.1220 N.am  169  GLY169     -0.1942
    181  CA        16.4350   38.8910   -0.4160 C.3   169  GLY169      0.2014
    182  C         17.1820   38.3660    0.7960 C.2   169  GLY169      0.2639
    183  O         16.5820   37.7300    1.6720 O.2   169  GLY169     -0.2714
    184  N         18.4830   38.6240    0.8660 N.am  170  ASP170     -0.1957
    185  CA        19.2890   38.2270    2.0330 C.3   170  ASP170      0.1840
    186  C         20.4950   39.1530    1.9930 C.2   170  ASP170      0.2622
    187  O         21.3540   39.0040    1.1190 O.2   170  ASP170     -0.2715
    188  CB        19.7120   36.7560    1.9470 C.3   170  ASP170      0.1450
    189  CG        20.4220   36.2300    3.1770 C.2   170  ASP170      0.3671
    190  OD1       20.9360   37.0610    3.9730 O.co2 170  ASP170     -0.2456
    191  OD2       20.6190   34.9990    3.2620 O.co2 170  ASP170     -0.2456
    192  N         20.5360   40.1050    2.9220 N.am  171  PHE171     -0.1974
    193  CA        21.5450   41.1770    2.9460 C.3   171  PHE171      0.1639
    194  C         22.6120   41.0480    4.0420 C.2   171  PHE171      0.2290
    195  O         23.5100   41.8800    4.0980 O.2   171  PHE171     -0.2864
    196  CB        20.8480   42.5660    2.9230 C.3   171  PHE171      0.0560
    197  CG        19.6110   42.6450    2.0480 C.ar  171  PHE171     -0.0200
    198  CD1       19.6380   42.2000    0.7250 C.ar  171  PHE171     -0.0042
    199  CD2       18.4050   43.1130    2.5590 C.ar  171  PHE171     -0.0042
    200  CE1       18.4850   42.1730   -0.0460 C.ar  171  PHE171     -0.0003
    201  CE2       17.2550   43.1130    1.7750 C.ar  171  PHE171     -0.0003
    202  CZ        17.2850   42.5960    0.4980 C.ar  171  PHE171     -0.0000
@<TRIPOS>BOND
     1   101   100   ar
     2   100    99    1
     3   100   102   ar
     4    99    98    1
     5    98    95    1
     6    95    94    1
     7    95    96    1
     8    63    62    2
     9    94    85   am
    10    62    61    1
    11    86    85    2
    12    85    84    1
    13    60    61    1
    14    55    54    2
    15    83    84    1
    16    54    53    1
    17   103    96   am
    18   103   104    1
    19    84    87    1
    20    96    97    2
    21    61    64    1
    22   107   104    1
    23   107   108    1
    24    29    30    1
    25   106   105    2
    26    32    31    2
    27   104   105    1
    28    53    52    1
    29    53    56    1
    30    56    57    1
    31   110   108   ar
    32   110   112   ar
    33    87    88    1
    34   105   115   am
    35    64    65    1
    36    79    78    2
    37    31    30    1
    38   108   109   ar
    39    78    77    1
    40    71    70    2
    41    30    33    1
    42    88    90   ar
    43    88    89   ar
    44    90    92   ar
    45    46    45    2
    46    45    44    1
    47   112   113   ar
    48    65    67    1
    49    65    66    1
    50    89    91   ar
    51   121   120    1
    52   121   122    1
    53    57    58    1
    54    57    59    1
    55    92    93   ar
    56   115   116    1
    57   109   111   ar
    58    70    69    1
    59    70    76   am
    60    37    36    2
    61    77    76    1
    62    77    80    1
    63    91    93   ar
    64    34    35    1
    65    72    74    1
    66    72    69    1
    67    72    73    1
    68    43    44    1
    69    68    69    1
    70    82    80    1
    71   116   117    1
    72   116   119    1
    73   113   111   ar
    74   113   114    1
    75   120   119    1
    76    44    47    1
    77    73    75    1
    78    36    35    1
    79    80    81    1
    80   117   118    2
    81    35    38    1
    82    47    48    1
    83    38    39    1
    84    48    49    1
    85     7     6    1
    86    49    51   ar
    87    49    50   ar
    88   135   136    1
    89   142   140    1
    90   150   152   ar
    91   150   148   ar
    92    39    40    1
    93    41    40    1
    94    41    42    1
    95   136   137    1
    96   136   139    1
    97   152   153   ar
    98     6     8    1
    99     6     5    1
   100    27    26    1
   101    24    23    1
   102    24    25    2
   103   170   169    1
   104   138   137    2
   105   175   174    2
   106   147   148    1
   107   147   144    1
   108   148   149   ar
   109    23    26    1
   110    23    22    1
   111   140   139    1
   112   140   141    1
   113   143   144    1
   114   172   173    1
   115   153   151   ar
   116   168   169    1
   117   168   165    1
   118    26    28    1
   119   144   145    1
   120   174   173    1
   121   174   180   am
   122     5     2    1
   123   169   171    1
   124   149   151   ar
   125   167   166    2
   126     1     2    1
   127   166   165    1
   128   173   176    1
   129   181   180    1
   130   181   182    1
   131   123   124    1
   132   176   177    1
   133   176   178    1
   134     2     3    1
   135   200   202   ar
   136   200   198   ar
   137   165   164    1
   138   145   146    2
   139   177   179    1
   140   202   201   ar
   141   124   125    1
   142   198   197   ar
   143   182   184   am
   144   182   183    2
   145   184   185    1
   146   126   125    2
   147   187   186    2
   148     3     9   am
   149     3     4    2
   150   125   127   am
   151     9    10    1
   152    12    11    2
   153   201   199   ar
   154   188   185    1
   155   188   189    1
   156   186   185    1
   157   186   192   am
   158   197   199   ar
   159   197   196    1
   160   161   163   ar
   161   161   159   ar
   162   127   128    1
   163   163   162   ar
   164    11    10    1
   165    11    13   am
   166   192   193    1
   167   196   193    1
   168   193   194    1
   169   154   155    1
   170   189   191   ar
   171   189   190   ar
   172   159   158    1
   173   159   160   ar
   174   155   158    1
   175   155   156    1
   176   128   129    1
   177   128   131    1
   178    14    13    1
   179    14    17    1
   180    14    15    1
   181    16    15    2
   182    17    18    1
   183   162   160   ar
   184   129   130    2
   185   194   195    2
   186   131   132    1
   187   157   156    2
   188    20    19   ar
   189    18    19    1
   190    19    21   ar
   191   132   133   ar
   192   132   134   ar
