@<TRIPOS>MOLECULE
tmp/5jftA00.pdb
 196 196 0 0 0
SMALL
GASTEIGER

@<TRIPOS>ATOM
      1  N        -19.7800   11.6970  -26.1070 N.3    29  MET29      -0.1230
      2  CA       -19.1570   11.3280  -24.8450 C.3    29  MET29       0.1702
      3  C        -20.0410   11.7250  -23.6640 C.2    29  MET29       0.2592
      4  O        -20.6870   12.7810  -23.6700 O.2    29  MET29      -0.2718
      5  CB       -17.7700   11.9630  -24.7180 C.3    29  MET29       0.0401
      6  CG       -16.7150   11.3510  -25.6520 C.3    29  MET29       0.0596
      7  SD       -16.6000    9.5450  -25.5220 S.3    29  MET29      -0.1393
      8  CE       -15.1150    9.3240  -24.5560 C.3    29  MET29       0.0692
      9  N        -20.0640   10.8280  -22.6120 N.am   30  ASN30      -0.1961
     10  CA       -20.8870   10.9140  -21.4150 C.3    30  ASN30       0.1804
     11  C        -20.2440   11.8030  -20.3500 C.2    30  ASN30       0.2463
     12  O        -19.0190   11.9260  -20.2980 O.2    30  ASN30      -0.2730
     13  CB       -21.1150    9.5210  -20.8430 C.3    30  ASN30       0.1195
     14  CG       -21.8980    8.6300  -21.7820 C.2    30  ASN30       0.2630
     15  OD1      -22.8210    9.0880  -22.4730 O.2    30  ASN30      -0.2716
     16  ND2      -21.5340    7.3490  -21.8200 N.am   30  ASN30      -0.0877
     17  N        -21.0550   12.4190  -19.4800 N.am   31  PRO31      -0.2716
     18  CA       -20.4940   13.2300  -18.3870 C.3    31  PRO31       0.1536
     19  C        -19.6730   12.3760  -17.4330 C.2    31  PRO31       0.2598
     20  O        -19.9310   11.1860  -17.2510 O.2    31  PRO31      -0.2715
     21  CB       -21.7340   13.8010  -17.6850 C.3    31  PRO31       0.0310
     22  CG       -22.8560   13.6370  -18.6630 C.3    31  PRO31       0.0237
     23  CD       -22.5310   12.4400  -19.4870 C.3    31  PRO31       0.0939
     24  N        -18.6790   12.9990  -16.8070 N.am   32  ARG32      -0.1964
     25  CA       -17.7400   12.2550  -15.9680 C.3    32  ARG32       0.1729
     26  C        -18.0780   12.4580  -14.4890 C.2    32  ARG32       0.2616
     27  O        -17.3260   13.0490  -13.7220 O.2    32  ARG32      -0.2715
     28  CB       -16.3080   12.6640  -16.3020 C.3    32  ARG32       0.0348
     29  CG       -15.9280   12.3700  -17.7670 C.3    32  ARG32       0.0492
     30  CD       -14.4240   12.6350  -18.0580 C.3    32  ARG32       0.2205
     31  NE       -13.5770   11.8990  -17.1230 N.pl3  32  ARG32      -0.0865
     32  CZ       -13.0450   12.4210  -16.0210 C.cat  32  ARG32       0.5346
     33  NH1      -13.2340   13.7040  -15.7270 N.pl3  32  ARG32       0.1354
     34  NH2      -12.3050   11.6680  -15.2270 N.pl3  32  ARG32       0.1354
     35  N        -19.2330   11.9200  -14.0900 N.am   33  ASN33      -0.1972
     36  CA       -19.7320   12.1570  -12.7380 C.3    33  ASN33       0.1688
     37  C        -18.8000   11.5570  -11.6960 C.2    33  ASN33       0.2292
     38  O        -18.3190   10.4270  -11.8320 O.2    33  ASN33      -0.2864
     39  CB       -21.1440   11.5940  -12.5720 C.3    33  ASN33       0.1181
     40  CG       -22.2020   12.5290  -13.1360 C.2    33  ASN33       0.2629
     41  OD1      -22.2640   13.7020  -12.7660 O.2    33  ASN33      -0.2716
     42  ND2      -23.0070   12.0270  -14.0690 N.am   33  ASN33      -0.0877
     43  N        -10.1060   13.8720  -17.6930 N.3    88  SER88      -0.1202
     44  CA       -11.0100   13.9660  -18.8380 C.3    88  SER88       0.2020
     45  C        -11.1850   12.5830  -19.4510 C.2    88  SER88       0.2619
     46  O        -10.6520   11.5820  -18.9630 O.2    88  SER88      -0.2717
     47  CB       -10.4850   14.9600  -19.8800 C.3    88  SER88       0.2103
     48  OG       -11.5020   15.4340  -20.7520 O.3    88  SER88      -0.2182
     49  N        -11.9480   12.5370  -20.5340 N.am   89  HIS89      -0.1961
     50  CA       -11.9140   11.3740  -21.3970 C.3    89  HIS89       0.1787
     51  C        -10.6100   11.3650  -22.1800 C.2    89  HIS89       0.2620
     52  O         -9.8960   12.3710  -22.2650 O.2    89  HIS89      -0.2715
     53  CB       -13.0890   11.3750  -22.3780 C.3    89  HIS89       0.0785
     54  CG       -14.4230   11.1330  -21.7410 C.ar   89  HIS89       0.0821
     55  ND1      -14.7140    9.9860  -21.0340 N.ar   89  HIS89      -0.2267
     56  CD2      -15.5590   11.8680  -21.7470 C.ar   89  HIS89       0.1154
     57  CE1      -15.9660   10.0330  -20.6140 C.ar   89  HIS89       0.1986
     58  NE2      -16.5040   11.1620  -21.0390 N.ar   89  HIS89      -0.2212
     59  N        -10.3000   10.2150  -22.7610 N.am   90  GLY90      -0.1954
     60  CA        -9.1690   10.1440  -23.6640 C.3    90  GLY90       0.1869
     61  C         -9.2750    8.9050  -24.5290 C.2    90  GLY90       0.2309
     62  O        -10.2140    8.1140  -24.4100 O.2    90  GLY90      -0.2863
     63  N         -5.5240   11.3090  -15.6500 N.3   129  GLN129     -0.1245
     64  CA        -6.6750   10.4220  -15.5150 C.3   129  GLN129      0.1566
     65  C         -7.4760   10.5060  -16.8090 C.2   129  GLN129      0.2260
     66  O         -8.1370   11.5190  -17.0680 O.2   129  GLN129     -0.2867
     67  CB        -7.5380   10.8110  -14.3140 C.3   129  GLN129      0.0367
     68  CG        -8.9110   10.1310  -14.3020 C.3   129  GLN129      0.0905
     69  CD        -8.7890    8.6180  -14.2490 C.2   129  GLN129      0.2608
     70  OE1       -7.9740    8.0870  -13.4970 O.2   129  GLN129     -0.2717
     71  NE2       -9.6010    7.9200  -15.0340 N.am  129  GLN129     -0.0878
     72  N         -8.8480    7.5580  -20.2780 N.3   131  CYS131     -0.1235
     73  CA        -8.7020    6.3010  -21.0060 C.3   131  CYS131      0.1677
     74  C         -7.5950    6.3890  -22.0470 C.2   131  CYS131      0.2270
     75  O         -7.2860    7.4620  -22.5740 O.2   131  CYS131     -0.2867
     76  CB       -10.0070    5.9390  -21.7080 C.3   131  CYS131      0.0956
     77  SG       -11.2490    5.4280  -20.5490 S.3   131  CYS131     -0.0801
     78  N         -8.9130    0.9260  -21.1550 N.3   163  TYR163     -0.1227
     79  CA        -9.8240    1.7660  -20.4060 C.3   163  TYR163      0.1736
     80  C         -9.2530    2.1010  -19.0300 C.2   163  TYR163      0.2596
     81  O         -8.4380    1.3730  -18.4650 O.2   163  TYR163     -0.2718
     82  CB       -11.1560    1.0530  -20.2110 C.3   163  TYR163      0.0548
     83  CG       -12.0870    1.0710  -21.3930 C.ar  163  TYR163     -0.0200
     84  CD1      -12.5290    2.2730  -21.9370 C.ar  163  TYR163     -0.0009
     85  CD2      -12.5690   -0.1150  -21.9310 C.ar  163  TYR163     -0.0009
     86  CE1      -13.4040    2.2950  -23.0090 C.ar  163  TYR163      0.0417
     87  CE2      -13.4590   -0.1150  -22.9840 C.ar  163  TYR163      0.0417
     88  CZ       -13.8680    1.0900  -23.5250 C.ar  163  TYR163      0.1957
     89  OH       -14.7440    1.0880  -24.5770 O.3   163  TYR163     -0.2866
     90  N         -9.7290    3.2050  -18.4820 N.am  164  SER164     -0.1938
     91  CA        -9.4410    3.6330  -17.1260 C.3   164  SER164      0.2055
     92  C        -10.7640    3.7730  -16.3860 C.2   164  SER164      0.2643
     93  O        -11.7640    4.2030  -16.9690 O.2   164  SER164     -0.2714
     94  CB        -8.6720    4.9690  -17.1380 C.3   164  SER164      0.2130
     95  OG        -8.5200    5.5010  -15.8360 O.3   164  SER164     -0.2179
     96  N        -10.7810    3.3980  -15.1100 N.am  165  TRP165     -0.1959
     97  CA       -12.0260    3.2600  -14.3630 C.3   165  TRP165      0.1771
     98  C        -12.2370    4.3930  -13.3590 C.2   165  TRP165      0.2620
     99  O        -11.2950    4.9290  -12.7690 O.2   165  TRP165     -0.2715
    100  CB       -12.0740    1.9180  -13.6300 C.3   165  TRP165      0.0590
    101  CG       -12.3520    0.7460  -14.5300 C.ar  165  TRP165      0.0006
    102  CD1      -11.4390   -0.0570  -15.1310 C.ar  165  TRP165      0.0946
    103  CD2      -13.6420    0.2450  -14.9080 C.ar  165  TRP165      0.0152
    104  NE1      -12.0740   -1.0220  -15.8750 N.ar  165  TRP165     -0.2442
    105  CE2      -13.4270   -0.8560  -15.7570 C.ar  165  TRP165      0.0810
    106  CE3      -14.9600    0.6380  -14.6290 C.ar  165  TRP165      0.0012
    107  CZ2      -14.4830   -1.5890  -16.3210 C.ar  165  TRP165      0.0191
    108  CZ3      -16.0070   -0.0890  -15.1910 C.ar  165  TRP165      0.0001
    109  CH2      -15.7610   -1.1930  -16.0220 C.ar  165  TRP165      0.0015
    110  N        -13.5040    4.7080  -13.1480 N.am  166  ARG166     -0.1963
    111  CA       -13.9630    5.8050  -12.3190 C.3   166  ARG166      0.1729
    112  C        -15.2430    5.3720  -11.6180 C.2   166  ARG166      0.2616
    113  O        -16.1070    4.7300  -12.2220 O.2   166  ARG166     -0.2715
    114  CB       -14.1990    7.0650  -13.1760 C.3   166  ARG166      0.0348
    115  CG       -15.0280    8.1690  -12.5320 C.3   166  ARG166      0.0492
    116  CD       -15.1500    9.4070  -13.4510 C.3   166  ARG166      0.2205
    117  NE       -15.4300    9.0350  -14.8420 N.pl3 166  ARG166     -0.0865
    118  CZ       -16.6390    8.7190  -15.3100 C.cat 166  ARG166      0.5346
    119  NH1      -16.8010    8.3930  -16.5900 N.pl3 166  ARG166      0.1354
    120  NH2      -17.6930    8.7290  -14.5030 N.pl3 166  ARG166      0.1354
    121  N        -15.3490    5.7080  -10.3390 N.am  167  ASN167     -0.1958
    122  CA       -16.5690    5.5100   -9.5700 C.3   167  ASN167      0.1819
    123  C        -17.3110    6.8390   -9.4360 C.2   167  ASN167      0.2622
    124  O        -16.7010    7.8710   -9.1280 O.2   167  ASN167     -0.2715
    125  CB       -16.2430    4.9390   -8.1930 C.3   167  ASN167      0.1195
    126  CG       -17.4840    4.5200   -7.4410 C.2   167  ASN167      0.2630
    127  OD1      -17.9910    5.2570   -6.5960 O.2   167  ASN167     -0.2716
    128  ND2      -17.9960    3.3330   -7.7620 N.am  167  ASN167     -0.0877
    129  N        -18.6280    6.8160   -9.6700 N.am  168  THR168     -0.1937
    130  CA       -19.3780    8.0710   -9.6910 C.3   168  THR168      0.2028
    131  C        -19.4830    8.6980   -8.3120 C.2   168  THR168      0.2642
    132  O        -19.6310    9.9200   -8.2040 O.2   168  THR168     -0.2714
    133  CB       -20.7730    7.8540  -10.2590 C.3   168  THR168      0.1808
    134  OG1      -21.3290    6.6670   -9.6850 O.3   168  THR168     -0.2208
    135  CG2      -20.7020    7.7110  -11.7740 C.3   168  THR168      0.0379
    136  N        -19.4000    7.8930   -7.2530 N.am  169  MET169     -0.1976
    137  CA       -19.4780    8.4190   -5.8950 C.3   169  MET169      0.1605
    138  C        -18.1100    8.8030   -5.3270 C.2   169  MET169      0.2287
    139  O        -17.9820    9.8690   -4.7190 O.2   169  MET169     -0.2864
    140  CB       -20.1710    7.4010   -4.9750 C.3   169  MET169      0.0413
    141  CG       -21.6130    7.0440   -5.2730 C.3   169  MET169      0.0598
    142  SD       -22.7140    8.4450   -5.3310 S.3   169  MET169     -0.1393
    143  CE       -22.6900    8.9380   -3.5340 C.3   169  MET169      0.0692
    144  N        -10.4460    5.5940   -9.7720 N.3   173  TRP173     -0.1241
    145  CA        -9.6280    4.6980   -8.9620 C.3   173  TRP173      0.1605
    146  C         -8.2230    5.2590   -8.7560 C.2   173  TRP173      0.2264
    147  O         -7.6700    5.2000   -7.6530 O.2   173  TRP173     -0.2867
    148  CB        -9.5420    3.3390   -9.6440 C.3   173  TRP173      0.0550
    149  CG       -10.8060    2.6220   -9.7640 C.ar  173  TRP173      0.0003
    150  CD1      -12.0440    3.0330   -9.3420 C.ar  173  TRP173      0.0946
    151  CD2      -10.9850    1.3310  -10.3440 C.ar  173  TRP173      0.0152
    152  NE1      -12.9800    2.0600   -9.6180 N.ar  173  TRP173     -0.2442
    153  CE2      -12.3570    1.0110  -10.2420 C.ar  173  TRP173      0.0810
    154  CE3      -10.1220    0.4120  -10.9440 C.ar  173  TRP173      0.0012
    155  CZ2      -12.8780   -0.1920  -10.7160 C.ar  173  TRP173      0.0191
    156  CZ3      -10.6450   -0.7860  -11.4020 C.ar  173  TRP173      0.0001
    157  CH2      -12.0040   -1.0780  -11.2830 C.ar  173  TRP173      0.0015
    158  N        -12.0140   -3.5000   -8.2580 N.3   207  GLU207     -0.1231
    159  CA       -12.4870   -4.4000   -9.2960 C.3   207  GLU207      0.1699
    160  C        -13.8660   -3.9200   -9.7240 C.2   207  GLU207      0.2593
    161  O        -14.6960   -3.5920   -8.8760 O.2   207  GLU207     -0.2718
    162  CB       -12.5360   -5.8560   -8.8060 C.3   207  GLU207      0.0402
    163  CG       -12.7970   -6.8440   -9.9410 C.3   207  GLU207      0.1161
    164  CD       -13.0770   -8.2700   -9.4570 C.2   207  GLU207      0.3649
    165  OE1      -14.2530   -8.5920   -9.1610 O.co2 207  GLU207     -0.2457
    166  OE2      -12.1160   -9.0700   -9.3730 O.co2 207  GLU207     -0.2457
    167  N        -14.1170   -3.8930  -11.0310 N.am  208  SER208     -0.1938
    168  CA       -15.3460   -3.2750  -11.5140 C.3   208  SER208      0.2055
    169  C        -16.5640   -4.1430  -11.2020 C.2   208  SER208      0.2644
    170  O        -16.4940   -5.3770  -11.1500 O.2   208  SER208     -0.2714
    171  CB       -15.2800   -3.0030  -13.0230 C.3   208  SER208      0.2130
    172  OG       -15.3890   -4.2000  -13.7920 O.3   208  SER208     -0.2179
    173  N        -17.6880   -3.4650  -10.9830 N.am  209  THR209     -0.1936
    174  CA       -19.0080   -4.0740  -10.8950 C.3   209  THR209      0.2028
    175  C        -19.8970   -3.3960  -11.9330 C.2   209  THR209      0.2642
    176  O        -20.0660   -2.1730  -11.9080 O.2   209  THR209     -0.2714
    177  CB       -19.5910   -3.9120   -9.4890 C.3   209  THR209      0.1808
    178  OG1      -18.5980   -4.2580   -8.5090 O.3   209  THR209     -0.2208
    179  CG2      -20.8010   -4.8080   -9.3180 C.3   209  THR209      0.0379
    180  N        -20.4390   -4.1750  -12.8600 N.am  210  SER210     -0.1949
    181  CA       -21.2800   -3.5940  -13.8960 C.3   210  SER210      0.1924
    182  C        -22.2070   -4.6700  -14.4300 C.2   210  SER210      0.2314
    183  O        -21.8140   -5.8350  -14.5580 O.2   210  SER210     -0.2863
    184  CB       -20.4440   -2.9870  -15.0400 C.3   210  SER210      0.2116
    185  OG       -21.2380   -2.6890  -16.1810 O.3   210  SER210     -0.2180
    186  N        -18.3640   -5.7770  -19.1800 N.3   215  PHE215     -0.1241
    187  CA       -17.6890   -4.7840  -18.3520 C.3   215  PHE215      0.1605
    188  C        -17.5070   -5.1930  -16.8980 C.2   215  PHE215      0.2264
    189  O        -17.0010   -4.3930  -16.1120 O.2   215  PHE215     -0.2867
    190  CB       -18.4310   -3.4500  -18.4400 C.3   215  PHE215      0.0534
    191  CG       -18.0950   -2.6860  -19.6830 C.ar  215  PHE215     -0.0203
    192  CD1      -18.7650   -2.9430  -20.8690 C.ar  215  PHE215     -0.0042
    193  CD2      -17.0500   -1.7720  -19.6850 C.ar  215  PHE215     -0.0042
    194  CE1      -18.4300   -2.2730  -22.0330 C.ar  215  PHE215     -0.0003
    195  CE2      -16.7080   -1.0880  -20.8410 C.ar  215  PHE215     -0.0003
    196  CZ       -17.3980   -1.3390  -22.0210 C.ar  215  PHE215     -0.0000
@<TRIPOS>BOND
     1     1     2    1
     2     6     7    1
     3     6     5    1
     4     7     8    1
     5     2     5    1
     6     2     3    1
     7    89    88    1
     8    61    62    2
     9    61    60    1
    10     4     3    2
    11     3     9   am
    12    60    59    1
    13    88    86   ar
    14    88    87   ar
    15    86    84   ar
    16    87    85   ar
    17    59    51   am
    18     9    10    1
    19    75    74    2
    20    15    14    2
    21    53    54    1
    22    53    50    1
    23    52    51    2
    24    51    50    1
    25    74    73    1
    26   194   196   ar
    27   194   192   ar
    28   196   195   ar
    29    84    83   ar
    30    85    83   ar
    31    16    14   am
    32    14    13    1
    33    56    54   ar
    34    56    58   ar
    35    54    55   ar
    36    76    73    1
    37    76    77    1
    38    10    13    1
    39    10    11    1
    40    50    49    1
    41    83    82    1
    42    78    79    1
    43    58    57   ar
    44    55    57   ar
    45    73    72    1
    46   192   191   ar
    47   195   193   ar
    48    48    47    1
    49    49    45   am
    50    79    82    1
    51    79    80    1
    52    11    12    2
    53    11    17   am
    54    47    44    1
    55   193   191   ar
    56   191   190    1
    57    23    17    1
    58    23    22    1
    59    17    18    1
    60    45    46    2
    61    45    44    1
    62   186   187    1
    63    80    90   am
    64    80    81    2
    65    44    43    1
    66    22    21    1
    67    90    91    1
    68   190   187    1
    69    18    21    1
    70    18    19    1
    71   187   188    1
    72    30    29    1
    73    30    31    1
    74    29    28    1
    75    19    20    2
    76    19    24   am
    77    94    91    1
    78    94    95    1
    79    91    92    1
    80    31    32    2
    81    66    65    2
    82    93    92    2
    83   188   189    2
    84    65    64    1
    85    24    25    1
    86   119   118    1
    87    92    96   am
    88   107   109   ar
    89   107   105   ar
    90    28    25    1
    91   185   184    1
    92   109   108   ar
    93    32    33    1
    94    32    34    1
    95    25    26    1
    96   104   105   ar
    97   104   102   ar
    98   105   103   ar
    99    63    64    1
   100    64    67    1
   101   118   117    2
   102   118   120    1
   103   108   106   ar
   104   102   101   ar
   105    96    97    1
   106   184   181    1
   107    71    69   am
   108   103   106   ar
   109   103   101   ar
   110   117   116    1
   111   183   182    2
   112   101   100    1
   113    26    35   am
   114    26    27    2
   115   182   181    1
   116    97   100    1
   117    97    98    1
   118    67    68    1
   119    68    69    1
   120    69    70    2
   121    35    36    1
   122    42    40   am
   123   181   180    1
   124   172   171    1
   125   116   115    1
   126    98   110   am
   127    98    99    2
   128   114   115    1
   129   114   111    1
   130   110   111    1
   131    40    41    2
   132    40    39    1
   133   171   168    1
   134   180   175   am
   135    36    39    1
   136    36    37    1
   137   111   112    1
   138   113   112    2
   139   175   176    2
   140   175   174    1
   141    38    37    2
   142   135   133    1
   143   112   121   am
   144   168   169    1
   145   168   167    1
   146   156   157   ar
   147   156   154   ar
   148   157   155   ar
   149   169   170    2
   150   169   173   am
   151   167   160   am
   152   173   174    1
   153   154   151   ar
   154   174   177    1
   155   155   153   ar
   156   151   153   ar
   157   151   149   ar
   158   121   122    1
   159   133   130    1
   160   133   134    1
   161   153   152   ar
   162   163   164    1
   163   163   162    1
   164   144   145    1
   165   149   148    1
   166   149   150   ar
   167   160   159    1
   168   160   161    2
   169   130   129    1
   170   130   131    1
   171   129   123   am
   172   148   145    1
   173   152   150   ar
   174   122   123    1
   175   122   125    1
   176   177   179    1
   177   177   178    1
   178   164   166   ar
   179   164   165   ar
   180   123   124    2
   181   159   162    1
   182   159   158    1
   183   145   146    1
   184   146   147    2
   185   131   132    2
   186   131   136   am
   187   125   126    1
   188   128   126   am
   189   126   127    2
   190   136   137    1
   191   137   138    1
   192   137   140    1
   193   142   141    1
   194   142   143    1
   195   138   139    2
   196   141   140    1
