@<TRIPOS>MOLECULE
tmp/5jftA02.pdb
 87 80 0 0 0
SMALL
GASTEIGER

@<TRIPOS>ATOM
      1  N         -3.0380    7.9880  -26.7460 N.3    93  GLY93      -0.1225
      2  CA        -2.2490    9.1580  -27.0840 C.3    93  GLY93       0.1811
      3  C         -2.9590   10.5040  -27.0160 C.2    93  GLY93       0.2280
      4  O         -2.3110   11.5390  -27.2400 O.2    93  GLY93      -0.2866
      5  N         -1.7730   14.4850  -26.4550 N.3   104  LEU104     -0.1231
      6  CA        -1.1140   14.7790  -25.1830 C.3   104  LEU104      0.1693
      7  C          0.2650   15.3970  -25.4000 C.2   104  LEU104      0.2591
      8  O          0.6680   16.3040  -24.6630 O.2   104  LEU104     -0.2718
      9  CB        -1.0030   13.5050  -24.3480 C.3   104  LEU104      0.0284
     10  CG        -2.1830   13.1830  -23.4450 C.3   104  LEU104      0.0019
     11  CD1       -2.2100   11.6930  -23.0940 C.3   104  LEU104      0.0001
     12  CD2       -2.0770   14.0250  -22.1800 C.3   104  LEU104      0.0001
     13  N          1.0020   14.9080  -26.4030 N.am  105  LYS105     -0.1980
     14  CA         2.2990   15.4710  -26.7630 C.3   105  LYS105      0.1596
     15  C          2.2260   16.9840  -26.9240 C.2   105  LYS105      0.2287
     16  O          3.1670   17.7030  -26.5650 O.2   105  LYS105     -0.2864
     17  CB         2.7880   14.8130  -28.0580 C.3   105  LYS105      0.0298
     18  CG         4.1280   15.3140  -28.5980 C.3   105  LYS105      0.0038
     19  CD         5.3070   14.6350  -27.9140 C.3   105  LYS105      0.0206
     20  CE         6.6430   15.2870  -28.2690 C.3   105  LYS105      0.1093
     21  NZ         7.7730   14.7700  -27.4260 N.3   105  LYS105     -0.1314
     22  N          2.1040   18.5450  -23.2590 N.3   108  THR108     -0.1218
     23  CA         3.2810   18.4240  -22.4150 C.3   108  THR108      0.1862
     24  C          4.5040   19.0880  -23.0360 C.2   108  THR108      0.2287
     25  O          5.3210   19.6570  -22.3100 O.2   108  THR108     -0.2866
     26  CB         3.5270   16.9520  -22.1010 C.3   108  THR108      0.1770
     27  OG1        3.8400   16.2380  -23.3020 O.3   108  THR108     -0.2211
     28  CG2        2.2660   16.3520  -21.4670 C.3   108  THR108      0.0375
     29  N         -7.0180    5.2350  -22.3750 N.3   132  ARG132     -0.1245
     30  CA        -5.9300    5.1810  -23.3500 C.3   132  ARG132      0.1563
     31  C         -6.2150    4.1580  -24.4420 C.2   132  ARG132      0.2260
     32  O         -5.2900    3.6360  -25.0690 O.2   132  ARG132     -0.2867
     33  CB        -4.6000    4.8690  -22.6680 C.3   132  ARG132      0.0307
     34  CG        -4.3240    5.7740  -21.4970 C.3   132  ARG132      0.0489
     35  CD        -2.9790    5.4940  -20.9090 C.3   132  ARG132      0.2205
     36  NE        -1.9110    6.0130  -21.7440 N.pl3 132  ARG132     -0.0865
     37  CZ        -0.6250    5.7210  -21.5650 C.cat 132  ARG132      0.5346
     38  NH1       -0.2550    4.9010  -20.5810 N.pl3 132  ARG132      0.1354
     39  NH2        0.2910    6.2570  -22.3680 N.pl3 132  ARG132      0.1354
     40  N         13.8620   16.9060  -23.1360 N.3   149  GLU149     -0.1245
     41  CA        12.8050   16.0370  -22.6420 C.3   149  GLU149      0.1567
     42  C         13.0410   15.5670  -21.2080 C.2   149  GLU149      0.2260
     43  O         12.2820   14.7330  -20.7140 O.2   149  GLU149     -0.2867
     44  CB        12.6460   14.8260  -23.5650 C.3   149  GLU149      0.0388
     45  CG        12.2370   15.1700  -25.0100 C.3   149  GLU149      0.1160
     46  CD        10.7500   15.5160  -25.1530 C.2   149  GLU149      0.3649
     47  OE1       10.0130   15.4630  -24.1460 O.co2 149  GLU149     -0.2457
     48  OE2       10.3120   15.8420  -26.2780 O.co2 149  GLU149     -0.2457
     49  N          5.2870   11.3930  -16.2070 N.3   154  TYR154     -0.1241
     50  CA         3.9260   11.1990  -16.7090 C.3   154  TYR154      0.1605
     51  C          3.3230   10.0320  -15.9210 C.2   154  TYR154      0.2264
     52  O          3.5950    8.8700  -16.2130 O.2   154  TYR154     -0.2867
     53  CB         3.9090   10.9350  -18.2210 C.3   154  TYR154      0.0534
     54  CG         4.6930   11.9400  -19.0380 C.ar  154  TYR154     -0.0201
     55  CD1        5.9840   11.6670  -19.4480 C.ar  154  TYR154     -0.0009
     56  CD2        4.1450   13.1620  -19.3990 C.ar  154  TYR154     -0.0009
     57  CE1        6.7100   12.5810  -20.1880 C.ar  154  TYR154      0.0417
     58  CE2        4.8730   14.0840  -20.1400 C.ar  154  TYR154      0.0417
     59  CZ         6.1580   13.7840  -20.5320 C.ar  154  TYR154      0.1957
     60  OH         6.9080   14.6740  -21.2750 O.3   154  TYR154     -0.2866
     61  N          0.3590    8.0350  -15.5970 N.3   156  TYR156     -0.1241
     62  CA        -0.8930    7.6830  -16.2540 C.3   156  TYR156      0.1605
     63  C         -1.7360    6.7860  -15.3620 C.2   156  TYR156      0.2264
     64  O         -1.2070    5.9170  -14.6630 O.2   156  TYR156     -0.2867
     65  CB        -0.6320    6.9500  -17.5640 C.3   156  TYR156      0.0534
     66  CG        -0.1760    7.8010  -18.6950 C.ar  156  TYR156     -0.0201
     67  CD1       -1.0920    8.5030  -19.4500 C.ar  156  TYR156     -0.0009
     68  CD2        1.1700    7.8810  -19.0390 C.ar  156  TYR156     -0.0009
     69  CE1       -0.7030    9.2690  -20.4980 C.ar  156  TYR156      0.0417
     70  CE2        1.5730    8.6530  -20.1020 C.ar  156  TYR156      0.0417
     71  CZ         0.6220    9.3510  -20.8220 C.ar  156  TYR156      0.1957
     72  OH         0.9730   10.1410  -21.8880 O.3   156  TYR156     -0.2866
     73  N          5.5850    6.7870  -16.0080 N.3   225  VAL225     -0.1245
     74  CA         6.6240    7.0350  -17.0040 C.3   225  VAL225      0.1561
     75  C          7.5350    8.1270  -16.4590 C.2   225  VAL225      0.2260
     76  O          7.0980    9.2740  -16.2900 O.2   225  VAL225     -0.2867
     77  CB         6.0160    7.4670  -18.3490 C.3   225  VAL225      0.0252
     78  CG1        7.1150    7.7260  -19.3810 C.3   225  VAL225      0.0019
     79  CG2        5.0160    6.4350  -18.8600 C.3   225  VAL225      0.0019
     80  N         11.0870   10.3260  -16.8220 N.3   227  MET227     -0.1245
     81  CA        12.3230   10.9080  -17.3250 C.3   227  MET227      0.1570
     82  C         13.0000   11.7640  -16.2590 C.2   227  MET227      0.2261
     83  O         13.7290   12.7010  -16.5880 O.2   227  MET227     -0.2867
     84  CB        12.0660   11.7560  -18.5680 C.3   227  MET227      0.0387
     85  CG        12.0330   10.9670  -19.8280 C.3   227  MET227      0.0595
     86  SD        10.7190    9.7570  -19.7470 S.3   227  MET227     -0.1393
     87  CE         9.3600   10.6480  -20.4600 C.3   227  MET227      0.0692
@<TRIPOS>BOND
     1    18    17    1
     2    18    19    1
     3    20    19    1
     4    20    21    1
     5    17    14    1
     6     4     3    2
     7     2     3    1
     8     2     1    1
     9    15    14    1
    10    15    16    2
    11    14    13    1
    12     5     6    1
    13    13     7   am
    14    48    46   ar
    15     7     6    1
    16     7     8    2
    17     6     9    1
    18    46    45    1
    19    46    47   ar
    20    32    31    2
    21    45    44    1
    22    31    30    1
    23     9    10    1
    24    44    41    1
    25    10    11    1
    26    10    12    1
    27    30    33    1
    28    30    29    1
    29    27    26    1
    30    22    23    1
    31    40    41    1
    32    24    23    1
    33    24    25    2
    34    33    34    1
    35    41    42    1
    36    23    26    1
    37    39    37    1
    38    26    28    1
    39    72    71    1
    40    36    37    2
    41    36    35    1
    42    37    38    1
    43    34    35    1
    44    60    59    1
    45    42    43    2
    46    71    69   ar
    47    71    70   ar
    48    59    57   ar
    49    59    58   ar
    50    69    67   ar
    51    87    86    1
    52    57    55   ar
    53    58    56   ar
    54    70    68   ar
    55    85    86    1
    56    85    84    1
    57    67    66   ar
    58    55    54   ar
    59    56    54   ar
    60    78    77    1
    61    68    66   ar
    62    54    53    1
    63    79    77    1
    64    66    65    1
    65    84    81    1
    66    77    74    1
    67    53    50    1
    68    65    62    1
    69    81    80    1
    70    81    82    1
    71    74    75    1
    72    74    73    1
    73    50    49    1
    74    50    51    1
    75    83    82    2
    76    75    76    2
    77    62    61    1
    78    62    63    1
    79    52    51    2
    80    63    64    2
