@<TRIPOS>MOLECULE
tmp/5jfuA00.pdb
 121 113 0 0 0
SMALL
GASTEIGER

@<TRIPOS>ATOM
      1  N          2.7940   24.2300   16.9690 N.3     8  ARG8       -0.1245
      2  CA         3.9730   24.8850   16.4090 C.3     8  ARG8        0.1563
      3  C          3.6810   26.3210   16.0120 C.2     8  ARG8        0.2260
      4  O          2.6800   26.5260   15.3180 O.2     8  ARG8       -0.2867
      5  CB         4.4400   24.0630   15.1920 C.3     8  ARG8        0.0307
      6  CG         5.2450   22.8510   15.6500 C.3     8  ARG8        0.0489
      7  CD         5.9180   22.1380   14.4880 C.3     8  ARG8        0.2205
      8  NE         6.5200   20.8790   14.9380 N.pl3   8  ARG8       -0.0865
      9  CZ         7.4450   20.2280   14.2320 C.cat   8  ARG8        0.5346
     10  NH1        7.9540   19.0890   14.6860 N.pl3   8  ARG8        0.1354
     11  NH2        7.8780   20.6990   13.0660 N.pl3   8  ARG8        0.1354
     12  N          8.8710   28.6000   11.2940 N.3    23  LEU23      -0.1245
     13  CA         8.7240   28.3910   12.7270 C.3    23  LEU23       0.1561
     14  C          9.3720   29.5440   13.4740 C.2    23  LEU23       0.2260
     15  O         10.5530   29.8040   13.2190 O.2    23  LEU23      -0.2867
     16  CB         9.3460   27.0250   13.0090 C.3    23  LEU23       0.0270
     17  CG         9.0920   26.3230   14.3350 C.3    23  LEU23       0.0019
     18  CD1        7.6480   25.8980   14.4650 C.3    23  LEU23       0.0001
     19  CD2        9.9970   25.1070   14.4910 C.3    23  LEU23       0.0001
     20  N         11.3380   30.5690   16.3300 N.3    25  ASP25      -0.1239
     21  CA        12.1200   29.6790   17.1890 C.3    25  ASP25       0.1674
     22  C         13.1030   30.4060   18.1000 C.2    25  ASP25       0.2266
     23  O         14.2250   30.7660   17.7330 O.2    25  ASP25      -0.2867
     24  CB        12.8740   28.7020   16.2880 C.3    25  ASP25       0.1410
     25  CG        13.5630   27.5870   17.0400 C.2    25  ASP25       0.3668
     26  OD1       13.5460   27.6030   18.2840 O.co2  25  ASP25      -0.2456
     27  OD2       14.1280   26.7020   16.3530 O.co2  25  ASP25      -0.2456
     28  N         14.7980   29.1130   20.3670 N.3    27  GLY27      -0.1210
     29  CA        15.9850   28.3180   20.6380 C.3    27  GLY27       0.1956
     30  C         17.0480   28.4220   19.5530 C.2    27  GLY27       0.2612
     31  O         18.1550   27.8840   19.7190 O.2    27  GLY27      -0.2717
     32  N         16.7210   29.1010   18.4510 N.am   28  ALA28      -0.1965
     33  CA        17.6540   29.2480   17.3370 C.3    28  ALA28       0.1728
     34  C         18.4100   30.5820   17.3900 C.2    28  ALA28       0.2616
     35  O         17.7820   31.6510   17.3410 O.2    28  ALA28      -0.2715
     36  CB        16.8880   29.1640   16.0110 C.3    28  ALA28       0.0334
     37  N         19.7370   30.5280   17.4690 N.am   29  ASP29      -0.1957
     38  CA        20.5430   31.7420   17.4340 C.3    29  ASP29       0.1840
     39  C         20.3270   32.5100   16.1230 C.2    29  ASP29       0.2622
     40  O         20.1930   33.7300   16.1100 O.2    29  ASP29      -0.2715
     41  CB        22.0300   31.4250   17.5580 C.3    29  ASP29       0.1450
     42  CG        22.4200   30.8410   18.9080 C.2    29  ASP29       0.3671
     43  OD1       21.6800   31.0010   19.9010 O.co2  29  ASP29      -0.2456
     44  OD2       23.5100   30.2310   18.9370 O.co2  29  ASP29      -0.2456
     45  N         20.3150   31.7380   15.0450 N.am   30  ASP30      -0.1971
     46  CA        20.3040   32.2510   13.6810 C.3    30  ASP30       0.1709
     47  C         19.0890   31.7570   12.9070 C.2    30  ASP30       0.2293
     48  O         18.4340   30.7880   13.2610 O.2    30  ASP30      -0.2864
     49  CB        21.5700   31.7930   12.9590 C.3    30  ASP30       0.1436
     50  CG        22.8580   32.2270   13.6290 C.2    30  ASP30       0.3671
     51  OD1       22.9000   33.3590   14.1480 O.co2  30  ASP30      -0.2456
     52  OD2       23.8330   31.4500   13.6390 O.co2  30  ASP30      -0.2456
     53  N         17.4170   30.0510    9.6150 N.3    32  VAL32      -0.1245
     54  CA        17.8780   28.9480    8.7790 C.3    32  VAL32       0.1561
     55  C         16.7290   28.5920    7.8430 C.2    32  VAL32       0.2260
     56  O         15.6730   28.1930    8.3190 O.2    32  VAL32      -0.2867
     57  CB        18.2720   27.6590    9.5220 C.3    32  VAL32       0.0252
     58  CG1       18.9950   26.7000    8.5710 C.3    32  VAL32       0.0019
     59  CG2       19.1570   27.9080   10.7480 C.3    32  VAL32       0.0019
     60  N         29.3820   27.8320    6.5780 N.3    45  LYS45      -0.1245
     61  CA        29.2600   27.8410    8.0330 C.3    45  LYS45       0.1561
     62  C         28.7890   26.4860    8.5390 C.2    45  LYS45       0.2260
     63  O         28.0190   25.8640    7.8010 O.2    45  LYS45      -0.2867
     64  CB        28.2400   28.9160    8.4370 C.3    45  LYS45       0.0271
     65  CG        28.2280   29.2320    9.9350 C.3    45  LYS45       0.0035
     66  CD        27.1670   30.2800   10.2230 C.3    45  LYS45       0.0206
     67  CE        26.8720   30.3880   11.7120 C.3    45  LYS45       0.1093
     68  NZ        27.9610   31.1360   12.3920 N.3    45  LYS45      -0.1314
     69  N         26.5740   24.6650   11.6110 N.3    47  ILE47      -0.1231
     70  CA        25.7070   24.9080   12.7600 C.3    47  ILE47       0.1692
     71  C         25.3090   23.5530   13.3490 C.2    47  ILE47       0.2593
     72  O         25.1450   22.5680   12.6280 O.2    47  ILE47      -0.2718
     73  CB        24.4250   25.7030   12.4570 C.3    47  ILE47       0.0266
     74  CG1       23.5230   25.0620   11.3990 C.3    47  ILE47       0.0019
     75  CG2       24.7540   27.1400   12.0670 C.3    47  ILE47       0.0020
     76  CD1       22.2010   25.7570   11.1900 C.3    47  ILE47       0.0001
     77  N         25.1700   23.5630   14.6680 N.am   48  GLY48      -0.1942
     78  CA        24.9500   22.3270   15.3890 C.3    48  GLY48       0.2014
     79  C         23.7470   22.3720   16.2960 C.2    48  GLY48       0.2639
     80  O         23.3460   23.4170   16.8160 O.2    48  GLY48      -0.2714
     81  N         23.1800   21.1920   16.4990 N.am   49  GLY49      -0.1939
     82  CA        22.0970   20.9930   17.4530 C.3    49  GLY49       0.2014
     83  C         21.9560   19.5080   17.7450 C.2    49  GLY49       0.2638
     84  O         22.9260   18.7580   17.6430 O.2    49  GLY49      -0.2714
     85  N         20.7380   19.1030   18.0970 N.am   50  ILE50      -0.1977
     86  CA        20.5630   17.6790   18.3880 C.3    50  ILE50       0.1596
     87  C         20.8940   16.9090   17.1250 C.2    50  ILE50       0.2287
     88  O         20.5270   17.3290   16.0210 O.2    50  ILE50      -0.2864
     89  CB        19.1460   17.4450   18.9120 C.3    50  ILE50       0.0276
     90  CG1       19.0090   17.7240   20.4140 C.3    50  ILE50       0.0022
     91  CG2       18.6470   16.0420   18.5980 C.3    50  ILE50       0.0022
     92  CD1       17.5720   17.9310   20.8600 C.3    50  ILE50       0.0001
     93  N         17.4490   21.9320    5.8540 N.3    80  THR80      -0.1204
     94  CA        16.4770   21.8010    6.9280 C.3    80  THR80       0.1979
     95  C         15.1020   21.5260    6.3500 C.2    80  THR80       0.2460
     96  O         14.6900   22.1010    5.3510 O.2    80  THR80      -0.2732
     97  CB        16.4110   23.0660    7.8090 C.3    80  THR80       0.1783
     98  OG1       15.3160   22.9420    8.7260 O.3    80  THR80      -0.2211
     99  CG2       16.1540   24.3030    6.9540 C.3    80  THR80       0.0376
    100  N         14.3530   20.6470    7.0020 N.am   81  PRO81      -0.2717
    101  CA        12.9750   20.3660    6.6170 C.3    81  PRO81       0.1535
    102  C         11.9840   21.4720    6.9480 C.2    81  PRO81       0.2598
    103  O         10.8740   21.5450    6.4180 O.2    81  PRO81      -0.2715
    104  CB        12.6460   19.1510    7.4980 C.3    81  PRO81       0.0310
    105  CG        13.5330   19.2910    8.6870 C.3    81  PRO81       0.0237
    106  CD        14.8270   19.8530    8.1580 C.3    81  PRO81       0.0939
    107  N         12.3640   22.3540    7.8650 N.am   82  VAL82      -0.1978
    108  CA        11.4750   23.4230    8.2980 C.3    82  VAL82       0.1596
    109  C         12.2530   24.7340    8.3450 C.2    82  VAL82       0.2287
    110  O         13.3730   24.7290    8.8550 O.2    82  VAL82      -0.2864
    111  CB        10.8880   23.1400    9.6880 C.3    82  VAL82       0.0276
    112  CG1       10.0200   24.2970   10.1760 C.3    82  VAL82       0.0022
    113  CG2       10.0730   21.8540    9.6690 C.3    82  VAL82       0.0022
    114  N         13.3540   28.1500    9.8640 N.3    84  ILE84      -0.1245
    115  CA        13.1800   28.7120   11.2010 C.3    84  ILE84       0.1561
    116  C         13.7130   30.1480   11.2450 C.2    84  ILE84       0.2260
    117  O         14.7470   30.5150   10.6930 O.2    84  ILE84      -0.2867
    118  CB        13.8700   27.9150   12.3060 C.3    84  ILE84       0.0252
    119  CG1       15.3800   27.7970   12.1130 C.3    84  ILE84       0.0019
    120  CG2       13.2240   26.5470   12.4680 C.3    84  ILE84       0.0019
    121  CD1       15.9290   26.4490   12.5350 C.3    84  ILE84       0.0001
@<TRIPOS>BOND
     1    96    95    2
     2    93    94    1
     3    95    94    1
     4    95   100   am
     5   103   102    2
     6    60    61    1
     7   101   102    1
     8   101   100    1
     9   101   104    1
    10    94    97    1
    11   102   107   am
    12    99    97    1
    13   100   106    1
    14   104   105    1
    15    63    62    2
    16    97    98    1
    17    55    56    2
    18    55    54    1
    19   107   108    1
    20    61    64    1
    21    61    62    1
    22   106   105    1
    23   108   109    1
    24   108   111    1
    25   109   110    2
    26    64    65    1
    27    58    57    1
    28    54    57    1
    29    54    53    1
    30    57    59    1
    31   113   111    1
    32   111   112    1
    33   114   115    1
    34    65    66    1
    35    66    67    1
    36   117   116    2
    37    76    74    1
    38   115   116    1
    39   115   118    1
    40    12    13    1
    41    74    73    1
    42    69    70    1
    43    67    68    1
    44    75    73    1
    45   119   118    1
    46   119   121    1
    47   118   120    1
    48    73    70    1
    49    72    71    2
    50    13    16    1
    51    13    14    1
    52    70    71    1
    53    47    48    2
    54    47    46    1
    55    49    50    1
    56    49    46    1
    57    16    17    1
    58    11     9    1
    59    15    14    2
    60    71    77   am
    61    50    52   ar
    62    50    51   ar
    63    46    45    1
    64     9    10    1
    65     9     8    2
    66    17    18    1
    67    17    19    1
    68     7     8    1
    69     7     6    1
    70    77    78    1
    71    45    39   am
    72     5     6    1
    73     5     2    1
    74     4     3    2
    75    78    79    1
    76    36    33    1
    77     3     2    1
    78    88    87    2
    79    40    39    2
    80    39    38    1
    81    24    25    1
    82    24    21    1
    83    79    81   am
    84    79    80    2
    85    20    21    1
    86    27    25   ar
    87     2     1    1
    88    81    82    1
    89    25    26   ar
    90    87    86    1
    91    21    22    1
    92    33    34    1
    93    33    32    1
    94    35    34    2
    95    34    37   am
    96    38    37    1
    97    38    41    1
    98    82    83    1
    99    41    42    1
   100    84    83    2
   101    23    22    2
   102    83    85   am
   103    85    86    1
   104    86    89    1
   105    32    30   am
   106    91    89    1
   107    42    44   ar
   108    42    43   ar
   109    89    90    1
   110    30    31    2
   111    30    29    1
   112    28    29    1
   113    90    92    1
