@<TRIPOS>MOLECULE
tmp/5jfwA00.pdb
 193 183 0 0 0
SMALL
GASTEIGER

@<TRIPOS>ATOM
      1  N        -23.3330  -52.6710   -2.3380 N.3    28  LEU28      -0.1231
      2  CA       -21.9900  -52.4200   -1.7930 C.3    28  LEU28       0.1693
      3  C        -22.1590  -51.7890   -0.4020 C.2    28  LEU28       0.2592
      4  O        -21.3170  -51.9700    0.4770 O.2    28  LEU28      -0.2718
      5  CB       -21.1550  -51.5190   -2.7150 C.3    28  LEU28       0.0284
      6  CG       -20.7830  -52.0650   -4.1030 C.3    28  LEU28       0.0019
      7  CD1      -20.1880  -50.9660   -4.9620 C.3    28  LEU28       0.0001
      8  CD2      -19.7990  -53.2480   -4.0250 C.3    28  LEU28       0.0001
      9  N        -23.2770  -51.0990   -0.2190 N.am   29  GLY29      -0.1957
     10  CA       -23.6610  -50.4610    1.0350 C.3    29  GLY29       0.1869
     11  C        -24.9230  -49.6400    0.9110 C.2    29  GLY29       0.2309
     12  O        -25.6290  -49.7230   -0.1010 O.2    29  GLY29      -0.2863
     13  N        -26.3470  -48.2090   -2.2870 N.3    36  VAL36      -0.1245
     14  CA       -25.2500  -48.1820   -3.2790 C.3    36  VAL36       0.1561
     15  C        -25.0520  -49.5990   -3.8360 C.2    36  VAL36       0.2260
     16  O        -24.9110  -50.5520   -3.0650 O.2    36  VAL36      -0.2867
     17  CB       -23.9350  -47.6120   -2.6830 C.3    36  VAL36       0.0252
     18  CG1      -22.8090  -47.5790   -3.7330 C.3    36  VAL36       0.0019
     19  CG2      -24.1650  -46.2120   -2.1150 C.3    36  VAL36       0.0019
     20  N        -20.4960  -47.8280   -9.7370 N.3    54  ALA54      -0.1245
     21  CA       -21.2170  -47.8520   -8.4640 C.3    54  ALA54       0.1562
     22  C        -22.4380  -46.9760   -8.7030 C.2    54  ALA54       0.2260
     23  O        -22.3400  -45.9160   -9.3330 O.2    54  ALA54      -0.2867
     24  CB       -20.3610  -47.3000   -7.3300 C.3    54  ALA54       0.0290
     25  N        -25.9300  -45.2310   -7.0410 N.3    56  LYS56      -0.1245
     26  CA       -26.6960  -44.8400   -5.8650 C.3    56  LYS56       0.1561
     27  C        -28.1570  -44.5950   -6.2760 C.2    56  LYS56       0.2260
     28  O        -28.4200  -43.8110   -7.1750 O.2    56  LYS56      -0.2867
     29  CB       -26.0700  -43.6150   -5.1730 C.3    56  LYS56       0.0271
     30  CG       -27.0310  -42.9470   -4.1980 C.3    56  LYS56       0.0035
     31  CD       -26.3430  -42.3430   -3.0370 C.3    56  LYS56       0.0206
     32  CE       -26.8960  -43.0060   -1.8150 C.3    56  LYS56       0.1093
     33  NZ       -26.2940  -42.4440   -0.5950 N.3    56  LYS56      -0.1314
     34  N        -27.2910  -31.4300   -6.8100 N.3    72  GLU72      -0.1245
     35  CA       -26.1720  -32.2820   -6.4230 C.3    72  GLU72       0.1567
     36  C        -25.4810  -32.8220   -7.7030 C.2    72  GLU72       0.2260
     37  O        -24.2720  -32.6840   -7.8420 O.2    72  GLU72      -0.2867
     38  CB       -26.6910  -33.4450   -5.5500 C.3    72  GLU72       0.0388
     39  CG       -25.6870  -34.5440   -5.2520 C.3    72  GLU72       0.1160
     40  CD       -24.7120  -34.3520   -4.1090 C.2    72  GLU72       0.3649
     41  OE1      -24.6210  -33.2270   -3.5640 O.co2  72  GLU72      -0.2457
     42  OE2      -24.0170  -35.3380   -3.7710 O.co2  72  GLU72      -0.2457
     43  N        -21.5910  -32.2190   -8.8170 N.3    76  LEU76      -0.1245
     44  CA       -20.7030  -33.3650   -8.9700 C.3    76  LEU76       0.1561
     45  C        -20.1030  -33.4260  -10.3560 C.2    76  LEU76       0.2260
     46  O        -18.9410  -33.8190  -10.4950 O.2    76  LEU76      -0.2867
     47  CB       -21.4130  -34.6750   -8.6420 C.3    76  LEU76       0.0270
     48  CG       -21.9380  -34.8360   -7.2130 C.3    76  LEU76       0.0019
     49  CD1      -22.6640  -36.1540   -7.0560 C.3    76  LEU76       0.0001
     50  CD2      -20.8060  -34.7020   -6.1560 C.3    76  LEU76       0.0001
     51  N        -16.8070  -31.5040  -10.5370 N.3    79  LEU79      -0.1245
     52  CA       -15.6410  -31.9730   -9.7790 C.3    79  LEU79       0.1561
     53  C        -14.8520  -32.9510  -10.6060 C.2    79  LEU79       0.2260
     54  O        -15.2370  -34.1140  -10.7470 O.2    79  LEU79      -0.2867
     55  CB       -16.0790  -32.5810   -8.4320 C.3    79  LEU79       0.0270
     56  CG       -16.9250  -31.6900   -7.5110 C.3    79  LEU79       0.0019
     57  CD1      -17.3140  -32.4680   -6.2400 C.3    79  LEU79       0.0001
     58  CD2      -16.1690  -30.4060   -7.1330 C.3    79  LEU79       0.0001
     59  N        -10.4570  -36.7780   -6.6750 N.3    84  ILE84      -0.1231
     60  CA       -11.8450  -36.5110   -6.3040 C.3    84  ILE84       0.1692
     61  C        -12.7060  -37.5720   -7.0090 C.2    84  ILE84       0.2591
     62  O        -12.4950  -37.8570   -8.2220 O.2    84  ILE84      -0.2718
     63  CB       -12.2840  -35.0790   -6.7180 C.3    84  ILE84       0.0266
     64  CG1      -11.3850  -33.9820   -6.0520 C.3    84  ILE84       0.0019
     65  CG2      -13.7800  -34.8190   -6.4380 C.3    84  ILE84       0.0020
     66  CD1      -11.4250  -33.9820   -4.5260 C.3    84  ILE84       0.0001
     67  N        -13.6740  -38.1300   -6.2740 N.am   85  VAL85      -0.1980
     68  CA       -14.6050  -39.1170   -6.8140 C.3    85  VAL85       0.1595
     69  C        -15.1270  -38.6820   -8.1810 C.2    85  VAL85       0.2287
     70  O        -15.4550  -37.5000   -8.3840 O.2    85  VAL85      -0.2864
     71  CB       -15.7240  -39.3730   -5.7870 C.3    85  VAL85       0.0276
     72  CG1      -17.0250  -39.8090   -6.4610 C.3    85  VAL85       0.0022
     73  CG2      -15.2420  -40.4170   -4.7730 C.3    85  VAL85       0.0022
     74  N        -21.4140  -43.5410  -10.4250 N.3   101  PHE101     -0.1227
     75  CA       -20.0530  -43.1670  -10.0670 C.3   101  PHE101      0.1736
     76  C        -19.0740  -44.2350  -10.5210 C.2   101  PHE101      0.2595
     77  O        -19.4420  -45.3820  -10.7690 O.2   101  PHE101     -0.2718
     78  CB       -19.9400  -43.0560   -8.5210 C.3   101  PHE101      0.0547
     79  CG       -20.7850  -41.9450   -7.9440 C.ar  101  PHE101     -0.0202
     80  CD1      -22.0820  -42.1950   -7.5030 C.ar  101  PHE101     -0.0042
     81  CD2      -20.2670  -40.6580   -7.8060 C.ar  101  PHE101     -0.0042
     82  CE1      -22.8720  -41.1600   -6.9860 C.ar  101  PHE101     -0.0003
     83  CE2      -21.0390  -39.6360   -7.2590 C.ar  101  PHE101     -0.0003
     84  CZ       -22.3390  -39.8910   -6.8630 C.ar  101  PHE101     -0.0000
     85  N        -17.7950  -43.8610  -10.5510 N.am  102  GLU102     -0.1965
     86  CA       -16.7310  -44.8140  -10.8390 C.3   102  GLU102      0.1733
     87  C        -16.6940  -45.8920   -9.7510 C.2   102  GLU102      0.2616
     88  O        -16.8860  -45.5920   -8.5680 O.2   102  GLU102     -0.2715
     89  CB       -15.4070  -44.0470  -10.8480 C.3   102  GLU102      0.0429
     90  CG       -14.1800  -44.9050  -11.0690 C.3   102  GLU102      0.1163
     91  CD       -12.8910  -44.1150  -11.0280 C.2   102  GLU102      0.3649
     92  OE1      -11.8980  -44.5890  -11.6280 O.co2 102  GLU102     -0.2457
     93  OE2      -12.8630  -43.0380  -10.3850 O.co2 102  GLU102     -0.2457
     94  N        -16.4530  -47.1520  -10.1570 N.am  103  TYR103     -0.1960
     95  CA       -16.2920  -48.2270   -9.1850 C.3   103  TYR103      0.1771
     96  C        -14.8390  -48.2030   -8.6790 C.2   103  TYR103      0.2619
     97  O        -13.8870  -48.2410   -9.4780 O.2   103  TYR103     -0.2715
     98  CB       -16.5940  -49.6010   -9.8380 C.3   103  TYR103      0.0574
     99  CG       -16.2830  -50.7860   -8.9480 C.ar  103  TYR103     -0.0198
    100  CD1      -16.8480  -50.8980   -7.6800 C.ar  103  TYR103     -0.0009
    101  CD2      -15.4460  -51.8070   -9.3840 C.ar  103  TYR103     -0.0009
    102  CE1      -16.5870  -52.0030   -6.8660 C.ar  103  TYR103      0.0417
    103  CE2      -15.1660  -52.9120   -8.5710 C.ar  103  TYR103      0.0417
    104  CZ       -15.7490  -53.0050   -7.3180 C.ar  103  TYR103      0.1957
    105  OH       -15.5130  -54.0930   -6.5120 O.3   103  TYR103     -0.2866
    106  N        -14.6890  -48.1600   -7.3490 N.am  104  MET104     -0.1977
    107  CA       -13.3770  -48.1430   -6.6880 C.3   104  MET104      0.1605
    108  C        -13.2570  -49.4770   -5.9550 C.2   104  MET104      0.2287
    109  O        -13.8700  -49.6700   -4.9080 O.2   104  MET104     -0.2864
    110  CB       -13.2600  -46.9230   -5.7560 C.3   104  MET104      0.0413
    111  CG       -13.3890  -45.6180   -6.4980 C.3   104  MET104      0.0598
    112  SD       -11.9740  -45.3000   -7.5740 S.3   104  MET104     -0.1393
    113  CE       -10.7940  -44.5800   -6.3570 C.3   104  MET104      0.0692
    114  N        -12.7880  -50.2680   -1.9890 N.3   107  GLY107     -0.1210
    115  CA       -13.7660  -49.6900   -1.0720 C.3   107  GLY107      0.1956
    116  C        -13.3040  -48.4960   -0.2730 C.2   107  GLY107      0.2611
    117  O        -12.3540  -47.8090   -0.6570 O.2   107  GLY107     -0.2717
    118  N        -13.9750  -48.2420    0.8550 N.am  108  ASP108     -0.1973
    119  CA       -13.6210  -47.0520    1.6110 C.3   108  ASP108      0.1709
    120  C        -12.2660  -47.1280    2.3030 C.2   108  ASP108      0.2293
    121  O        -11.8210  -48.1960    2.7240 O.2   108  ASP108     -0.2864
    122  CB       -14.7540  -46.5660    2.5190 C.3   108  ASP108      0.1436
    123  CG       -14.8000  -47.2500    3.8640 C.2   108  ASP108      0.3671
    124  OD1      -15.6230  -48.1740    4.0290 O.co2 108  ASP108     -0.2456
    125  OD2      -13.9600  -46.9000    4.7460 O.co2 108  ASP108     -0.2456
    126  N        -10.0920  -28.7330   -4.4270 N.3   143  LEU143     -0.1245
    127  CA       -11.3160  -28.1760   -3.8590 C.3   143  LEU143      0.1561
    128  C        -11.1180  -26.7340   -3.4050 C.2   143  LEU143      0.2260
    129  O        -11.9640  -25.8940   -3.7130 O.2   143  LEU143     -0.2867
    130  CB       -11.8320  -29.0610   -2.7090 C.3   143  LEU143      0.0270
    131  CG       -12.1680  -30.5190   -3.0720 C.3   143  LEU143      0.0019
    132  CD1      -12.7140  -31.2560   -1.8250 C.3   143  LEU143      0.0001
    133  CD2      -13.2480  -30.6140   -4.2100 C.3   143  LEU143      0.0001
    134  N        -14.6300  -24.7510   -3.0730 N.3   148  PHE148     -0.1241
    135  CA       -15.5850  -25.7770   -2.6560 C.3   148  PHE148      0.1605
    136  C        -15.1830  -26.1870   -1.2300 C.2   148  PHE148      0.2264
    137  O        -14.0310  -26.5320   -1.0000 O.2   148  PHE148     -0.2867
    138  CB       -15.4920  -26.9960   -3.5870 C.3   148  PHE148      0.0534
    139  CG       -16.4130  -28.1550   -3.2720 C.ar  148  PHE148     -0.0203
    140  CD1      -16.0560  -29.1150   -2.3250 C.ar  148  PHE148     -0.0042
    141  CD2      -17.6310  -28.2980   -3.9310 C.ar  148  PHE148     -0.0042
    142  CE1      -16.8920  -30.2060   -2.0610 C.ar  148  PHE148     -0.0003
    143  CE2      -18.4610  -29.4000   -3.6720 C.ar  148  PHE148     -0.0003
    144  CZ       -18.0810  -30.3430   -2.7470 C.ar  148  PHE148     -0.0000
    145  N        -15.7980  -28.9400    1.5800 N.3   150  HIS150     -0.1241
    146  CA       -16.3130  -30.2960    1.6670 C.3   150  HIS150      0.1621
    147  C        -17.2530  -30.5120    2.8660 C.2   150  HIS150      0.2264
    148  O        -18.3390  -31.0900    2.7040 O.2   150  HIS150     -0.2867
    149  CB       -15.1210  -31.2840    1.6970 C.3   150  HIS150      0.0745
    150  CG       -15.5220  -32.7180    1.6180 C.ar  150  HIS150      0.0817
    151  ND1      -16.1910  -33.3390    2.6470 N.ar  150  HIS150     -0.2268
    152  CD2      -15.3120  -33.6180    0.6290 C.ar  150  HIS150      0.1154
    153  CE1      -16.3890  -34.5910    2.2490 C.ar  150  HIS150      0.1986
    154  NE2      -15.8640  -34.8100    1.0530 N.ar  150  HIS150     -0.2212
    155  N        -12.2530  -43.2410   -1.1060 N.3   159  LEU159     -0.1245
    156  CA       -12.2520  -44.5580   -1.7620 C.3   159  LEU159      0.1561
    157  C        -10.8650  -44.9360   -2.2380 C.2   159  LEU159      0.2260
    158  O        -10.0630  -44.0540   -2.5900 O.2   159  LEU159     -0.2867
    159  CB       -13.2190  -44.5460   -2.9750 C.3   159  LEU159      0.0270
    160  CG       -14.6920  -44.4600   -2.6090 C.3   159  LEU159      0.0019
    161  CD1      -15.5360  -44.1130   -3.8370 C.3   159  LEU159      0.0001
    162  CD2      -15.1770  -45.7610   -1.9460 C.3   159  LEU159      0.0001
    163  N        -11.4320  -38.5680   -2.9360 N.3   168  ILE168     -0.1231
    164  CA       -12.3520  -38.0100   -1.9340 C.3   168  ILE168      0.1692
    165  C        -13.7930  -37.9920   -2.4550 C.2   168  ILE168      0.2593
    166  O        -14.0600  -37.4160   -3.5230 O.2   168  ILE168     -0.2718
    167  CB       -11.9250  -36.5640   -1.5630 C.3   168  ILE168      0.0266
    168  CG1      -10.4350  -36.5250   -1.1220 C.3   168  ILE168      0.0019
    169  CG2      -12.8470  -35.9710   -0.4710 C.3   168  ILE168      0.0020
    170  CD1       -9.8990  -35.0990   -0.8940 C.3   168  ILE168      0.0001
    171  N        -14.7090  -38.5070   -1.6450 N.am  169  GLY169     -0.1942
    172  CA       -16.1340  -38.4290   -1.9390 C.3   169  GLY169      0.2014
    173  C        -16.8980  -37.9930   -0.6990 C.2   169  GLY169      0.2639
    174  O        -16.3290  -37.3860    0.2210 O.2   169  GLY169     -0.2714
    175  N        -18.1890  -38.2980   -0.6590 N.am  170  ASP170     -0.1957
    176  CA       -19.0140  -38.0210    0.5260 C.3   170  ASP170      0.1840
    177  C        -20.1800  -38.9950    0.4410 C.2   170  ASP170      0.2622
    178  O        -21.0120  -38.8930   -0.4680 O.2   170  ASP170     -0.2715
    179  CB       -19.4820  -36.5550    0.5840 C.3   170  ASP170      0.1450
    180  CG       -20.1600  -36.1580    1.8860 C.2   170  ASP170      0.3671
    181  OD1      -20.6690  -37.0710    2.6010 O.co2 170  ASP170     -0.2456
    182  OD2      -20.2880  -34.9400    2.1320 O.co2 170  ASP170     -0.2456
    183  N        -20.1570  -40.0020    1.3180 N.am  171  PHE171     -0.1974
    184  CA       -21.1580  -41.0620    1.3010 C.3   171  PHE171      0.1639
    185  C        -22.2310  -40.8960    2.3740 C.2   171  PHE171      0.2290
    186  O        -23.1500  -41.7080    2.4300 O.2   171  PHE171     -0.2864
    187  CB       -20.4930  -42.4560    1.3180 C.3   171  PHE171      0.0560
    188  CG       -19.2390  -42.5100    0.4810 C.ar  171  PHE171     -0.0200
    189  CD1      -19.2390  -42.0600   -0.8400 C.ar  171  PHE171     -0.0042
    190  CD2      -18.0410  -42.9540    1.0240 C.ar  171  PHE171     -0.0042
    191  CE1      -18.0700  -42.0180   -1.5810 C.ar  171  PHE171     -0.0003
    192  CE2      -16.8700  -42.9270    0.2710 C.ar  171  PHE171     -0.0003
    193  CZ       -16.8870  -42.4530   -1.0270 C.ar  171  PHE171     -0.0000
@<TRIPOS>BOND
     1    92    91   ar
     2    90    91    1
     3    90    89    1
     4    91    93   ar
     5    89    86    1
     6    86    85    1
     7    86    87    1
     8    77    76    2
     9    54    53    2
    10    53    52    1
    11    85    76   am
    12    51    52    1
    13    76    75    1
    14    46    45    2
    15    74    75    1
    16    45    44    1
    17    94    87   am
    18    94    95    1
    19    75    78    1
    20    98    95    1
    21    98    99    1
    22    52    55    1
    23    87    88    2
    24    20    21    1
    25    97    96    2
    26   101    99   ar
    27   101   103   ar
    28    23    22    2
    29    95    96    1
    30    44    43    1
    31    44    47    1
    32    99   100   ar
    33    22    21    1
    34    96   106   am
    35    47    48    1
    36   103   104   ar
    37    78    79    1
    38    21    24    1
    39    55    56    1
    40    70    69    2
    41    62    61    2
    42    69    68    1
    43    79    81   ar
    44    79    80   ar
    45    37    36    2
    46    81    83   ar
    47    36    35    1
    48   100   102   ar
    49   112   111    1
    50   112   113    1
    51    56    58    1
    52    56    57    1
    53    80    82   ar
    54   106   107    1
    55   104   102   ar
    56   104   105    1
    57    83    84   ar
    58    48    49    1
    59    48    50    1
    60    28    27    2
    61    25    26    1
    62    61    60    1
    63    61    67   am
    64    82    84   ar
    65    68    67    1
    66    68    71    1
    67    34    35    1
    68    63    65    1
    69    63    60    1
    70    63    64    1
    71   107   108    1
    72   107   110    1
    73    59    60    1
    74   111   110    1
    75    72    71    1
    76    35    38    1
    77    27    26    1
    78    64    66    1
    79   108   109    2
    80    26    29    1
    81    71    73    1
    82    38    39    1
    83    39    40    1
    84    29    30    1
    85     7     6    1
    86   126   127    1
    87   133   131    1
    88    30    31    1
    89    40    42   ar
    90    40    41   ar
    91     6     8    1
    92     6     5    1
    93   141   143   ar
    94   141   139   ar
    95   127   128    1
    96   127   130    1
    97   161   160    1
    98    15    14    1
    99    15    16    2
   100    18    17    1
   101   129   128    2
   102   143   144   ar
   103   138   139    1
   104   138   135    1
   105   166   165    2
   106    14    17    1
   107    14    13    1
   108   139   140   ar
   109   134   135    1
   110   131   130    1
   111   131   132    1
   112    31    32    1
   113   159   160    1
   114   159   156    1
   115   163   164    1
   116   144   142   ar
   117     5     2    1
   118    17    19    1
   119   135   136    1
   120   160   162    1
   121   158   157    2
   122   165   164    1
   123   165   171   am
   124     1     2    1
   125   140   142   ar
   126   157   156    1
   127   114   115    1
   128   172   171    1
   129   172   173    1
   130   164   167    1
   131    32    33    1
   132     2     3    1
   133   156   155    1
   134   191   193   ar
   135   191   189   ar
   136   167   168    1
   137   167   169    1
   138   136   137    2
   139   168   170    1
   140   115   116    1
   141   193   192   ar
   142   189   188   ar
   143   173   175   am
   144   173   174    2
   145   175   176    1
   146   117   116    2
   147   178   177    2
   148     3     9   am
   149     3     4    2
   150   116   118   am
   151     9    10    1
   152    12    11    2
   153   192   190   ar
   154   177   176    1
   155   177   183   am
   156   188   190   ar
   157   188   187    1
   158   176   179    1
   159   179   180    1
   160   152   154   ar
   161   152   150   ar
   162   118   119    1
   163    11    10    1
   164   154   153   ar
   165   184   187    1
   166   184   183    1
   167   184   185    1
   168   145   146    1
   169   119   120    1
   170   119   122    1
   171   150   149    1
   172   150   151   ar
   173   146   149    1
   174   146   147    1
   175   180   182   ar
   176   180   181   ar
   177   153   151   ar
   178   120   121    2
   179   185   186    2
   180   122   123    1
   181   148   147    2
   182   123   124   ar
   183   123   125   ar
