@<TRIPOS>MOLECULE
tmp/5jfxA00.pdb
 213 203 0 0 0
SMALL
GASTEIGER

@<TRIPOS>ATOM
      1  N         57.5030   -5.8820    0.7920 N.3    28  LEU28      -0.1231
      2  CA        56.5730   -6.8990    0.2760 C.3    28  LEU28       0.1693
      3  C         56.0760   -6.4860   -1.1200 C.2    28  LEU28       0.2593
      4  O         55.7980   -7.3490   -1.9530 O.2    28  LEU28      -0.2718
      5  CB        55.3740   -7.1090    1.2150 C.3    28  LEU28       0.0284
      6  CG        55.6180   -7.7910    2.5610 C.3    28  LEU28       0.0019
      7  CD1       54.3490   -7.8040    3.3900 C.3    28  LEU28       0.0001
      8  CD2       56.1480   -9.2050    2.3960 C.3    28  LEU28       0.0001
      9  N         55.9600   -5.1760   -1.3370 N.am   29  GLY29      -0.1942
     10  CA        55.5140   -4.5700   -2.5880 C.3    29  GLY29       0.2014
     11  C         55.5940   -3.0580   -2.5730 C.2    29  GLY29       0.2638
     12  O         56.0020   -2.4660   -1.5720 O.2    29  GLY29      -0.2714
     13  N         55.2260   -2.4230   -3.7060 N.am   30  GLU30      -0.1977
     14  CA        55.2330   -0.9690   -3.9050 C.3    30  GLU30       0.1602
     15  C         54.3450   -0.5950   -5.0990 C.2    30  GLU30       0.2287
     16  O         54.2320   -1.3710   -6.0510 O.2    30  GLU30      -0.2864
     17  CB        56.6770   -0.4750   -4.1610 C.3    30  GLU30       0.0415
     18  CG        56.8060    1.0200   -4.4340 C.3    30  GLU30       0.1163
     19  CD        58.1850    1.5530   -4.7730 C.2    30  GLU30       0.3649
     20  OE1       58.3330    2.7950   -4.8160 O.co2  30  GLU30      -0.2457
     21  OE2       59.1120    0.7420   -5.0070 O.co2  30  GLU30      -0.2457
     22  N         55.1210   -1.2050    0.7620 N.3    36  VAL36      -0.1245
     23  CA        54.5240   -2.0820    1.7800 C.3    36  VAL36       0.1561
     24  C         55.6290   -2.9920    2.3000 C.2    36  VAL36       0.2260
     25  O         56.3010   -3.6590    1.5200 O.2    36  VAL36      -0.2867
     26  CB        53.3080   -2.8770    1.2380 C.3    36  VAL36       0.0252
     27  CG1       52.7250   -3.8240    2.3120 C.3    36  VAL36       0.0019
     28  CG2       52.2350   -1.9130    0.7310 C.3    36  VAL36       0.0019
     29  N         51.9020   -6.0400    8.0780 N.3    54  ALA54      -0.1245
     30  CA        52.2510   -5.4290    6.8100 C.3    54  ALA54       0.1562
     31  C         52.0800   -3.9200    7.0600 C.2    54  ALA54       0.2260
     32  O         51.0990   -3.4760    7.6830 O.2    54  ALA54      -0.2867
     33  CB        51.3350   -5.9160    5.7000 C.3    54  ALA54       0.0290
     34  N         52.3250   -0.0390    5.4330 N.3    56  LYS56      -0.1245
     35  CA        52.3450    0.8380    4.2640 C.3    56  LYS56       0.1561
     36  C         52.9600    2.1760    4.6970 C.2    56  LYS56       0.2260
     37  O         52.4880    2.7840    5.6500 O.2    56  LYS56      -0.2867
     38  CB        50.9210    1.0400    3.7150 C.3    56  LYS56       0.0271
     39  CG        50.9020    1.7300    2.3450 C.3    56  LYS56       0.0035
     40  CD        49.8940    2.8760    2.2770 C.3    56  LYS56       0.0206
     41  CE        48.5030    2.4400    1.8720 C.3    56  LYS56       0.1093
     42  NZ        47.5880    3.6010    1.6900 N.3    56  LYS56      -0.1314
     43  N         41.0180    8.0780    5.2640 N.3    72  GLU72      -0.1245
     44  CA        41.1620    6.6680    4.9090 C.3    72  GLU72       0.1567
     45  C         41.3040    5.8240    6.1950 C.2    72  GLU72       0.2260
     46  O         40.6100    4.8130    6.3420 O.2    72  GLU72      -0.2867
     47  CB        42.3750    6.4470    3.9910 C.3    72  GLU72       0.0388
     48  CG        42.5790    4.9740    3.6810 C.3    72  GLU72       0.1160
     49  CD        43.4920    4.6260    2.5280 C.2    72  GLU72       0.3649
     50  OE1       44.5950    5.2120    2.4330 O.co2  72  GLU72      -0.2457
     51  OE2       43.1230    3.7130    1.7540 O.co2  72  GLU72      -0.2457
     52  N         38.9390    2.7760    7.3320 N.3    76  LEU76      -0.1245
     53  CA        39.4440    1.4140    7.5100 C.3    76  LEU76       0.1561
     54  C         39.2220    0.8470    8.8970 C.2    76  LEU76       0.2260
     55  O         39.0300   -0.3660    9.0280 O.2    76  LEU76      -0.2867
     56  CB        40.9140    1.3050    7.1260 C.3    76  LEU76       0.0270
     57  CG        41.2750    1.6950    5.6860 C.3    76  LEU76       0.0019
     58  CD1       42.7530    1.5020    5.4530 C.3    76  LEU76       0.0001
     59  CD2       40.3980    0.9520    4.6500 C.3    76  LEU76       0.0001
     60  N         35.8500   -0.9920    9.0860 N.3    79  LEU79      -0.1245
     61  CA        35.6920   -2.2430    8.3400 C.3    79  LEU79       0.1561
     62  C         36.1990   -3.4180    9.1490 C.2    79  LEU79       0.2260
     63  O         37.4060   -3.6280    9.2420 O.2    79  LEU79      -0.2867
     64  CB        36.3870   -2.1580    6.9620 C.3    79  LEU79       0.0270
     65  CG        36.0590   -0.9240    6.1030 C.3    79  LEU79       0.0019
     66  CD1       36.8980   -0.9090    4.8230 C.3    79  LEU79       0.0001
     67  CD2       34.5900   -0.8450    5.7750 C.3    79  LEU79       0.0001
     68  N         37.3480   -9.2720    5.2680 N.3    84  ILE84      -0.1231
     69  CA        37.7930   -7.9210    4.8990 C.3    84  ILE84       0.1692
     70  C         39.1530   -7.7220    5.5610 C.2    84  ILE84       0.2591
     71  O         39.3240   -8.1140    6.7260 O.2    84  ILE84      -0.2718
     72  CB        36.7940   -6.8210    5.3500 C.3    84  ILE84       0.0266
     73  CG1       35.4130   -7.0000    4.6620 C.3    84  ILE84       0.0019
     74  CG2       37.3690   -5.4080    5.1450 C.3    84  ILE84       0.0020
     75  CD1       35.4160   -6.9340    3.0480 C.3    84  ILE84       0.0001
     76  N         40.1020   -7.1000    4.8290 N.am   85  VAL85      -0.1980
     77  CA        41.4480   -6.8100    5.3340 C.3    85  VAL85       0.1595
     78  C         41.3420   -6.1540    6.7200 C.2    85  VAL85       0.2287
     79  O         40.5050   -5.2630    6.9300 O.2    85  VAL85      -0.2864
     80  CB        42.2150   -5.9360    4.3110 C.3    85  VAL85       0.0276
     81  CG1       43.2640   -5.0360    4.9730 C.3    85  VAL85       0.0022
     82  CG2       42.8510   -6.8310    3.2340 C.3    85  VAL85       0.0022
     83  N         48.6250   -3.1320    8.8620 N.3   101  PHE101     -0.1227
     84  CA        47.6310   -4.1380    8.5130 C.3   101  PHE101      0.1736
     85  C         48.0730   -5.5100    8.9470 C.2   101  PHE101      0.2595
     86  O         49.2480   -5.7350    9.2130 O.2   101  PHE101     -0.2718
     87  CB        47.4160   -4.1820    6.9830 C.3   101  PHE101      0.0547
     88  CG        46.9120   -2.8840    6.4180 C.ar  101  PHE101     -0.0202
     89  CD1       47.8050   -1.9150    5.9510 C.ar  101  PHE101     -0.0042
     90  CD2       45.5470   -2.6290    6.3350 C.ar  101  PHE101     -0.0042
     91  CE1       47.3320   -0.7030    5.4270 C.ar  101  PHE101     -0.0003
     92  CE2       45.0800   -1.4290    5.7750 C.ar  101  PHE101     -0.0003
     93  CZ        45.9780   -0.4670    5.3640 C.ar  101  PHE101     -0.0000
     94  N         47.1340   -6.4510    8.9500 N.am  102  GLU102     -0.1965
     95  CA        47.4600   -7.8390    9.2290 C.3   102  GLU102      0.1733
     96  C         48.3790   -8.3860    8.1070 C.2   102  GLU102      0.2616
     97  O         48.1870   -8.0650    6.9260 O.2   102  GLU102     -0.2715
     98  CB        46.1610   -8.6320    9.2780 C.3   102  GLU102      0.0429
     99  CG        46.2990  -10.1330    9.4320 C.3   102  GLU102      0.1163
    100  CD        44.9560  -10.8410    9.4410 C.2   102  GLU102      0.3649
    101  OE1       44.8680  -11.9270   10.0560 O.co2 102  GLU102     -0.2457
    102  OE2       43.9800  -10.2900    8.8800 O.co2 102  GLU102     -0.2457
    103  N         49.3770   -9.1980    8.4810 N.am  103  TYR103     -0.1960
    104  CA        50.2290   -9.8550    7.4990 C.3   103  TYR103      0.1771
    105  C         49.5110  -11.1230    7.0230 C.2   103  TYR103      0.2619
    106  O         49.1250  -11.9730    7.8450 O.2   103  TYR103     -0.2715
    107  CB        51.6000  -10.2170    8.1020 C.3   103  TYR103      0.0574
    108  CG        52.4460  -11.1080    7.2090 C.ar  103  TYR103     -0.0198
    109  CD1       52.8250  -10.6960    5.9330 C.ar  103  TYR103     -0.0009
    110  CD2       52.8600  -12.3640    7.6380 C.ar  103  TYR103     -0.0009
    111  CE1       53.6250  -11.5010    5.1180 C.ar  103  TYR103      0.0417
    112  CE2       53.6360  -13.1940    6.8180 C.ar  103  TYR103      0.0417
    113  CZ        54.0380  -12.7420    5.5740 C.ar  103  TYR103      0.1957
    114  OH        54.8270  -13.5320    4.7740 O.3   103  TYR103     -0.2866
    115  N         49.3190  -11.2400    5.6940 N.am  104  MET104     -0.1963
    116  CA        48.6450  -12.4050    5.1100 C.3   104  MET104      0.1736
    117  C         49.6940  -13.2550    4.4260 C.2   104  MET104      0.2616
    118  O         50.2120  -12.8820    3.3680 O.2   104  MET104     -0.2715
    119  CB        47.5040  -11.9570    4.1900 C.3   104  MET104      0.0427
    120  CG        46.4560  -11.1480    4.9200 C.3   104  MET104      0.0599
    121  SD        45.4730  -12.1780    6.0220 S.3   104  MET104     -0.1393
    122  CE        44.3180  -12.9030    4.8690 C.3   104  MET104      0.0692
    123  N         50.0580  -14.3690    5.0770 N.am  105  ARG105     -0.1977
    124  CA        51.2120  -15.1930    4.6820 C.3   105  ARG105      0.1597
    125  C         51.3520  -15.6230    3.2300 C.2   105  ARG105      0.2287
    126  O         52.4770  -15.7760    2.7580 O.2   105  ARG105     -0.2864
    127  CB        51.5050  -16.3420    5.6640 C.3   105  ARG105      0.0334
    128  CG        50.5780  -17.5450    5.5590 C.3   105  ARG105      0.0492
    129  CD        50.8500  -18.5290    6.6880 C.3   105  ARG105      0.2205
    130  NE        52.0530  -19.3330    6.4610 N.pl3 105  ARG105     -0.0865
    131  CZ        52.0510  -20.6230    6.1320 C.cat 105  ARG105      0.5346
    132  NH1       53.1950  -21.2680    5.9470 N.pl3 105  ARG105      0.1354
    133  NH2       50.9050  -21.2770    5.9810 N.pl3 105  ARG105      0.1354
    134  N         50.1790  -13.9600    0.4590 N.3   107  GLY107     -0.1210
    135  CA        50.1340  -12.8050   -0.4240 C.3   107  GLY107      0.1956
    136  C         48.8600  -12.6100   -1.2090 C.2   107  GLY107      0.2611
    137  O         47.7820  -13.0750   -0.8120 O.2   107  GLY107     -0.2717
    138  N         48.9710  -11.9040   -2.3220 N.am  108  ASP108     -0.1973
    139  CA        47.7710  -11.6100   -3.1010 C.3   108  ASP108      0.1709
    140  C         47.1700  -12.8170   -3.8180 C.2   108  ASP108      0.2293
    141  O         47.8760  -13.7240   -4.2810 O.2   108  ASP108     -0.2864
    142  CB        47.9330  -10.3900   -4.0210 C.3   108  ASP108      0.1436
    143  CG        48.6440  -10.7240   -5.3070 C.2   108  ASP108      0.3671
    144  OD1       49.8750  -10.6120   -5.3400 O.co2 108  ASP108     -0.2456
    145  OD2       47.9670  -11.1980   -6.2640 O.co2 108  ASP108     -0.2456
    146  N         30.2960   -5.5030    2.9050 N.3   143  LEU143     -0.1245
    147  CA        30.4340   -4.1450    2.3620 C.3   143  LEU143      0.1561
    148  C         29.1020   -3.5570    1.8840 C.2   143  LEU143      0.2260
    149  O         28.8160   -2.3870    2.1620 O.2   143  LEU143     -0.2867
    150  CB        31.4990   -4.0890    1.2630 C.3   143  LEU143      0.0270
    151  CG        32.9170   -4.4680    1.7180 C.3   143  LEU143      0.0019
    152  CD1       33.8770   -4.4730    0.5290 C.3   143  LEU143      0.0001
    153  CD2       33.4410   -3.5110    2.8490 C.3   143  LEU143      0.0001
    154  N         29.1070    0.4690    1.5740 N.3   148  PHE148     -0.1241
    155  CA        30.4830    0.7230    1.1590 C.3   148  PHE148      0.1605
    156  C         30.6480    0.1820   -0.2600 C.2   148  PHE148      0.2264
    157  O         30.5370   -1.0270   -0.4620 O.2   148  PHE148     -0.2867
    158  CB        31.4740    0.0100    2.1040 C.3   148  PHE148      0.0534
    159  CG        32.9400    0.2610    1.8130 C.ar  148  PHE148     -0.0203
    160  CD1       33.6060   -0.4530    0.8160 C.ar  148  PHE148     -0.0042
    161  CD2       33.6580    1.2110    2.5350 C.ar  148  PHE148     -0.0042
    162  CE1       34.9670   -0.2330    0.5590 C.ar  148  PHE148     -0.0003
    163  CE2       35.0230    1.4210    2.2860 C.ar  148  PHE148     -0.0003
    164  CZ        35.6630    0.7090    1.2940 C.ar  148  PHE148     -0.0000
    165  N         33.1690   -0.6110   -3.1360 N.3   150  HIS150     -0.1241
    166  CA        34.5990   -0.9020   -3.2320 C.3   150  HIS150      0.1621
    167  C         35.2690   -0.1910   -4.4220 C.2   150  HIS150      0.2264
    168  O         36.3140    0.4680   -4.2520 O.2   150  HIS150     -0.2867
    169  CB        34.8050   -2.4240   -3.2850 C.3   150  HIS150      0.0745
    170  CG        36.2410   -2.8390   -3.2150 C.ar  150  HIS150      0.0817
    171  ND1       37.1200   -2.5700   -4.2440 N.ar  150  HIS150     -0.2268
    172  CD2       36.9160   -3.4530   -2.2130 C.ar  150  HIS150      0.1154
    173  CE1       38.3040   -3.0170   -3.8380 C.ar  150  HIS150      0.1986
    174  NE2       38.2220   -3.5800   -2.6350 N.ar  150  HIS150     -0.2212
    175  N         43.7570  -10.9350   -0.4580 N.3   159  LEU159     -0.1245
    176  CA        44.9130  -11.5680    0.1920 C.3   159  LEU159      0.1561
    177  C         44.5480  -12.9600    0.6810 C.2   159  LEU159      0.2260
    178  O         43.3800  -13.2170    1.0070 O.2   159  LEU159     -0.2867
    179  CB        45.4100  -10.7060    1.3690 C.3   159  LEU159      0.0270
    180  CG        46.0460   -9.3640    1.0240 C.3   159  LEU159      0.0019
    181  CD1       46.1280   -8.4760    2.2680 C.3   159  LEU159      0.0001
    182  CD2       47.3980   -9.5550    0.3580 C.3   159  LEU159      0.0001
    183  N         39.3230   -9.3250    1.4810 N.3   168  ILE168     -0.1231
    184  CA        39.3030   -8.2570    0.4770 C.3   168  ILE168      0.1692
    185  C         39.9880   -7.0080    0.9910 C.2   168  ILE168      0.2593
    186  O         39.6610   -6.5170    2.0800 O.2   168  ILE168     -0.2718
    187  CB        37.8340   -7.9120    0.0930 C.3   168  ILE168      0.0266
    188  CG1       37.0740   -9.1680   -0.4060 C.3   168  ILE168      0.0019
    189  CG2       37.7990   -6.7900   -0.9910 C.3   168  ILE168      0.0020
    190  CD1       35.6060   -8.8880   -0.6410 C.3   168  ILE168      0.0001
    191  N         40.8650   -6.4490    0.1560 N.am  169  GLY169     -0.1942
    192  CA        41.5130   -5.1840    0.4460 C.3   169  GLY169      0.2014
    193  C         41.4670   -4.2890   -0.7850 C.2   169  GLY169      0.2639
    194  O         40.6410   -4.4790   -1.6910 O.2   169  GLY169     -0.2714
    195  N         42.3150   -3.2680   -0.7960 N.am  170  ASP170     -0.1957
    196  CA        42.4660   -2.3570   -1.9320 C.3   170  ASP170      0.1840
    197  C         43.8730   -1.7730   -1.8460 C.2   170  ASP170      0.2622
    198  O         44.1560   -0.9770   -0.9430 O.2   170  ASP170     -0.2715
    199  CB        41.3960   -1.2370   -1.9570 C.3   170  ASP170      0.1450
    200  CG        41.4240   -0.3330   -3.1980 C.2   170  ASP170      0.3671
    201  OD1       42.4180   -0.4010   -3.9740 O.co2 170  ASP170     -0.2456
    202  OD2       40.4470    0.4170   -3.4060 O.co2 170  ASP170     -0.2456
    203  N         44.7490   -2.2080   -2.7530 N.am  171  PHE171     -0.1974
    204  CA        46.1500   -1.8130   -2.7570 C.3   171  PHE171      0.1639
    205  C         46.4460   -0.7140   -3.7760 C.2   171  PHE171      0.2290
    206  O         47.6100   -0.4570   -4.0700 O.2   171  PHE171     -0.2864
    207  CB        47.0660   -3.0580   -2.8840 C.3   171  PHE171      0.0560
    208  CG        46.5710   -4.2260   -2.0640 C.ar  171  PHE171     -0.0200
    209  CD1       46.2210   -4.0630   -0.7210 C.ar  171  PHE171     -0.0042
    210  CD2       46.4060   -5.4770   -2.6390 C.ar  171  PHE171     -0.0042
    211  CE1       45.6730   -5.1150    0.0070 C.ar  171  PHE171     -0.0003
    212  CE2       45.9050   -6.5430   -1.8930 C.ar  171  PHE171     -0.0003
    213  CZ        45.5070   -6.3470   -0.5840 C.ar  171  PHE171     -0.0000
@<TRIPOS>BOND
     1   145   143   ar
     2    16    15    2
     3   144   143   ar
     4   143   142    1
     5    15    14    1
     6    21    19   ar
     7    20    19   ar
     8    19    18    1
     9    18    17    1
    10   167   168    2
    11   167   166    1
    12   141   140    2
    13   171   173   ar
    14   171   170   ar
    15    17    14    1
    16   206   205    2
    17   142   139    1
    18   201   200   ar
    19    14    13    1
    20   173   174   ar
    21   140   139    1
    22   205   204    1
    23    13    11   am
    24   202   200   ar
    25   169   166    1
    26   169   170    1
    27   166   165    1
    28   170   172   ar
    29   200   199    1
    30   139   138    1
    31   207   204    1
    32   207   208    1
    33   204   203    1
    34   203   197   am
    35   210   208   ar
    36   210   212   ar
    37   174   172   ar
    38    10    11    1
    39    10     9    1
    40    11    12    2
    41   138   136   am
    42   208   209   ar
    43   199   196    1
    44     4     3    2
    45   196   197    1
    46   196   195    1
    47   212   213   ar
    48   197   198    2
    49   194   193    2
    50     9     3   am
    51   136   137    2
    52   136   135    1
    53     3     2    1
    54   189   187    1
    55   195   193   am
    56   193   192    1
    57   209   211   ar
    58   190   188    1
    59   213   211   ar
    60   157   156    2
    61   175   176    1
    62   135   134    1
    63   188   187    1
    64   156   155    1
    65   187   184    1
    66   191   192    1
    67   191   185   am
    68   176   177    1
    69   176   179    1
    70     2     1    1
    71     2     5    1
    72   182   180    1
    73   184   185    1
    74   184   183    1
    75   152   151    1
    76   162   160   ar
    77   162   164   ar
    78   177   178    2
    79    28    26    1
    80    22    23    1
    81   160   159   ar
    82   185   186    2
    83   180   179    1
    84   180   181    1
    85   155   154    1
    86   155   158    1
    87     5     6    1
    88    26    23    1
    89    26    27    1
    90   150   151    1
    91   150   147    1
    92   164   163   ar
    93    25    24    2
    94    42    41    1
    95   151   153    1
    96    51    49   ar
    97    23    24    1
    98   159   158    1
    99   159   161   ar
   100    41    40    1
   101   148   149    2
   102   148   147    1
   103    40    39    1
   104   163   161   ar
   105    39    38    1
   106   147   146    1
   107     8     6    1
   108    50    49   ar
   109    49    48    1
   110     6     7    1
   111   126   125    2
   112    75    73    1
   113   125   124    1
   114    82    80    1
   115   118   117    2
   116    48    47    1
   117    38    35    1
   118    47    44    1
   119   119   120    1
   120   119   116    1
   121    35    36    1
   122    35    34    1
   123    80    81    1
   124    80    77    1
   125   117   123   am
   126   117   116    1
   127    59    57    1
   128    73    72    1
   129   124   123    1
   130   124   127    1
   131    36    37    2
   132   114   113    1
   133    66    65    1
   134    76    77    1
   135    76    70   am
   136   122   121    1
   137    69    68    1
   138    69    72    1
   139    69    70    1
   140    44    43    1
   141    44    45    1
   142   120   121    1
   143   116   115    1
   144   111   113   ar
   145   111   109   ar
   146    74    72    1
   147    77    78    1
   148    93    91   ar
   149    93    92   ar
   150    91    89   ar
   151    58    57    1
   152   128   127    1
   153   128   129    1
   154    70    71    2
   155   113   112   ar
   156    57    56    1
   157   115   105   am
   158    33    30    1
   159    92    90   ar
   160    67    65    1
   161   109   108   ar
   162   132   131    1
   163    89    88   ar
   164   133   131    1
   165    65    64    1
   166   131   130    2
   167    45    46    2
   168    90    88   ar
   169    88    87    1
   170   130   129    1
   171    78    79    2
   172    30    31    1
   173    30    29    1
   174   112   110   ar
   175    97    96    2
   176    64    61    1
   177    87    84    1
   178   105   104    1
   179   105   106    2
   180    31    32    2
   181    56    53    1
   182   108   110   ar
   183   108   107    1
   184    52    53    1
   185   104   107    1
   186   104   103    1
   187    53    54    1
   188    96   103   am
   189    96    95    1
   190    61    60    1
   191    61    62    1
   192    84    83    1
   193    84    85    1
   194   102   100   ar
   195    54    55    2
   196    85    94   am
   197    85    86    2
   198    94    95    1
   199    62    63    2
   200    95    98    1
   201    98    99    1
   202    99   100    1
   203   100   101   ar
