@<TRIPOS>MOLECULE
tmp/5jg0A00.pdb
 169 163 0 0 0
SMALL
GASTEIGER

@<TRIPOS>ATOM
      1  N         -2.4800  -24.9280   -0.6960 N.3     5  LEU5       -0.1231
      2  CA        -3.7150  -25.3340   -0.0520 C.3     5  LEU5        0.1693
      3  C         -3.4250  -25.5630    1.4380 C.2     5  LEU5        0.2592
      4  O         -2.6430  -26.4410    1.7820 O.2     5  LEU5       -0.2718
      5  CB        -4.2620  -26.6020   -0.7190 C.3     5  LEU5        0.0284
      6  CG        -5.5380  -27.2160   -0.1360 C.3     5  LEU5        0.0019
      7  CD1       -6.6880  -26.1900   -0.1280 C.3     5  LEU5        0.0001
      8  CD2       -5.9300  -28.4760   -0.9240 C.3     5  LEU5        0.0001
      9  N         -4.0390  -24.7700    2.3170 N.am    6  VAL6       -0.1966
     10  CA        -3.6560  -24.7600    3.7310 C.3     6  VAL6        0.1727
     11  C         -4.8160  -24.2970    4.6130 C.2     6  VAL6        0.2616
     12  O         -5.6600  -23.5060    4.1970 O.2     6  VAL6       -0.2715
     13  CB        -2.4220  -23.8370    3.9720 C.3     6  VAL6        0.0290
     14  CG1       -2.7860  -22.3770    3.6330 C.3     6  VAL6        0.0023
     15  CG2       -1.8900  -23.9480    5.4310 C.3     6  VAL6        0.0023
     16  N         -4.8600  -24.8120    5.8330 N.am    7  ALA7       -0.1977
     17  CA        -5.7120  -24.2550    6.8650 C.3     7  ALA7        0.1597
     18  C         -4.8030  -23.7090    7.9600 C.2     7  ALA7        0.2287
     19  O         -3.9170  -24.4290    8.4310 O.2     7  ALA7       -0.2864
     20  CB        -6.6650  -25.3080    7.4230 C.3     7  ALA7        0.0319
     21  N          0.0460  -33.3760   13.8790 N.3    19  GLN19      -0.1231
     22  CA        -1.3960  -33.4940   13.6390 C.3    19  GLN19       0.1698
     23  C         -2.0040  -32.1150   13.4140 C.2    19  GLN19       0.2592
     24  O         -1.3580  -31.1090   13.7020 O.2    19  GLN19      -0.2718
     25  CB        -2.0960  -34.1710   14.8180 C.3    19  GLN19       0.0381
     26  CG        -1.5280  -35.5240   15.1810 C.3    19  GLN19       0.0905
     27  CD        -2.3740  -36.2340   16.2160 C.2    19  GLN19       0.2608
     28  OE1       -3.5870  -36.0300   16.2830 O.2    19  GLN19      -0.2717
     29  NE2       -1.7420  -37.0740   17.0280 N.am   19  GLN19      -0.0878
     30  N         -3.2360  -32.0710   12.9070 N.am   20  LEU20      -0.1980
     31  CA        -4.0110  -30.8220   12.8730 C.3    20  LEU20       0.1596
     32  C         -4.4690  -30.5130   14.2810 C.2    20  LEU20       0.2287
     33  O         -4.8620  -31.4220   15.0050 O.2    20  LEU20      -0.2864
     34  CB        -5.2340  -30.9380   11.9530 C.3    20  LEU20       0.0297
     35  CG        -4.9580  -31.3420   10.5160 C.3    20  LEU20       0.0022
     36  CD1       -6.2750  -31.6280    9.7850 C.3    20  LEU20       0.0001
     37  CD2       -4.1790  -30.2270    9.8390 C.3    20  LEU20       0.0001
     38  N         -7.0640  -28.8220   15.1790 N.3    22  TRP22      -0.1241
     39  CA        -8.5210  -28.6690   15.2540 C.3    22  TRP22       0.1605
     40  C         -9.2260  -29.7880   14.5190 C.2    22  TRP22       0.2264
     41  O         -8.6370  -30.4400   13.6660 O.2    22  TRP22      -0.2867
     42  CB        -8.9760  -27.3350   14.6460 C.3    22  TRP22       0.0550
     43  CG        -8.3150  -27.0740   13.3260 C.ar   22  TRP22       0.0003
     44  CD1       -8.6560  -27.5960   12.1040 C.ar   22  TRP22       0.0946
     45  CD2       -7.1590  -26.2570   13.1070 C.ar   22  TRP22       0.0152
     46  NE1       -7.7760  -27.1520   11.1440 N.ar   22  TRP22      -0.2442
     47  CE2       -6.8490  -26.3270   11.7370 C.ar   22  TRP22       0.0810
     48  CE3       -6.3480  -25.4780   13.9450 C.ar   22  TRP22       0.0012
     49  CZ2       -5.7780  -25.6320   11.1830 C.ar   22  TRP22       0.0191
     50  CZ3       -5.2830  -24.7950   13.3930 C.ar   22  TRP22       0.0001
     51  CH2       -5.0050  -24.8750   12.0300 C.ar   22  TRP22       0.0015
     52  N        -13.8850  -28.3920    6.3890 N.3    27  ASP27      -0.1225
     53  CA       -12.6300  -28.0450    5.7500 C.3    27  ASP27       0.1805
     54  C        -12.0730  -29.2530    5.0010 C.2    27  ASP27       0.2597
     55  O        -11.4300  -29.1130    3.9560 O.2    27  ASP27      -0.2718
     56  CB       -11.6190  -27.5190    6.7720 C.3    27  ASP27       0.1424
     57  CG       -10.3330  -27.1000    6.1160 C.2    27  ASP27       0.3668
     58  OD1       -9.2810  -27.5990    6.5310 O.co2  27  ASP27      -0.2456
     59  OD2      -10.3870  -26.3000    5.1610 O.co2  27  ASP27      -0.2456
     60  N        -12.3410  -30.4450    5.5230 N.am   28  LEU28      -0.1979
     61  CA       -11.9630  -31.6550    4.8080 C.3    28  LEU28       0.1596
     62  C        -12.7370  -31.7240    3.4970 C.2    28  LEU28       0.2287
     63  O        -12.1630  -32.0510    2.4570 O.2    28  LEU28      -0.2864
     64  CB       -12.2160  -32.9040    5.6520 C.3    28  LEU28       0.0297
     65  CG       -11.0060  -33.4770    6.3850 C.3    28  LEU28       0.0022
     66  CD1      -10.6720  -32.6560    7.6310 C.3    28  LEU28       0.0001
     67  CD2      -11.2590  -34.9400    6.7330 C.3    28  LEU28       0.0001
     68  N        -13.9160  -29.1950    1.8250 N.3    30  HIS30      -0.1226
     69  CA       -13.2560  -28.1660    1.0270 C.3    30  HIS30       0.1752
     70  C        -12.0380  -28.7100    0.2840 C.2    30  HIS30       0.2596
     71  O        -11.8890  -28.5090   -0.9240 O.2    30  HIS30      -0.2718
     72  CB       -12.8410  -27.0020    1.9490 C.3    30  HIS30       0.0759
     73  CG       -12.1840  -25.8520    1.2450 C.ar   30  HIS30       0.0818
     74  ND1      -12.8290  -25.0850    0.2980 N.ar   30  HIS30      -0.2268
     75  CD2      -10.9480  -25.3120    1.3850 C.ar   30  HIS30       0.1154
     76  CE1      -12.0160  -24.1320   -0.1260 C.ar   30  HIS30       0.1986
     77  NE2      -10.8700  -24.2440    0.5210 N.ar   30  HIS30      -0.2212
     78  N        -11.1630  -29.3960    1.0140 N.am   31  VAL31      -0.1966
     79  CA        -9.9680  -29.9780    0.4170 C.3    31  VAL31       0.1727
     80  C        -10.3470  -31.0230   -0.6330 C.2    31  VAL31       0.2616
     81  O         -9.7880  -31.0470   -1.7310 O.2    31  VAL31      -0.2715
     82  CB        -9.0650  -30.6180    1.4880 C.3    31  VAL31       0.0290
     83  CG1       -7.9860  -31.4680    0.8400 C.3    31  VAL31       0.0023
     84  CG2       -8.4420  -29.5330    2.3550 C.3    31  VAL31       0.0023
     85  N        -11.3100  -31.8690   -0.2820 N.am   32  LYS32      -0.1977
     86  CA       -11.8260  -32.9010   -1.1900 C.3    32  LYS32       0.1596
     87  C        -12.3220  -32.2870   -2.5050 C.2    32  LYS32       0.2287
     88  O        -11.9820  -32.7540   -3.5970 O.2    32  LYS32      -0.2864
     89  CB       -12.9520  -33.6780   -0.4940 C.3    32  LYS32       0.0298
     90  CG       -13.6310  -34.7800   -1.3310 C.3    32  LYS32       0.0038
     91  CD       -12.6730  -35.9080   -1.6450 C.3    32  LYS32       0.0206
     92  CE       -13.2700  -36.9160   -2.6370 C.3    32  LYS32       0.1093
     93  NZ       -12.2050  -37.7670   -3.2770 N.3    32  LYS32      -0.1314
     94  N          4.3130  -34.5470    6.6460 N.3    46  THR46      -0.1218
     95  CA         2.9020  -34.4030    6.3380 C.3    46  THR46       0.1862
     96  C          2.3430  -35.7250    5.8310 C.2    46  THR46       0.2287
     97  O          1.2840  -36.1640    6.2830 O.2    46  THR46      -0.2866
     98  CB         2.6610  -33.2940    5.2890 C.3    46  THR46       0.1770
     99  OG1        2.9920  -32.0270    5.8750 O.3    46  THR46      -0.2211
    100  CG2        1.1950  -33.2740    4.8640 C.3    46  THR46       0.0375
    101  N          1.7920  -38.1600    8.6560 N.3    49  SER49      -0.1202
    102  CA         0.6790  -37.8090    9.5360 C.3    49  SER49       0.2020
    103  C         -0.6130  -38.3820    8.9780 C.2    49  SER49       0.2618
    104  O         -1.4930  -38.8020    9.7320 O.2    49  SER49      -0.2717
    105  CB         0.5500  -36.2920    9.7110 C.3    49  SER49       0.2103
    106  OG         0.0540  -35.6910    8.5330 O.3    49  SER49      -0.2182
    107  N         -0.7330  -38.3940    7.6540 N.am   50  ILE50      -0.1979
    108  CA        -1.9030  -38.9770    7.0000 C.3    50  ILE50       0.1595
    109  C         -1.7860  -40.5070    6.9300 C.2    50  ILE50       0.2287
    110  O         -2.7670  -41.2210    7.1370 O.2    50  ILE50      -0.2864
    111  CB        -2.1020  -38.4170    5.5780 C.3    50  ILE50       0.0276
    112  CG1       -2.1650  -36.8880    5.5980 C.3    50  ILE50       0.0022
    113  CG2       -3.3690  -38.9760    4.9610 C.3    50  ILE50       0.0022
    114  CD1       -2.2020  -36.2720    4.1880 C.3    50  ILE50       0.0001
    115  N         -4.2380  -39.9480   -0.2040 N.3    54  LEU54      -0.1231
    116  CA        -5.6340  -39.5420   -0.2720 C.3    54  LEU54       0.1678
    117  C         -6.2430  -40.0390   -1.5830 C.2    54  LEU54       0.2434
    118  O         -5.5990  -39.9940   -2.6360 O.2    54  LEU54      -0.2733
    119  CB        -5.7640  -38.0180   -0.1520 C.3    54  LEU54       0.0284
    120  CG        -5.1620  -37.4210    1.1280 C.3    54  LEU54       0.0019
    121  CD1       -5.3140  -35.9020    1.1320 C.3    54  LEU54       0.0001
    122  CD2       -5.8110  -38.0290    2.3510 C.3    54  LEU54       0.0001
    123  N         -7.4890  -40.5220   -1.5170 N.am   55  PRO55      -0.2729
    124  CA        -8.1670  -41.1380   -2.6600 C.3    55  PRO55       0.1401
    125  C         -8.4120  -40.1680   -3.8020 C.2    55  PRO55       0.2269
    126  O         -8.6220  -38.9770   -3.5590 O.2    55  PRO55      -0.2865
    127  CB        -9.5060  -41.6010   -2.0710 C.3    55  PRO55       0.0296
    128  CG        -9.3130  -41.6180   -0.6030 C.3    55  PRO55       0.0237
    129  CD        -8.3290  -40.5340   -0.3090 C.3    55  PRO55       0.0939
    130  N         -6.8000  -38.7440   -6.3610 N.3    57  ARG57      -0.1245
    131  CA        -5.9300  -37.6720   -6.7990 C.3    57  ARG57       0.1563
    132  C         -4.5000  -38.1790   -6.7740 C.2    57  ARG57       0.2260
    133  O         -4.2080  -39.1900   -6.1310 O.2    57  ARG57      -0.2867
    134  CB        -6.1010  -36.4310   -5.9090 C.3    57  ARG57       0.0307
    135  CG        -5.5510  -36.5670   -4.4940 C.3    57  ARG57       0.0489
    136  CD        -6.3840  -35.7370   -3.5320 C.3    57  ARG57       0.2205
    137  NE        -7.5690  -36.4730   -3.0990 N.pl3  57  ARG57      -0.0865
    138  CZ        -8.3800  -36.0840   -2.1180 C.cat  57  ARG57       0.5346
    139  NH1       -8.1620  -34.9380   -1.4750 N.pl3  57  ARG57       0.1354
    140  NH2       -9.4200  -36.8380   -1.7870 N.pl3  57  ARG57       0.1354
    141  N          0.5860  -28.8780   -0.4800 N.3    92  PHE92      -0.1241
    142  CA        -0.3530  -29.3320    0.5400 C.3    92  PHE92       0.1605
    143  C          0.1990  -29.2190    1.9720 C.2    92  PHE92       0.2264
    144  O         -0.5480  -29.3520    2.9420 O.2    92  PHE92      -0.2867
    145  CB        -0.7300  -30.7840    0.2220 C.3    92  PHE92       0.0534
    146  CG        -1.9780  -31.2770    0.9010 C.ar   92  PHE92      -0.0203
    147  CD1       -1.9580  -32.4470    1.6510 C.ar   92  PHE92      -0.0042
    148  CD2       -3.1790  -30.6140    0.7390 C.ar   92  PHE92      -0.0042
    149  CE1       -3.1160  -32.9220    2.2540 C.ar   92  PHE92      -0.0003
    150  CE2       -4.3360  -31.0760    1.3410 C.ar   92  PHE92      -0.0003
    151  CZ        -4.3030  -32.2340    2.1000 C.ar   92  PHE92      -0.0000
    152  N          5.6920  -25.1810    2.6800 N.3    98  PHE98      -0.1241
    153  CA         5.0370  -23.8760    2.5060 C.3    98  PHE98       0.1605
    154  C          6.0930  -22.7590    2.4580 C.2    98  PHE98       0.2264
    155  O          6.0130  -21.8550    1.6120 O.2    98  PHE98      -0.2867
    156  CB         4.0090  -23.5910    3.6190 C.3    98  PHE98       0.0534
    157  CG         2.7460  -24.4360    3.5310 C.ar   98  PHE98      -0.0203
    158  CD1        2.1750  -24.7410    2.2940 C.ar   98  PHE98      -0.0042
    159  CD2        2.1440  -24.9240    4.6800 C.ar   98  PHE98      -0.0042
    160  CE1        1.0330  -25.5290    2.2130 C.ar   98  PHE98      -0.0003
    161  CE2        0.9940  -25.7120    4.6110 C.ar   98  PHE98      -0.0003
    162  CZ         0.4300  -26.0050    3.3800 C.ar   98  PHE98      -0.0000
    163  N         -7.8180  -21.7270    4.2950 N.3   111  THR111     -0.1218
    164  CA        -8.9210  -21.7230    5.2420 C.3   111  THR111      0.1862
    165  C         -8.4160  -21.0630    6.5140 C.2   111  THR111      0.2287
    166  O         -7.5300  -21.6060    7.1860 O.2   111  THR111     -0.2866
    167  CB        -9.4310  -23.1430    5.5530 C.3   111  THR111      0.1770
    168  OG1       -9.8310  -23.7940    4.3390 O.3   111  THR111     -0.2211
    169  CG2      -10.5990  -23.1050    6.5390 C.3   111  THR111      0.0375
@<TRIPOS>BOND
     1   131   132    1
     2   131   130    1
     3   131   134    1
     4   132   133    2
     5   134   135    1
     6   135   136    1
     7   125   126    2
     8   125   124    1
     9    88    87    2
    10   136   137    1
    11    93    92    1
    12   137   138    2
    13   124   127    1
    14   124   123    1
    15    92    91    1
    16   118   117    2
    17    87    86    1
    18   138   140    1
    19   138   139    1
    20   127   128    1
    21    81    80    2
    22    91    90    1
    23   117   123   am
    24   117   116    1
    25   123   129    1
    26    90    89    1
    27    86    89    1
    28    86    85    1
    29    71    70    2
    30     8     6    1
    31     5     6    1
    32     5     2    1
    33     1     2    1
    34    80    85   am
    35    80    79    1
    36   128   129    1
    37   141   142    1
    38   116   115    1
    39   116   119    1
    40   119   120    1
    41     6     7    1
    42    76    74   ar
    43    76    77   ar
    44     2     3    1
    45   145   142    1
    46   145   146    1
    47    70    78   am
    48    70    69    1
    49    74    73   ar
    50    79    78    1
    51    79    82    1
    52    77    75   ar
    53   142   143    1
    54   148   146   ar
    55   148   150   ar
    56    83    82    1
    57   146   147   ar
    58    69    68    1
    59    69    72    1
    60   120   121    1
    61   120   122    1
    62    73    75   ar
    63    73    72    1
    64   150   151   ar
    65     3     4    2
    66     3     9   am
    67    82    84    1
    68   155   154    2
    69   147   149   ar
    70   143   144    2
    71   151   149   ar
    72   160   158   ar
    73   160   162   ar
    74   158   157   ar
    75     9    10    1
    76    63    62    2
    77   154   153    1
    78   153   152    1
    79   153   156    1
    80   162   161   ar
    81    62    61    1
    82   157   156    1
    83   157   159   ar
    84    14    13    1
    85    10    13    1
    86    10    11    1
    87    55    54    2
    88    13    15    1
    89   114   112    1
    90    12    11    2
    91   163   164    1
    92   168   167    1
    93   161   159   ar
    94    11    16   am
    95    61    60    1
    96    61    64    1
    97   100    98    1
    98   113   111    1
    99    54    60   am
   100    54    53    1
   101    59    57   ar
   102   164   167    1
   103   164   165    1
   104    98    99    1
   105    98    95    1
   106   167   169    1
   107   111   112    1
   108   111   108    1
   109    64    65    1
   110    53    52    1
   111    53    56    1
   112    96    97    2
   113    96    95    1
   114    16    17    1
   115    57    58   ar
   116    57    56    1
   117    95    94    1
   118    65    67    1
   119    65    66    1
   120   165   166    2
   121    17    20    1
   122    17    18    1
   123   109   108    1
   124   109   110    2
   125   108   107    1
   126   107   103   am
   127    18    19    2
   128   106   105    1
   129   101   102    1
   130   103   102    1
   131   103   104    2
   132   102   105    1
   133    36    35    1
   134    37    35    1
   135    35    34    1
   136    46    47   ar
   137    46    44   ar
   138    49    47   ar
   139    49    51   ar
   140    47    45   ar
   141    34    31    1
   142    51    50   ar
   143    44    43   ar
   144    31    30    1
   145    31    32    1
   146    30    23   am
   147    45    43   ar
   148    45    48   ar
   149    43    42    1
   150    50    48   ar
   151    23    22    1
   152    23    24    2
   153    22    21    1
   154    22    25    1
   155    41    40    2
   156    32    33    2
   157    40    39    1
   158    42    39    1
   159    25    26    1
   160    38    39    1
   161    26    27    1
   162    27    28    2
   163    27    29   am
