@<TRIPOS>MOLECULE
tmp/5jg1A00.pdb
 121 113 0 0 0
SMALL
GASTEIGER

@<TRIPOS>ATOM
      1  N          2.5420   24.1170   17.0750 N.3     8  ARG8       -0.1245
      2  CA         3.7500   24.7930   16.5810 C.3     8  ARG8        0.1563
      3  C          3.4160   26.2240   16.1520 C.2     8  ARG8        0.2260
      4  O          2.4200   26.4350   15.4420 O.2     8  ARG8       -0.2867
      5  CB         4.3630   24.0150   15.4130 C.3     8  ARG8        0.0307
      6  CG         4.9140   22.6470   15.8230 C.3     8  ARG8        0.0489
      7  CD         5.6590   21.9990   14.6520 C.3     8  ARG8        0.2205
      8  NE         6.3070   20.7590   15.0710 N.pl3   8  ARG8       -0.0865
      9  CZ         7.1520   20.0420   14.3060 C.cat   8  ARG8        0.5346
     10  NH1        7.6940   18.9360   14.7720 N.pl3   8  ARG8        0.1354
     11  NH2        7.4250   20.4630   13.0690 N.pl3   8  ARG8        0.1354
     12  N          8.5100   28.5940   11.2960 N.3    23  LEU23      -0.1245
     13  CA         8.4010   28.3890   12.7060 C.3    23  LEU23       0.1561
     14  C          9.0600   29.5090   13.4850 C.2    23  LEU23       0.2260
     15  O         10.2200   29.7910   13.2370 O.2    23  LEU23      -0.2867
     16  CB         9.0790   27.0240   12.9780 C.3    23  LEU23       0.0270
     17  CG         9.0650   26.4690   14.4030 C.3    23  LEU23       0.0019
     18  CD1        7.6850   26.1350   14.8370 C.3    23  LEU23       0.0001
     19  CD2        9.9880   25.2520   14.4810 C.3    23  LEU23       0.0001
     20  N         10.9850   30.5020   16.3870 N.3    25  ASP25      -0.1239
     21  CA        11.7950   29.5990   17.2350 C.3    25  ASP25       0.1674
     22  C         12.7580   30.3280   18.1340 C.2    25  ASP25       0.2266
     23  O         13.8570   30.7400   17.7430 O.2    25  ASP25      -0.2867
     24  CB        12.5590   28.6460   16.3340 C.3    25  ASP25       0.1410
     25  CG        13.1930   27.5380   17.1130 C.2    25  ASP25       0.3668
     26  OD1       13.1330   27.5710   18.3910 O.co2  25  ASP25      -0.2456
     27  OD2       13.7160   26.5980   16.4780 O.co2  25  ASP25      -0.2456
     28  N         14.5150   29.1020   20.4120 N.3    27  GLY27      -0.1210
     29  CA        15.6890   28.2740   20.6310 C.3    27  GLY27       0.1956
     30  C         16.7210   28.3950   19.5340 C.2    27  GLY27       0.2612
     31  O         17.8000   27.8790   19.7160 O.2    27  GLY27      -0.2717
     32  N         16.4150   29.0540   18.4290 N.am   28  ALA28      -0.1965
     33  CA        17.2960   29.2030   17.2720 C.3    28  ALA28       0.1728
     34  C         18.0050   30.5290   17.3350 C.2    28  ALA28       0.2616
     35  O         17.3590   31.5810   17.3030 O.2    28  ALA28      -0.2715
     36  CB        16.4750   29.1320   15.9990 C.3    28  ALA28       0.0334
     37  N         19.3460   30.5300   17.3890 N.am   29  ASP29      -0.1957
     38  CA        20.0560   31.7900   17.3970 C.3    29  ASP29       0.1840
     39  C         19.8270   32.5620   16.0900 C.2    29  ASP29       0.2622
     40  O         19.6890   33.7960   16.0630 O.2    29  ASP29      -0.2715
     41  CB        21.5540   31.5730   17.5980 C.3    29  ASP29       0.1450
     42  CG        22.0100   30.9590   18.9180 C.2    29  ASP29       0.3671
     43  OD1       21.2820   31.1260   19.9440 O.co2  29  ASP29      -0.2456
     44  OD2       23.0740   30.3080   18.9410 O.co2  29  ASP29      -0.2456
     45  N         19.8400   31.8010   15.0020 N.am   30  ASP30      -0.1971
     46  CA        19.8250   32.3000   13.6420 C.3    30  ASP30       0.1709
     47  C         18.6080   31.7840   12.8970 C.2    30  ASP30       0.2293
     48  O         18.0010   30.7750   13.2510 O.2    30  ASP30      -0.2864
     49  CB        21.1290   31.8610   12.9300 C.3    30  ASP30       0.1436
     50  CG        22.4480   32.3040   13.5660 C.2    30  ASP30       0.3671
     51  OD1       22.4720   33.2550   14.3320 O.co2  30  ASP30      -0.2456
     52  OD2       23.5190   31.6670   13.3180 O.co2  30  ASP30      -0.2456
     53  N         17.0000   30.0720    9.5760 N.3    32  VAL32      -0.1245
     54  CA        17.4300   29.0200    8.6700 C.3    32  VAL32       0.1561
     55  C         16.2680   28.7040    7.7350 C.2    32  VAL32       0.2260
     56  O         15.1970   28.2880    8.1970 O.2    32  VAL32      -0.2867
     57  CB        17.8650   27.7500    9.4320 C.3    32  VAL32       0.0252
     58  CG1       18.4860   26.7620    8.4570 C.3    32  VAL32       0.0019
     59  CG2       18.7910   28.0490   10.6280 C.3    32  VAL32       0.0019
     60  N         28.8710   28.0300    6.4820 N.3    45  LYS45      -0.1245
     61  CA        28.7580   28.0100    7.9390 C.3    45  LYS45       0.1561
     62  C         28.2990   26.6330    8.3630 C.2    45  LYS45       0.2260
     63  O         27.5500   25.9850    7.5990 O.2    45  LYS45      -0.2867
     64  CB        27.7630   29.0610    8.4100 C.3    45  LYS45       0.0271
     65  CG        27.6920   29.3330    9.9000 C.3    45  LYS45       0.0035
     66  CD        26.6490   30.4020   10.2140 C.3    45  LYS45       0.0206
     67  CE        26.3510   30.6710   11.6490 C.3    45  LYS45       0.1093
     68  NZ        27.4620   31.3110   12.3800 N.3    45  LYS45      -0.1314
     69  N         26.0560   24.8490   11.5270 N.3    47  ILE47      -0.1231
     70  CA        25.2010   25.0970   12.6830 C.3    47  ILE47       0.1692
     71  C         24.8070   23.7750   13.3040 C.2    47  ILE47       0.2593
     72  O         24.6500   22.7680   12.5990 O.2    47  ILE47      -0.2718
     73  CB        23.9760   25.9390   12.3290 C.3    47  ILE47       0.0266
     74  CG1       23.0670   25.2710   11.3060 C.3    47  ILE47       0.0019
     75  CG2       24.3760   27.3430   11.9150 C.3    47  ILE47       0.0020
     76  CD1       21.7330   25.9740   11.1190 C.3    47  ILE47       0.0001
     77  N         24.6970   23.7820   14.6400 N.am   48  GLY48      -0.1942
     78  CA        24.4700   22.5460   15.3570 C.3    48  GLY48       0.2014
     79  C         23.2810   22.5490   16.2220 C.2    48  GLY48       0.2639
     80  O         22.8770   23.5420   16.8090 O.2    48  GLY48      -0.2714
     81  N         22.6460   21.3900   16.3370 N.am   49  GLY49      -0.1939
     82  CA        21.5180   21.1440   17.1650 C.3    49  GLY49       0.2014
     83  C         21.4300   19.7030   17.5680 C.2    49  GLY49       0.2638
     84  O         22.4180   18.9880   17.5730 O.2    49  GLY49      -0.2714
     85  N         20.2630   19.2500   17.9230 N.am   50  ILE50      -0.1977
     86  CA        20.0710   17.8190   18.2140 C.3    50  ILE50       0.1596
     87  C         20.4280   17.0170   16.9680 C.2    50  ILE50       0.2287
     88  O         20.0390   17.3480   15.8440 O.2    50  ILE50      -0.2864
     89  CB        18.6780   17.5730   18.7560 C.3    50  ILE50       0.0276
     90  CG1       18.5950   18.1060   20.1870 C.3    50  ILE50       0.0022
     91  CG2       18.2840   16.0900   18.6650 C.3    50  ILE50       0.0022
     92  CD1       17.2310   18.1760   20.8050 C.3    50  ILE50       0.0001
     93  N         17.0460   21.9730    5.7770 N.3    80  THR80      -0.1204
     94  CA        16.0330   21.8850    6.8120 C.3    80  THR80       0.1979
     95  C         14.6770   21.5740    6.1980 C.2    80  THR80       0.2460
     96  O         14.3610   22.1060    5.1280 O.2    80  THR80      -0.2732
     97  CB        15.9800   23.1850    7.6620 C.3    80  THR80       0.1783
     98  OG1       14.9260   22.9740    8.6070 O.3    80  THR80      -0.2211
     99  CG2       15.6890   24.3830    6.8060 C.3    80  THR80       0.0376
    100  N         13.8890   20.7180    6.8480 N.am   81  PRO81      -0.2717
    101  CA        12.5240   20.4470    6.3740 C.3    81  PRO81       0.1535
    102  C         11.5160   21.5210    6.7270 C.2    81  PRO81       0.2598
    103  O         10.3820   21.5020    6.2040 O.2    81  PRO81      -0.2715
    104  CB        12.2050   19.1370    7.1130 C.3    81  PRO81       0.0310
    105  CG        13.0130   19.1940    8.3910 C.3    81  PRO81       0.0237
    106  CD        14.2670   19.8930    7.9940 C.3    81  PRO81       0.0939
    107  N         11.8580   22.4370    7.6050 N.am   82  VAL82      -0.1978
    108  CA        10.9810   23.4750    8.1300 C.3    82  VAL82       0.1596
    109  C         11.7880   24.7680    8.1900 C.2    82  VAL82       0.2287
    110  O         12.9120   24.7760    8.6800 O.2    82  VAL82      -0.2864
    111  CB        10.4550   23.1280    9.5310 C.3    82  VAL82       0.0276
    112  CG1        9.7200   24.2540   10.2170 C.3    82  VAL82       0.0022
    113  CG2        9.5050   21.9150    9.4330 C.3    82  VAL82       0.0022
    114  N         12.8320   28.2170    9.7320 N.3    84  ILE84      -0.1245
    115  CA        13.0320   28.6250   11.1130 C.3    84  ILE84       0.1561
    116  C         13.3200   30.1140   11.1840 C.2    84  ILE84       0.2260
    117  O         14.3440   30.5380   10.6340 O.2    84  ILE84      -0.2867
    118  CB        14.2390   27.8380   11.7240 C.3    84  ILE84       0.0252
    119  CG1       14.0980   26.3330   11.5510 C.3    84  ILE84       0.0019
    120  CG2       14.4950   28.2510   13.1520 C.3    84  ILE84       0.0019
    121  CD1       15.4080   25.5310   11.6440 C.3    84  ILE84       0.0001
@<TRIPOS>BOND
     1    96    95    2
     2    93    94    1
     3    95    94    1
     4    95   100   am
     5   103   102    2
     6   101   102    1
     7   101   100    1
     8   101   104    1
     9    60    61    1
    10   102   107   am
    11    99    97    1
    12    94    97    1
    13   100   106    1
    14   104   105    1
    15    63    62    2
    16   107   108    1
    17    97    98    1
    18    55    56    2
    19    55    54    1
    20    61    62    1
    21    61    64    1
    22   106   105    1
    23   108   109    1
    24   108   111    1
    25   109   110    2
    26    64    65    1
    27    58    57    1
    28    54    57    1
    29    54    53    1
    30    57    59    1
    31   113   111    1
    32   111   112    1
    33   114   115    1
    34    65    66    1
    35    66    67    1
    36   117   116    2
    37   115   116    1
    38   115   118    1
    39    76    74    1
    40    12    13    1
    41    74    73    1
    42    69    70    1
    43   119   121    1
    44   119   118    1
    45    67    68    1
    46   118   120    1
    47    75    73    1
    48    73    70    1
    49    72    71    2
    50    70    71    1
    51    13    16    1
    52    13    14    1
    53    47    48    2
    54    47    46    1
    55    49    50    1
    56    49    46    1
    57    16    17    1
    58    11     9    1
    59    15    14    2
    60    71    77   am
    61    52    50   ar
    62    50    51   ar
    63    46    45    1
    64     9    10    1
    65     9     8    2
    66    17    19    1
    67    17    18    1
    68    77    78    1
    69     7     8    1
    70     7     6    1
    71    45    39   am
    72    78    79    1
    73     5     6    1
    74     5     2    1
    75     4     3    2
    76    88    87    2
    77    36    33    1
    78    40    39    2
    79    39    38    1
    80     3     2    1
    81    79    81   am
    82    79    80    2
    83    24    25    1
    84    24    21    1
    85    81    82    1
    86    20    21    1
    87    27    25   ar
    88     2     1    1
    89    87    86    1
    90    25    26   ar
    91    82    83    1
    92    21    22    1
    93    33    34    1
    94    33    32    1
    95    35    34    2
    96    34    37   am
    97    37    38    1
    98    38    41    1
    99    83    84    2
   100    83    85   am
   101    41    42    1
   102    23    22    2
   103    85    86    1
   104    86    89    1
   105    32    30   am
   106    91    89    1
   107    89    90    1
   108    42    44   ar
   109    42    43   ar
   110    30    31    2
   111    30    29    1
   112    90    92    1
   113    28    29    1
