@<TRIPOS>MOLECULE
tmp/5jgaA00.pdb
 166 156 0 0 0
SMALL
GASTEIGER

@<TRIPOS>ATOM
      1  N        -22.9460  -51.3890   -8.3430 N.3    15  GLU15      -0.1245
      2  CA       -22.9610  -52.4300   -9.3830 C.3    15  GLU15       0.1567
      3  C        -21.5820  -52.7470   -9.9880 C.2    15  GLU15       0.2260
      4  O        -20.6650  -51.9260   -9.9300 O.2    15  GLU15      -0.2867
      5  CB       -23.9890  -52.0940  -10.4850 C.3    15  GLU15       0.0388
      6  CG       -23.5870  -51.0010  -11.4810 C.3    15  GLU15       0.1160
      7  CD       -24.1110  -49.6130  -11.1290 C.2    15  GLU15       0.3649
      8  OE1      -23.9080  -49.1530   -9.9830 O.co2  15  GLU15      -0.2457
      9  OE2      -24.7130  -48.9640  -12.0170 O.co2  15  GLU15      -0.2457
     10  N        -19.4290  -52.7800  -13.1360 N.3    17  VAL17      -0.1231
     11  CA       -19.4420  -52.0280  -14.4040 C.3    17  VAL17       0.1692
     12  C        -18.6730  -52.7220  -15.5380 C.2    17  VAL17       0.2593
     13  O        -18.8640  -52.3820  -16.7050 O.2    17  VAL17      -0.2718
     14  CB       -19.0340  -50.5330  -14.2670 C.3    17  VAL17       0.0266
     15  CG1      -20.0680  -49.7630  -13.4560 C.3    17  VAL17       0.0020
     16  CG2      -17.6380  -50.3690  -13.6810 C.3    17  VAL17       0.0020
     17  N        -17.8190  -53.6850  -15.1990 N.am   18  GLY18      -0.1942
     18  CA       -17.1190  -54.4800  -16.2070 C.3    18  GLY18       0.2014
     19  C        -15.8640  -55.1670  -15.7160 C.2    18  GLY18       0.2639
     20  O        -15.4960  -55.0610  -14.5420 O.2    18  GLY18      -0.2714
     21  N        -15.2190  -55.9020  -16.6160 N.am   19  ARG19      -0.1963
     22  CA       -13.9150  -56.4800  -16.3360 C.3    19  ARG19       0.1729
     23  C        -12.8730  -55.5930  -16.9870 C.2    19  ARG19       0.2616
     24  O        -12.9920  -55.2480  -18.1720 O.2    19  ARG19      -0.2715
     25  CB       -13.8020  -57.9100  -16.8640 C.3    19  ARG19       0.0348
     26  CG       -14.4460  -58.9310  -15.9700 C.3    19  ARG19       0.0492
     27  CD       -14.3070  -60.2810  -16.6390 C.3    19  ARG19       0.2205
     28  NE       -12.9090  -60.6710  -16.6510 N.pl3  19  ARG19      -0.0865
     29  CZ       -12.3990  -61.3610  -15.6540 C.cat  19  ARG19       0.5346
     30  NH1      -13.1550  -61.7790  -14.6560 N.pl3  19  ARG19       0.1354
     31  NH2      -11.1040  -61.6700  -15.6650 N.pl3  19  ARG19       0.1354
     32  N        -11.8680  -55.2030  -16.2010 N.am   20  GLY20      -0.1955
     33  CA       -10.6890  -54.5290  -16.7240 C.3    20  GLY20       0.1869
     34  C         -9.8570  -55.5270  -17.4990 C.2    20  GLY20       0.2309
     35  O        -10.2680  -56.6860  -17.6840 O.2    20  GLY20      -0.2863
     36  N        -14.2750  -54.5780  -12.1280 N.3    25  VAL25      -0.1245
     37  CA       -14.4540  -53.1750  -11.7820 C.3    25  VAL25       0.1561
     38  C        -15.8990  -52.9430  -11.3580 C.2    25  VAL25       0.2260
     39  O        -16.8420  -53.3300  -12.0560 O.2    25  VAL25      -0.2867
     40  CB       -14.0350  -52.2170  -12.9420 C.3    25  VAL25       0.0252
     41  CG1      -14.0800  -50.7650  -12.4970 C.3    25  VAL25       0.0019
     42  CG2      -12.6380  -52.5470  -13.4520 C.3    25  VAL25       0.0019
     43  N        -14.3060  -46.0040   -8.7120 N.3    36  ALA36      -0.1245
     44  CA       -14.3010  -47.3520   -9.2430 C.3    36  ALA36       0.1562
     45  C        -13.4050  -48.1840   -8.3510 C.2    36  ALA36       0.2260
     46  O        -12.3460  -47.7170   -7.9190 O.2    36  ALA36      -0.2867
     47  CB       -13.7930  -47.3780  -10.6750 C.3    36  ALA36       0.0290
     48  N        -11.3440  -51.8330   -8.2790 N.3    38  LYS38      -0.1245
     49  CA       -10.9000  -52.9660   -9.0650 C.3    38  LYS38       0.1561
     50  C        -10.3870  -54.0450   -8.1290 C.2    38  LYS38       0.2260
     51  O         -9.4460  -53.8180   -7.3690 O.2    38  LYS38      -0.2867
     52  CB        -9.8530  -52.5520  -10.1110 C.3    38  LYS38       0.0271
     53  CG        -9.2080  -53.7050  -10.8730 C.3    38  LYS38       0.0035
     54  CD        -8.9510  -53.4150  -12.3530 C.3    38  LYS38       0.0206
     55  CE        -8.0100  -52.2440  -12.5930 C.3    38  LYS38       0.1093
     56  NZ        -7.1700  -52.4110  -13.8150 N.3    38  LYS38      -0.1314
     57  N          0.3420  -52.6060  -11.2550 N.3    52  GLU52      -0.1245
     58  CA        -0.5390  -51.4630  -11.4410 C.3    52  GLU52       0.1567
     59  C         -0.4980  -50.5320  -10.2340 C.2    52  GLU52       0.2260
     60  O         -0.4140  -49.3140  -10.4150 O.2    52  GLU52      -0.2867
     61  CB        -1.9770  -51.8800  -11.7840 C.3    52  GLU52       0.0388
     62  CG        -2.8940  -50.6850  -11.9920 C.3    52  GLU52       0.1160
     63  CD        -4.1590  -51.0100  -12.7520 C.2    52  GLU52       0.3649
     64  OE1       -4.9960  -51.7630  -12.2190 O.co2  52  GLU52      -0.2457
     65  OE2       -4.3220  -50.4840  -13.8760 O.co2  52  GLU52      -0.2457
     66  N         -5.9100  -42.1840  -15.4460 N.3    65  VAL65      -0.1245
     67  CA        -6.8640  -42.4100  -14.3460 C.3    65  VAL65       0.1561
     68  C         -6.2210  -42.1580  -12.9530 C.2    65  VAL65       0.2260
     69  O         -5.0560  -42.5080  -12.7230 O.2    65  VAL65      -0.2867
     70  CB        -7.5250  -43.8050  -14.4860 C.3    65  VAL65       0.0252
     71  CG1       -6.5540  -44.9420  -14.1600 C.3    65  VAL65       0.0019
     72  CG2       -8.8060  -43.8890  -13.6750 C.3    65  VAL65       0.0019
     73  N        -10.0800  -46.2430   -7.3930 N.3    79  MET79      -0.1230
     74  CA        -9.7110  -45.3260   -8.4680 C.3    79  MET79       0.1702
     75  C        -10.8300  -44.3690   -8.8330 C.2    79  MET79       0.2592
     76  O        -11.9660  -44.5050   -8.3820 O.2    79  MET79      -0.2718
     77  CB        -9.3000  -46.1190   -9.7050 C.3    79  MET79       0.0401
     78  CG        -7.9620  -46.8310   -9.5790 C.3    79  MET79       0.0596
     79  SD        -7.7420  -48.1510  -10.7860 S.3    79  MET79      -0.1393
     80  CE        -9.1600  -49.1770  -10.4260 C.3    79  MET79       0.0692
     81  N        -10.4750  -43.3980   -9.6660 N.am   80  GLU80      -0.1966
     82  CA       -11.4080  -42.4960  -10.3330 C.3    80  GLU80       0.1733
     83  C        -12.4560  -43.3050  -11.0770 C.2    80  GLU80       0.2616
     84  O        -12.1360  -44.3120  -11.7220 O.2    80  GLU80      -0.2715
     85  CB       -10.5980  -41.6190  -11.2900 C.3    80  GLU80       0.0429
     86  CG       -11.3770  -40.7110  -12.2160 C.3    80  GLU80       0.1163
     87  CD       -10.4840  -39.7350  -12.9480 C.2    80  GLU80       0.3649
     88  OE1       -9.2920  -40.0420  -13.1890 O.co2  80  GLU80      -0.2457
     89  OE2      -10.9870  -38.6420  -13.2810 O.co2  80  GLU80      -0.2457
     90  N        -13.7110  -42.8980  -10.9400 N.am   81  TYR81      -0.1960
     91  CA       -14.7940  -43.5370  -11.6730 C.3    81  TYR81       0.1771
     92  C        -14.9910  -42.7920  -12.9870 C.2    81  TYR81       0.2619
     93  O        -15.1220  -41.5720  -12.9880 O.2    81  TYR81      -0.2715
     94  CB       -16.0950  -43.5380  -10.8650 C.3    81  TYR81       0.0574
     95  CG       -17.2670  -44.1350  -11.6180 C.ar   81  TYR81      -0.0198
     96  CD1      -17.3080  -45.5020  -11.9050 C.ar   81  TYR81      -0.0009
     97  CD2      -18.3300  -43.3290  -12.0570 C.ar   81  TYR81      -0.0009
     98  CE1      -18.3690  -46.0570  -12.6000 C.ar   81  TYR81       0.0417
     99  CE2      -19.4060  -43.8780  -12.7530 C.ar   81  TYR81       0.0417
    100  CZ       -19.4140  -45.2400  -13.0200 C.ar   81  TYR81       0.1957
    101  OH       -20.4570  -45.8110  -13.7030 O.3    81  TYR81      -0.2866
    102  N        -15.0040  -43.5230  -14.0970 N.am   82  ALA82      -0.1963
    103  CA       -15.1700  -42.8800  -15.4080 C.3    82  ALA82       0.1728
    104  C        -16.6030  -43.0170  -15.9010 C.2    82  ALA82       0.2616
    105  O        -16.9810  -44.0290  -16.4910 O.2    82  ALA82      -0.2715
    106  CB       -14.1730  -43.4170  -16.4270 C.3    82  ALA82       0.0334
    107  N        -17.3930  -41.9790  -15.6500 N.am   83  GLU83      -0.1963
    108  CA       -18.8370  -42.0060  -15.9300 C.3    83  GLU83       0.1733
    109  C        -19.1760  -42.2700  -17.4090 C.2    83  GLU83       0.2617
    110  O        -20.2100  -42.8700  -17.7060 O.2    83  GLU83      -0.2715
    111  CB       -19.5340  -40.7440  -15.3820 C.3    83  GLU83       0.0429
    112  CG       -19.1880  -39.4280  -16.0770 C.3    83  GLU83       0.1163
    113  CD       -17.9070  -38.7470  -15.5930 C.2    83  GLU83       0.3649
    114  OE1      -17.1120  -39.3510  -14.8250 O.co2  83  GLU83      -0.2457
    115  OE2      -17.6890  -37.5770  -15.9970 O.co2  83  GLU83      -0.2457
    116  N        -18.2840  -41.8640  -18.3170 N.am   84  GLY84      -0.1940
    117  CA       -18.4750  -42.1120  -19.7450 C.3    84  GLY84       0.2014
    118  C        -18.0890  -43.4900  -20.2580 C.2    84  GLY84       0.2639
    119  O        -18.2160  -43.7440  -21.4580 O.2    84  GLY84      -0.2714
    120  N        -17.6020  -44.3740  -19.3820 N.am   85  GLY85      -0.1939
    121  CA       -17.1920  -45.7250  -19.7940 C.3    85  GLY85       0.2014
    122  C        -15.9660  -45.7220  -20.7140 C.2    85  GLY85       0.2639
    123  O        -15.2250  -44.7370  -20.7580 O.2    85  GLY85      -0.2714
    124  N        -15.7610  -46.8190  -21.4440 N.am   86  SER86      -0.1949
    125  CA       -14.5770  -46.9820  -22.2820 C.3    86  SER86       0.1924
    126  C        -14.7830  -46.4000  -23.6860 C.2    86  SER86       0.2314
    127  O        -15.9120  -46.3600  -24.2090 O.2    86  SER86      -0.2863
    128  CB       -14.1820  -48.4580  -22.3810 C.3    86  SER86       0.2116
    129  OG       -15.0770  -49.1680  -23.2190 O.3    86  SER86      -0.2180
    130  N        -16.4630  -48.9680  -26.0390 N.3    89  ASN89      -0.1240
    131  CA       -17.9300  -48.9890  -25.9360 C.3    89  ASN89       0.1653
    132  C        -18.6010  -47.8140  -26.6710 C.2    89  ASN89       0.2266
    133  O        -19.6190  -48.0010  -27.3320 O.2    89  ASN89      -0.2867
    134  CB       -18.3440  -48.9790  -24.4510 C.3    89  ASN89       0.1155
    135  CG       -19.8440  -48.9850  -24.2570 C.2    89  ASN89       0.2627
    136  OD1      -20.5160  -49.9350  -24.6260 O.2    89  ASN89      -0.2716
    137  ND2      -20.3720  -47.9210  -23.6650 N.am   89  ASN89      -0.0877
    138  N        -10.3900  -50.3980  -25.3300 N.3   135  PRO135     -0.2116
    139  CA       -10.9290  -50.8920  -24.0340 C.3   135  PRO135      0.1372
    140  C        -10.2630  -50.2910  -22.7980 C.2   135  PRO135      0.2244
    141  O        -10.9080  -50.1780  -21.7480 O.2   135  PRO135     -0.2868
    142  CB       -10.6950  -52.4110  -24.1080 C.3   135  PRO135      0.0268
    143  CG       -10.8070  -52.7130  -25.5700 C.3   135  PRO135      0.0207
    144  CD       -10.1430  -51.5320  -26.2560 C.3   135  PRO135      0.0892
    145  N        -10.5940  -44.4740  -21.1910 N.3   138  LEU138     -0.1245
    146  CA       -11.8570  -44.1400  -20.5270 C.3   138  LEU138      0.1561
    147  C        -12.2430  -42.7210  -20.8550 C.2   138  LEU138      0.2260
    148  O        -11.3700  -41.9030  -21.1420 O.2   138  LEU138     -0.2867
    149  CB       -11.7190  -44.2820  -19.0040 C.3   138  LEU138      0.0270
    150  CG       -11.2410  -45.6360  -18.4480 C.3   138  LEU138      0.0019
    151  CD1      -11.0170  -45.5800  -16.9400 C.3   138  LEU138      0.0001
    152  CD2      -12.2140  -46.7520  -18.7810 C.3   138  LEU138      0.0001
    153  N         -6.0440  -46.1050  -18.7300 N.3   149  CYS149     -0.1221
    154  CA        -6.1050  -46.9910  -17.5800 C.3   149  CYS149      0.1808
    155  C         -5.4830  -48.3290  -17.9230 C.2   149  CYS149      0.2601
    156  O         -4.9450  -48.5320  -19.0350 O.2   149  CYS149     -0.2717
    157  CB        -7.5590  -47.1680  -17.1080 C.3   149  CYS149      0.0970
    158  SG        -8.5620  -48.2440  -18.1610 S.3   149  CYS149     -0.0800
    159  N         -5.5850  -49.2470  -16.9600 N.am  150  ASP150     -0.1973
    160  CA        -5.1420  -50.6340  -17.1020 C.3   150  ASP150      0.1709
    161  C         -3.6460  -50.7490  -17.3770 C.2   150  ASP150      0.2293
    162  O         -3.1890  -51.1520  -18.4670 O.2   150  ASP150     -0.2864
    163  CB        -6.0340  -51.4380  -18.0540 C.3   150  ASP150      0.1436
    164  CG        -7.1760  -52.1270  -17.3220 C.2   150  ASP150      0.3671
    165  OD1       -6.9040  -52.9730  -16.4430 O.co2 150  ASP150     -0.2456
    166  OD2       -8.3460  -51.8430  -17.6190 O.co2 150  ASP150     -0.2456
@<TRIPOS>BOND
     1   133   132    2
     2   132   131    1
     3   144   143    1
     4   144   138    1
     5   130   131    1
     6   131   134    1
     7   143   142    1
     8   138   139    1
     9   136   135    2
    10   134   135    1
    11   135   137   am
    12   127   126    2
    13   142   139    1
    14   139   140    1
    15   126   125    1
    16   129   128    1
    17   140   141    2
    18   128   125    1
    19   125   124    1
    20   119   118    2
    21   124   122   am
    22   145   146    1
    23   148   147    2
    24   147   146    1
    25   123   122    2
    26   122   121    1
    27   146   149    1
    28   118   117    1
    29   118   120   am
    30   121   120    1
    31   117   116    1
    32   156   155    2
    33   149   150    1
    34   152   150    1
    35   153   154    1
    36   162   161    2
    37   150   151    1
    38   116   109   am
    39    24    23    2
    40   158   157    1
    41   163   164    1
    42   163   160    1
    43   155   154    1
    44   155   159   am
    45   110   109    2
    46    35    34    2
    47   166   164   ar
    48   154   157    1
    49    34    33    1
    50   109   108    1
    51   161   160    1
    52   164   165   ar
    53   160   159    1
    54    23    22    1
    55    23    32   am
    56    25    22    1
    57    25    26    1
    58    33    32    1
    59    13    12    2
    60    28    27    1
    61    28    29    2
    62    27    26    1
    63    21    22    1
    64    21    19   am
    65   105   104    2
    66   106   103    1
    67    18    19    1
    68    18    17    1
    69   112   113    1
    70   112   111    1
    71   115   113   ar
    72   108   107    1
    73   108   111    1
    74   104   107   am
    75   104   103    1
    76    19    20    2
    77    31    29    1
    78    29    30    1
    79   113   114   ar
    80    12    17   am
    81    12    11    1
    82    66    67    1
    83   103   102    1
    84    70    67    1
    85    70    71    1
    86    70    72    1
    87    11    14    1
    88    11    10    1
    89    67    68    1
    90    14    16    1
    91    14    15    1
    92   102    92   am
    93    65    63   ar
    94    56    55    1
    95   101   100    1
    96    42    40    1
    97    89    87   ar
    98    88    87   ar
    99   100    99   ar
   100   100    98   ar
   101    93    92    2
   102    92    91    1
   103    68    69    2
   104    87    86    1
   105    40    41    1
   106    40    37    1
   107    99    97   ar
   108    63    64   ar
   109    63    62    1
   110    98    96   ar
   111    55    54    1
   112    54    53    1
   113    86    85    1
   114    36    37    1
   115    97    95   ar
   116    39    38    2
   117     9     7   ar
   118    62    61    1
   119    96    95   ar
   120    61    58    1
   121    37    38    1
   122    84    83    2
   123    91    90    1
   124    91    94    1
   125    95    94    1
   126     6     7    1
   127     6     5    1
   128    58    57    1
   129    58    59    1
   130    85    82    1
   131     7     8   ar
   132    83    90   am
   133    83    82    1
   134    53    52    1
   135    79    80    1
   136    79    78    1
   137    47    44    1
   138     5     2    1
   139    60    59    2
   140    82    81    1
   141    52    49    1
   142     3     4    2
   143     3     2    1
   144    77    78    1
   145    77    74    1
   146    81    75   am
   147     2     1    1
   148    44    43    1
   149    44    45    1
   150    49    48    1
   151    49    50    1
   152    75    74    1
   153    75    76    2
   154    74    73    1
   155    45    46    2
   156    50    51    2
