@<TRIPOS>MOLECULE
tmp/5jgbA00.pdb
 155 144 0 0 0
SMALL
GASTEIGER

@<TRIPOS>ATOM
      1  N        -22.5930  -52.0300   -8.8200 N.3    15  GLU15      -0.1245
      2  CA       -22.7560  -52.9720   -9.9390 C.3    15  GLU15       0.1567
      3  C        -21.4370  -53.2840  -10.6490 C.2    15  GLU15       0.2260
      4  O        -20.4930  -52.4930  -10.5890 O.2    15  GLU15      -0.2867
      5  CB       -23.7800  -52.4320  -10.9460 C.3    15  GLU15       0.0388
      6  CG       -23.3790  -51.0910  -11.5340 C.3    15  GLU15       0.1160
      7  CD       -24.4110  -50.5240  -12.4910 C.2    15  GLU15       0.3649
      8  OE1      -25.4970  -51.1560  -12.6410 O.co2  15  GLU15      -0.2457
      9  OE2      -24.1530  -49.4700  -13.1020 O.co2  15  GLU15      -0.2457
     10  N        -19.2680  -53.3680  -13.8440 N.3    17  VAL17      -0.1231
     11  CA       -19.2060  -52.6010  -15.1030 C.3    17  VAL17       0.1696
     12  C        -18.4170  -53.3010  -16.2170 C.2    17  VAL17       0.2631
     13  O        -18.6940  -53.0870  -17.4010 O.2    17  VAL17      -0.2714
     14  CB       -18.6990  -51.1400  -14.9150 C.3    17  VAL17       0.0266
     15  CG1      -19.7580  -50.2790  -14.2400 C.3    17  VAL17       0.0020
     16  CG2      -17.3740  -51.0790  -14.1610 C.3    17  VAL17       0.0020
     17  N        -17.4440  -54.1270  -15.8370 N.am   18  GLY18      -0.1732
     18  CA       -16.5940  -54.8130  -16.8060 C.2    18  GLY18       0.1340
     19  C        -15.5650  -55.7540  -16.2130 C.2    18  GLY18       0.2521
     20  O        -15.4540  -55.8930  -14.9920 O.2    18  GLY18      -0.2816
     21  N        -11.5870  -56.3630  -16.9250 N.3    20  GLY20      -0.1225
     22  CA       -10.3470  -55.9290  -17.5810 C.3    20  GLY20       0.1811
     23  C         -9.3720  -57.0470  -17.9150 C.2    20  GLY20       0.2280
     24  O         -9.7530  -58.2240  -17.9840 O.2    20  GLY20      -0.2866
     25  N        -13.9020  -55.1570  -12.6620 N.3    25  VAL25      -0.1245
     26  CA       -14.1380  -53.7430  -12.3730 C.3    25  VAL25       0.1561
     27  C        -15.6050  -53.5350  -11.9850 C.2    25  VAL25       0.2260
     28  O        -16.5110  -54.0530  -12.6460 O.2    25  VAL25      -0.2867
     29  CB       -13.7220  -52.8240  -13.5490 C.3    25  VAL25       0.0252
     30  CG1      -13.6770  -51.3650  -13.1110 C.3    25  VAL25       0.0019
     31  CG2      -12.3610  -53.2340  -14.1000 C.3    25  VAL25       0.0019
     32  N        -14.3160  -46.5130   -9.0010 N.3    36  ALA36      -0.1245
     33  CA       -14.2800  -47.8160   -9.6510 C.3    36  ALA36       0.1562
     34  C        -13.2790  -48.6980   -8.9260 C.2    36  ALA36       0.2260
     35  O        -12.2090  -48.2310   -8.5230 O.2    36  ALA36      -0.2867
     36  CB       -13.9130  -47.6810  -11.1170 C.3    36  ALA36       0.0290
     37  N        -11.1040  -52.2810   -9.0360 N.3    38  LYS38      -0.1245
     38  CA       -10.5470  -53.4490   -9.6940 C.3    38  LYS38       0.1561
     39  C        -10.2060  -54.4590   -8.6060 C.2    38  LYS38       0.2260
     40  O         -9.3120  -54.2190   -7.7960 O.2    38  LYS38      -0.2867
     41  CB        -9.3030  -53.0670  -10.4930 C.3    38  LYS38       0.0271
     42  CG        -9.0310  -53.9250  -11.7160 C.3    38  LYS38       0.0035
     43  CD        -7.7090  -53.5100  -12.3380 C.3    38  LYS38       0.0206
     44  CE        -7.7670  -53.5290  -13.8550 C.3    38  LYS38       0.1093
     45  NZ        -6.6720  -52.7000  -14.4320 N.3    38  LYS38      -0.1314
     46  N          0.8820  -52.9780  -11.1830 N.3    52  GLU52      -0.1245
     47  CA        -0.0890  -51.9190  -11.4900 C.3    52  GLU52       0.1567
     48  C         -0.1960  -50.8660  -10.3860 C.2    52  GLU52       0.2260
     49  O         -0.3540  -49.6810  -10.6810 O.2    52  GLU52      -0.2867
     50  CB        -1.4680  -52.5110  -11.7930 C.3    52  GLU52       0.0388
     51  CG        -2.4580  -51.4680  -12.3620 C.3    52  GLU52       0.1160
     52  CD        -2.6140  -51.4990  -13.8600 C.2    52  GLU52       0.3649
     53  OE1       -1.7580  -51.9330  -14.6250 O.co2  52  GLU52      -0.2457
     54  OE2       -3.7720  -50.9990  -14.2410 O.co2  52  GLU52      -0.2457
     55  N         -5.7110  -42.4640  -15.5580 N.3    65  VAL65      -0.1245
     56  CA        -6.6450  -42.5810  -14.4200 C.3    65  VAL65       0.1561
     57  C         -6.0080  -42.3180  -13.0530 C.2    65  VAL65       0.2260
     58  O         -4.8580  -42.7030  -12.8050 O.2    65  VAL65      -0.2867
     59  CB        -7.3900  -43.9440  -14.3740 C.3    65  VAL65       0.0252
     60  CG1       -8.4780  -43.9950  -15.4300 C.3    65  VAL65       0.0019
     61  CG2       -6.4350  -45.1270  -14.5140 C.3    65  VAL65       0.0019
     62  N        -10.0210  -46.6150   -7.7750 N.3    79  MET79      -0.1230
     63  CA        -9.6680  -45.6280   -8.7920 C.3    79  MET79       0.1702
     64  C        -10.8380  -44.7070   -9.1040 C.2    79  MET79       0.2592
     65  O        -11.9500  -44.9260   -8.6190 O.2    79  MET79      -0.2718
     66  CB        -9.1970  -46.3400  -10.0600 C.3    79  MET79       0.0401
     67  CG        -7.8740  -47.0750   -9.8980 C.3    79  MET79       0.0596
     68  SD        -7.5360  -48.2750  -11.1990 S.3    79  MET79      -0.1393
     69  CE        -8.9010  -49.4210  -10.9910 C.3    79  MET79       0.0692
     70  N        -10.5770  -43.6700   -9.9000 N.am   80  GLU80      -0.1966
     71  CA       -11.6370  -42.7900  -10.3930 C.3    80  GLU80       0.1733
     72  C        -12.5680  -43.5450  -11.3350 C.2    80  GLU80       0.2616
     73  O        -12.1310  -44.4270  -12.0810 O.2    80  GLU80      -0.2715
     74  CB       -11.0750  -41.5210  -11.0570 C.3    80  GLU80       0.0429
     75  CG       -10.2460  -41.7310  -12.3230 C.3    80  GLU80       0.1163
     76  CD        -9.9710  -40.4380  -13.0750 C.2    80  GLU80       0.3649
     77  OE1       -8.7820  -40.1200  -13.3030 O.co2  80  GLU80      -0.2457
     78  OE2      -10.9430  -39.7370  -13.4400 O.co2  80  GLU80      -0.2457
     79  N        -13.8510  -43.2060  -11.2610 N.am   81  TYR81      -0.1960
     80  CA       -14.8710  -43.8090  -12.1040 C.3    81  TYR81       0.1771
     81  C        -14.9970  -43.0350  -13.4160 C.2    81  TYR81       0.2619
     82  O        -15.0290  -41.7990  -13.4200 O.2    81  TYR81      -0.2715
     83  CB       -16.2060  -43.8560  -11.3580 C.3    81  TYR81       0.0574
     84  CG       -17.3640  -44.4400  -12.1420 C.ar   81  TYR81      -0.0198
     85  CD1      -17.3770  -45.7950  -12.5140 C.ar   81  TYR81      -0.0009
     86  CD2      -18.4640  -43.6410  -12.4960 C.ar   81  TYR81      -0.0009
     87  CE1      -18.4420  -46.3320  -13.2300 C.ar   81  TYR81       0.0417
     88  CE2      -19.5390  -44.1700  -13.2060 C.ar   81  TYR81       0.0417
     89  CZ       -19.5230  -45.5140  -13.5700 C.ar   81  TYR81       0.1957
     90  OH       -20.5800  -46.0430  -14.2740 O.3    81  TYR81      -0.2866
     91  N        -15.0500  -43.7750  -14.5210 N.am   82  ALA82      -0.1963
     92  CA       -15.2280  -43.1920  -15.8430 C.3    82  ALA82       0.1728
     93  C        -16.6840  -43.3030  -16.2740 C.2    82  ALA82       0.2616
     94  O        -17.1360  -44.3740  -16.6970 O.2    82  ALA82      -0.2715
     95  CB       -14.3040  -43.8590  -16.8500 C.3    82  ALA82       0.0334
     96  N        -17.4120  -42.1890  -16.1650 N.am   83  GLU83      -0.1963
     97  CA       -18.8660  -42.1660  -16.4140 C.3    83  GLU83       0.1733
     98  C        -19.2800  -42.5410  -17.8450 C.2    83  GLU83       0.2617
     99  O        -20.3430  -43.1320  -18.0410 O.2    83  GLU83      -0.2715
    100  CB       -19.5150  -40.8400  -15.9600 C.3    83  GLU83       0.0429
    101  CG       -19.0490  -39.5740  -16.6790 C.3    83  GLU83       0.1163
    102  CD       -17.9190  -38.8340  -15.9690 C.2    83  GLU83       0.3649
    103  OE1      -17.0330  -39.4840  -15.3630 O.co2  83  GLU83      -0.2457
    104  OE2      -17.9090  -37.5830  -16.0320 O.co2  83  GLU83      -0.2457
    105  N        -18.4350  -42.2160  -18.8230 N.am   84  GLY84      -0.1940
    106  CA       -18.7050  -42.5210  -20.2310 C.3    84  GLY84       0.2014
    107  C        -18.3340  -43.9220  -20.6960 C.2    84  GLY84       0.2639
    108  O        -18.6380  -44.2970  -21.8330 O.2    84  GLY84      -0.2714
    109  N        -17.6800  -44.6930  -19.8270 N.am   85  GLY85      -0.1939
    110  CA       -17.2430  -46.0530  -20.1570 C.3    85  GLY85       0.2014
    111  C        -15.9930  -46.0880  -21.0130 C.2    85  GLY85       0.2639
    112  O        -15.2720  -45.0910  -21.1070 O.2    85  GLY85      -0.2714
    113  N        -15.7390  -47.2400  -21.6310 N.am   86  SER86      -0.1949
    114  CA       -14.6030  -47.4120  -22.5440 C.3    86  SER86       0.1924
    115  C        -14.8650  -46.7830  -23.9220 C.2    86  SER86       0.2314
    116  O        -16.0180  -46.5600  -24.3040 O.2    86  SER86      -0.2863
    117  CB       -14.2450  -48.8960  -22.6930 C.3    86  SER86       0.2116
    118  OG       -15.0310  -49.5270  -23.6910 O.3    86  SER86      -0.2180
    119  N        -16.7570  -49.3960  -26.4170 N.3    89  ASN89      -0.1240
    120  CA       -18.2230  -49.3470  -26.4030 C.3    89  ASN89       0.1653
    121  C        -18.7880  -48.1660  -27.1900 C.2    89  ASN89       0.2266
    122  O        -19.7610  -48.3230  -27.9290 O.2    89  ASN89      -0.2867
    123  CB       -18.7720  -49.3650  -24.9710 C.3    89  ASN89       0.1155
    124  CG       -18.5480  -50.6970  -24.2770 C.2    89  ASN89       0.2627
    125  OD1      -18.7220  -51.7630  -24.8730 O.2    89  ASN89      -0.2716
    126  ND2      -18.1620  -50.6420  -23.0050 N.am   89  ASN89      -0.0877
    127  N        -10.4630  -50.7830  -25.6770 N.3   135  PRO135     -0.2116
    128  CA       -10.9740  -51.2610  -24.3800 C.3   135  PRO135      0.1372
    129  C        -10.2840  -50.6860  -23.1410 C.2   135  PRO135      0.2244
    130  O        -10.9130  -50.6030  -22.0900 O.2   135  PRO135     -0.2868
    131  CB       -10.7330  -52.7670  -24.4470 C.3   135  PRO135      0.0268
    132  CG       -10.8730  -53.0870  -25.8820 C.3   135  PRO135      0.0207
    133  CD       -10.2360  -51.9290  -26.5900 C.3   135  PRO135      0.0892
    134  N        -10.5830  -44.8960  -21.5810 N.3   138  LEU138     -0.1245
    135  CA       -11.8360  -44.5410  -20.9170 C.3   138  LEU138      0.1561
    136  C        -12.2460  -43.1100  -21.2250 C.2   138  LEU138      0.2260
    137  O        -11.3940  -42.2690  -21.5040 O.2   138  LEU138     -0.2867
    138  CB       -11.7040  -44.7280  -19.4050 C.3   138  LEU138      0.0270
    139  CG       -11.3520  -46.1100  -18.8300 C.3   138  LEU138      0.0019
    140  CD1      -10.9630  -45.9470  -17.3730 C.3   138  LEU138      0.0001
    141  CD2      -12.4710  -47.1360  -18.9690 C.3   138  LEU138      0.0001
    142  N         -5.8340  -46.4910  -19.0080 N.3   149  CYS149     -0.1221
    143  CA        -5.8600  -47.4110  -17.8710 C.3   149  CYS149      0.1808
    144  C         -5.3350  -48.7870  -18.2970 C.2   149  CYS149      0.2601
    145  O         -4.8620  -48.9370  -19.4290 O.2   149  CYS149     -0.2717
    146  CB        -7.2890  -47.5270  -17.3440 C.3   149  CYS149      0.0970
    147  SG        -8.4150  -48.3880  -18.4660 S.3   149  CYS149     -0.0800
    148  N         -5.4230  -49.7740  -17.3910 N.am  150  ASP150     -0.1973
    149  CA        -5.0590  -51.1900  -17.6390 C.3   150  ASP150      0.1709
    150  C         -3.6540  -51.3890  -18.2280 C.2   150  ASP150      0.2293
    151  O         -3.5030  -51.8040  -19.3820 O.2   150  ASP150     -0.2864
    152  CB        -6.1180  -51.8890  -18.5120 C.3   150  ASP150      0.1436
    153  CG        -7.2550  -52.4860  -17.7020 C.2   150  ASP150      0.3671
    154  OD1       -7.1130  -53.6330  -17.2170 O.co2 150  ASP150     -0.2456
    155  OD2       -8.3040  -51.8220  -17.5770 O.co2 150  ASP150     -0.2456
@<TRIPOS>BOND
     1   122   121    2
     2   121   120    1
     3   133   132    1
     4   133   127    1
     5   119   120    1
     6   120   123    1
     7   132   131    1
     8   127   128    1
     9   123   124    1
    10   125   124    2
    11   131   128    1
    12   128   129    1
    13   116   115    2
    14   124   126   am
    15   115   114    1
    16   118   117    1
    17   129   130    2
    18   117   114    1
    19   114   113    1
    20   108   107    2
    21   113   111   am
    22   134   135    1
    23   137   136    2
    24   136   135    1
    25   112   111    2
    26   111   110    1
    27   135   138    1
    28   107   106    1
    29   107   109   am
    30   106   105    1
    31   110   109    1
    32   145   144    2
    33   138   139    1
    34   151   150    2
    35   142   143    1
    36   141   139    1
    37   139   140    1
    38   105    98   am
    39   152   153    1
    40   152   149    1
    41   147   146    1
    42   144   143    1
    43   144   148   am
    44   150   149    1
    45    99    98    2
    46    24    23    2
    47    23    22    1
    48   143   146    1
    49    98    97    1
    50   153   155   ar
    51   153   154   ar
    52   149   148    1
    53    22    21    1
    54    13    12    2
    55    95    92    1
    56    18    19    1
    57    18    17    2
    58    94    93    2
    59   101   102    1
    60   101   100    1
    61    97    96    1
    62    97   100    1
    63    93    96   am
    64    93    92    1
    65    12    17    1
    66    12    11    1
    67    19    20    2
    68   104   102   ar
    69   102   103   ar
    70    92    91    1
    71    55    56    1
    72    60    59    1
    73    11    14    1
    74    11    10    1
    75    14    15    1
    76    14    16    1
    77    53    52   ar
    78    91    81   am
    79    61    59    1
    80    45    44    1
    81    56    59    1
    82    56    57    1
    83    90    89    1
    84    54    52   ar
    85    31    29    1
    86    52    51    1
    87    44    43    1
    88    89    87   ar
    89    89    88   ar
    90    29    30    1
    91    29    26    1
    92    78    76   ar
    93    82    81    2
    94    81    80    1
    95    77    76   ar
    96    87    85   ar
    97    88    86   ar
    98     9     7   ar
    99    76    75    1
   100    57    58    2
   101    25    26    1
   102    28    27    2
   103     8     7   ar
   104    85    84   ar
   105    86    84   ar
   106     7     6    1
   107    26    27    1
   108    51    50    1
   109    43    42    1
   110    75    74    1
   111    84    83    1
   112    80    83    1
   113    80    79    1
   114    73    72    2
   115    50    47    1
   116    42    41    1
   117     6     5    1
   118    47    46    1
   119    47    48    1
   120    72    79   am
   121    72    71    1
   122    68    69    1
   123    68    67    1
   124    36    33    1
   125    74    71    1
   126     5     2    1
   127    49    48    2
   128     3     4    2
   129     3     2    1
   130    41    38    1
   131    71    70    1
   132    66    67    1
   133    66    63    1
   134     2     1    1
   135    70    64   am
   136    38    37    1
   137    38    39    1
   138    33    32    1
   139    33    34    1
   140    64    63    1
   141    64    65    2
   142    34    35    2
   143    63    62    1
   144    39    40    2
