@<TRIPOS>MOLECULE
tmp/5jgdA00.pdb
 153 143 0 0 0
SMALL
GASTEIGER

@<TRIPOS>ATOM
      1  N        -19.8320   53.1990   12.8220 N.3    17  VAL17      -0.1231
      2  CA       -19.9270   52.6010   14.1650 C.3    17  VAL17       0.1692
      3  C        -19.3410   53.4810   15.2790 C.2    17  VAL17       0.2593
      4  O        -19.8390   53.4730   16.4110 O.2    17  VAL17      -0.2718
      5  CB       -19.3840   51.1380   14.2400 C.3    17  VAL17       0.0266
      6  CG1      -20.1120   50.2300   13.2580 C.3    17  VAL17       0.0020
      7  CG2      -17.8780   51.0580   14.0210 C.3    17  VAL17       0.0020
      8  N        -18.3080   54.2510   14.9420 N.am   18  GLY18      -0.1942
      9  CA       -17.6360   55.1360   15.8890 C.3    18  GLY18       0.2014
     10  C        -16.2110   55.4360   15.4780 C.2    18  GLY18       0.2639
     11  O        -15.7890   55.0920   14.3710 O.2    18  GLY18      -0.2714
     12  N        -15.4720   56.0780   16.3780 N.am   19  ARG19      -0.1963
     13  CA       -14.0840   56.4660   16.1270 C.3    19  ARG19       0.1729
     14  C        -13.1000   55.5220   16.8080 C.2    19  ARG19       0.2616
     15  O        -13.3480   55.0570   17.9210 O.2    19  ARG19      -0.2715
     16  CB       -13.8300   57.9000   16.5960 C.3    19  ARG19       0.0348
     17  CG       -14.5570   58.9660   15.7910 C.3    19  ARG19       0.0492
     18  CD       -14.2070   60.3620   16.2810 C.3    19  ARG19       0.2205
     19  NE       -15.1440   61.3730   15.7820 N.pl3  19  ARG19      -0.0865
     20  CZ       -16.2370   61.7910   16.4240 C.cat  19  ARG19       0.5346
     21  NH1      -16.5670   61.2980   17.6150 N.pl3  19  ARG19       0.1354
     22  NH2      -17.0100   62.7160   15.8680 N.pl3  19  ARG19       0.1354
     23  N        -11.9880   55.2420   16.1290 N.am   20  GLY20      -0.1955
     24  CA       -10.8670   54.5130   16.7230 C.3    20  GLY20       0.1869
     25  C         -9.9490   55.4520   17.4870 C.2    20  GLY20       0.2309
     26  O        -10.3730   56.5340   17.9220 O.2    20  GLY20      -0.2863
     27  N        -14.2750   54.3900   12.1390 N.3    25  VAL25      -0.1245
     28  CA       -14.5650   53.0060   11.7740 C.3    25  VAL25       0.1561
     29  C        -16.0060   52.9300   11.2700 C.2    25  VAL25       0.2260
     30  O        -16.9190   53.4990   11.8750 O.2    25  VAL25      -0.2867
     31  CB       -14.3170   52.0230   12.9460 C.3    25  VAL25       0.0252
     32  CG1      -14.3830   50.5760   12.4700 C.3    25  VAL25       0.0019
     33  CG2      -12.9640   52.2910   13.5980 C.3    25  VAL25       0.0019
     34  N        -14.7870   45.8880    8.5510 N.3    36  ALA36      -0.1245
     35  CA       -14.8060   47.2250    9.1240 C.3    36  ALA36       0.1562
     36  C        -13.7330   48.0470    8.4320 C.2    36  ALA36       0.2260
     37  O        -12.5740   47.6220    8.3500 O.2    36  ALA36      -0.2867
     38  CB       -14.5670   47.1750   10.6240 C.3    36  ALA36       0.0290
     39  N        -11.5560   51.6330    8.1680 N.3    38  LYS38      -0.1245
     40  CA       -11.0930   52.7570    8.9720 C.3    38  LYS38       0.1561
     41  C        -10.5950   53.8910    8.0850 C.2    38  LYS38       0.2260
     42  O         -9.5140   53.8040    7.4990 O.2    38  LYS38      -0.2867
     43  CB        -9.9990   52.3080    9.9330 C.3    38  LYS38       0.0271
     44  CG        -9.8340   53.1690   11.1710 C.3    38  LYS38       0.0035
     45  CD        -8.5430   52.7870   11.8680 C.3    38  LYS38       0.0206
     46  CE        -8.5930   53.0820   13.3520 C.3    38  LYS38       0.1093
     47  NZ        -7.3820   52.5300   14.0150 N.3    38  LYS38      -0.1314
     48  N          0.1540   52.2650   11.4790 N.3    52  GLU52      -0.1245
     49  CA        -0.7580   51.1160   11.5880 C.3    52  GLU52       0.1567
     50  C         -0.6510   50.1760   10.3750 C.2    52  GLU52       0.2260
     51  O         -0.5370   48.9620   10.5520 O.2    52  GLU52      -0.2867
     52  CB        -2.2150   51.5420   11.8700 C.3    52  GLU52       0.0388
     53  CG        -3.1990   50.3690   11.9450 C.3    52  GLU52       0.1160
     54  CD        -4.3800   50.5790   12.8860 C.2    52  GLU52       0.3649
     55  OE1       -5.1590   51.5320   12.6810 O.co2  52  GLU52      -0.2457
     56  OE2       -4.5560   49.7580   13.8180 O.co2  52  GLU52      -0.2457
     57  N         -5.9090   41.9360   15.3160 N.3    65  VAL65      -0.1245
     58  CA        -6.8730   42.1530   14.2230 C.3    65  VAL65       0.1561
     59  C         -6.2980   41.7600   12.8620 C.2    65  VAL65       0.2260
     60  O         -5.1300   42.0430   12.5700 O.2    65  VAL65      -0.2867
     61  CB        -7.3520   43.6270   14.1880 C.3    65  VAL65       0.0252
     62  CG1       -8.5120   43.8270   13.2260 C.3    65  VAL65       0.0019
     63  CG2       -7.8170   44.0510   15.5590 C.3    65  VAL65       0.0019
     64  N        -10.2330   46.1580    7.5490 N.3    79  MET79      -0.1230
     65  CA        -9.9530   45.1760    8.5960 C.3    79  MET79       0.1702
     66  C        -11.1740   44.3110    8.8680 C.2    79  MET79       0.2592
     67  O        -12.2090   44.4770    8.2160 O.2    79  MET79      -0.2718
     68  CB        -9.5170   45.8820    9.8760 C.3    79  MET79       0.0401
     69  CG        -8.2040   46.6350    9.7560 C.3    79  MET79       0.0596
     70  SD        -8.0250   47.8930   11.0290 S.3    79  MET79      -0.1393
     71  CE        -9.4170   48.9600   10.6570 C.3    79  MET79       0.0692
     72  N        -11.0480   43.3840    9.8180 N.am   80  GLU80      -0.1966
     73  CA       -12.1880   42.5770   10.2500 C.3    80  GLU80       0.1733
     74  C        -13.1120   43.3720   11.1650 C.2    80  GLU80       0.2616
     75  O        -12.6740   44.2940   11.8660 O.2    80  GLU80      -0.2715
     76  CB       -11.7480   41.2550   10.8980 C.3    80  GLU80       0.0429
     77  CG       -11.1320   41.3540   12.2870 C.3    80  GLU80       0.1163
     78  CD       -10.9230   39.9940   12.9270 C.2    80  GLU80       0.3649
     79  OE1       -9.7590   39.5390   12.9810 O.co2  80  GLU80      -0.2457
     80  OE2      -11.9220   39.3750   13.3590 O.co2  80  GLU80      -0.2457
     81  N        -14.3920   43.0170   11.1280 N.am   81  TYR81      -0.1960
     82  CA       -15.4010   43.6600   11.9500 C.3    81  TYR81       0.1771
     83  C        -15.5480   42.8960   13.2570 C.2    81  TYR81       0.2619
     84  O        -15.7240   41.6720   13.2550 O.2    81  TYR81      -0.2715
     85  CB       -16.7310   43.7360   11.1950 C.3    81  TYR81       0.0574
     86  CG       -17.8760   44.3230   11.9890 C.ar   81  TYR81      -0.0198
     87  CD1      -17.9560   45.7010   12.2300 C.ar   81  TYR81      -0.0009
     88  CD2      -18.8920   43.5000   12.4930 C.ar   81  TYR81      -0.0009
     89  CE1      -19.0120   46.2400   12.9590 C.ar   81  TYR81       0.0417
     90  CE2      -19.9510   44.0290   13.2230 C.ar   81  TYR81       0.0417
     91  CZ       -20.0070   45.3950   13.4510 C.ar   81  TYR81       0.1957
     92  OH       -21.0540   45.9180   14.1720 O.3    81  TYR81      -0.2866
     93  N        -15.4550   43.6280   14.3650 N.am   82  ALA82      -0.1963
     94  CA       -15.6620   43.0660   15.6920 C.3    82  ALA82       0.1728
     95  C        -17.1180   43.2250   16.1180 C.2    82  ALA82       0.2616
     96  O        -17.5920   44.3470   16.3560 O.2    82  ALA82      -0.2715
     97  CB       -14.7220   43.7090   16.6980 C.3    82  ALA82       0.0334
     98  N        -17.8110   42.0860   16.1980 N.am   83  GLU83      -0.1977
     99  CA       -19.2380   42.0090   16.5460 C.3    83  GLU83       0.1602
    100  C        -19.5040   42.5350   17.9520 C.2    83  GLU83       0.2287
    101  O        -20.4030   43.3570   18.1480 O.2    83  GLU83      -0.2864
    102  CB       -19.7860   40.5720   16.4340 C.3    83  GLU83       0.0415
    103  CG       -19.4080   39.7870   15.1810 C.3    83  GLU83       0.1163
    104  CD       -18.1390   38.9600   15.3610 C.2    83  GLU83       0.3649
    105  OE1      -17.0380   39.5520   15.3730 O.co2  83  GLU83      -0.2457
    106  OE2      -18.2380   37.7160   15.4830 O.co2  83  GLU83      -0.2457
    107  N        -17.8680   44.5750   19.7600 N.3    85  GLY85      -0.1210
    108  CA       -17.3770   45.9240   20.0230 C.3    85  GLY85       0.1956
    109  C        -16.0690   45.8770   20.7860 C.2    85  GLY85       0.2612
    110  O        -15.3960   44.8400   20.8210 O.2    85  GLY85      -0.2717
    111  N        -15.7060   47.0040   21.3920 N.am   86  SER86      -0.1952
    112  CA       -14.4940   47.0830   22.1980 C.3    86  SER86       0.1924
    113  C        -14.7100   46.4470   23.5730 C.2    86  SER86       0.2314
    114  O        -15.8530   46.3080   24.0270 O.2    86  SER86      -0.2863
    115  CB       -14.0330   48.5350   22.3350 C.3    86  SER86       0.2116
    116  OG       -14.8990   49.2700   23.1800 O.3    86  SER86      -0.2180
    117  N        -16.2550   49.0090   25.8920 N.3    89  ASN89      -0.1240
    118  CA       -17.6980   49.0740   25.7060 C.3    89  ASN89       0.1653
    119  C        -18.4420   47.9260   26.3810 C.2    89  ASN89       0.2266
    120  O        -19.5660   48.1060   26.8420 O.2    89  ASN89      -0.2867
    121  CB       -18.0300   49.1080   24.2170 C.3    89  ASN89       0.1155
    122  CG       -19.4660   49.5080   23.9410 C.2    89  ASN89       0.2627
    123  OD1      -20.2120   48.7500   23.3360 O.2    89  ASN89      -0.2716
    124  ND2      -19.8590   50.7000   24.3800 N.am   89  ASN89      -0.0877
    125  N        -10.2840   50.3400   25.1970 N.3   135  PRO135     -0.2116
    126  CA       -10.8760   50.7770   23.9130 C.3   135  PRO135      0.1372
    127  C        -10.1630   50.2650   22.6570 C.2   135  PRO135      0.2244
    128  O        -10.7550   50.2800   21.5760 O.2   135  PRO135     -0.2868
    129  CB       -10.7830   52.3010   23.9820 C.3   135  PRO135      0.0268
    130  CG       -10.7580   52.6100   25.4310 C.3   135  PRO135      0.0207
    131  CD        -9.9390   51.5120   26.0310 C.3   135  PRO135      0.0892
    132  N        -10.6050   44.4760   21.0580 N.3   138  LEU138     -0.1245
    133  CA       -11.8780   44.1070   20.4440 C.3   138  LEU138      0.1561
    134  C        -12.2980   42.6960   20.8140 C.2   138  LEU138      0.2260
    135  O        -11.4420   41.8370   21.0630 O.2   138  LEU138     -0.2867
    136  CB       -11.7780   44.2150   18.9250 C.3   138  LEU138      0.0270
    137  CG       -11.4340   45.5700   18.3020 C.3   138  LEU138      0.0019
    138  CD1      -11.0800   45.3800   16.8370 C.3   138  LEU138      0.0001
    139  CD2      -12.5490   46.5980   18.4690 C.3   138  LEU138      0.0001
    140  N         -6.1780   45.9830   18.5370 N.3   149  CYS149     -0.1221
    141  CA        -6.2190   46.9170   17.4020 C.3   149  CYS149      0.1808
    142  C         -5.5420   48.2480   17.7490 C.2   149  CYS149      0.2601
    143  O         -4.9030   48.3580   18.7990 O.2   149  CYS149     -0.2717
    144  CB        -7.6650   47.1540   16.9580 C.3   149  CYS149      0.0970
    145  SG        -8.7120   47.9810   18.1750 S.3   149  CYS149     -0.0800
    146  N         -5.6870   49.2430   16.8650 N.am  150  ASP150     -0.1973
    147  CA        -5.1920   50.6210   17.0730 C.3   150  ASP150      0.1709
    148  C         -3.6740   50.7110   17.3290 C.2   150  ASP150      0.2293
    149  O         -3.2120   51.0560   18.4250 O.2   150  ASP150     -0.2864
    150  CB        -6.0200   51.3670   18.1440 C.3   150  ASP150      0.1436
    151  CG        -7.4140   51.7690   17.6470 C.2   150  ASP150      0.3671
    152  OD1       -7.5090   52.5320   16.6610 O.co2 150  ASP150     -0.2456
    153  OD2       -8.4210   51.3460   18.2590 O.co2 150  ASP150     -0.2456
@<TRIPOS>BOND
     1    42    41    2
     2    64    65    1
     3    41    40    1
     4    39    40    1
     5    67    66    2
     6    37    36    2
     7    36    35    1
     8    34    35    1
     9    65    66    1
    10    65    68    1
    11    66    72   am
    12    40    43    1
    13    35    38    1
    14    69    68    1
    15    69    70    1
    16    72    73    1
    17    43    44    1
    18    73    76    1
    19    73    74    1
    20    50    51    2
    21    50    49    1
    22    71    70    1
    23    76    77    1
    24    81    74   am
    25    81    82    1
    26    74    75    2
    27    44    45    1
    28    85    82    1
    29    85    86    1
    30    29    28    1
    31    29    30    2
    32    48    49    1
    33    49    52    1
    34    28    27    1
    35    28    31    1
    36    45    46    1
    37    52    53    1
    38    53    54    1
    39    82    83    1
    40    86    87   ar
    41    86    88   ar
    42    87    89   ar
    43    77    78    1
    44    32    31    1
    45    88    90   ar
    46    60    59    2
    47    55    54   ar
    48     1     2    1
    49    59    58    1
    50    54    56   ar
    51    78    79   ar
    52    78    80   ar
    53    31    33    1
    54    89    91   ar
    55    90    91   ar
    56    62    61    1
    57    84    83    2
    58    83    93   am
    59     6     5    1
    60    46    47    1
    61    91    92    1
    62     7     5    1
    63     2     5    1
    64     2     3    1
    65    61    58    1
    66    61    63    1
    67    58    57    1
    68    93    94    1
    69    11    10    2
    70     8     3   am
    71     8     9    1
    72   103   104    1
    73   103   102    1
    74     3     4    2
    75   104   105   ar
    76   104   106   ar
    77    10     9    1
    78    10    12   am
    79    94    95    1
    80    94    97    1
    81    19    18    1
    82    19    20    2
    83    17    18    1
    84    17    16    1
    85    22    20    1
    86    95    98   am
    87    95    96    2
    88    13    12    1
    89    13    16    1
    90    13    14    1
    91    23    24    1
    92    23    14   am
    93    98    99    1
    94    20    21    1
    95   102    99    1
    96    99   100    1
    97   152   151   ar
    98    24    25    1
    99    14    15    2
   100   138   137    1
   101   146   147    1
   102   146   142   am
   103   144   141    1
   104   144   145    1
   105   147   148    1
   106   147   150    1
   107   148   149    2
   108   141   142    1
   109   141   140    1
   110    25    26    2
   111   151   150    1
   112   151   153   ar
   113   142   143    2
   114   100   101    2
   115   137   139    1
   116   137   136    1
   117   136   133    1
   118   107   108    1
   119   108   109    1
   120   133   134    1
   121   133   132    1
   122   109   110    2
   123   109   111   am
   124   134   135    2
   125   111   112    1
   126   128   127    2
   127   112   115    1
   128   112   113    1
   129   115   116    1
   130   127   126    1
   131   123   122    2
   132   113   114    2
   133   126   129    1
   134   126   125    1
   135   122   121    1
   136   122   124   am
   137   129   130    1
   138   121   118    1
   139   125   131    1
   140   130   131    1
   141   118   117    1
   142   118   119    1
   143   119   120    2
