@<TRIPOS>MOLECULE
tmp/5jgoA00.pdb
 143 133 0 0 0
SMALL
GASTEIGER

@<TRIPOS>ATOM
      1  N          9.2050    7.5510   16.1260 N.3    59  LEU59      -0.1245
      2  CA         9.2380    8.6090   17.1290 C.3    59  LEU59       0.1561
      3  C          7.9700    9.4530   17.0390 C.2    59  LEU59       0.2260
      4  O          7.5020    9.7610   15.9380 O.2    59  LEU59      -0.2867
      5  CB        10.4760    9.4970   16.9360 C.3    59  LEU59       0.0270
      6  CG        10.6640   10.6430   17.9420 C.3    59  LEU59       0.0019
      7  CD1       12.1440   10.8550   18.2600 C.3    59  LEU59       0.0001
      8  CD2       10.0340   11.9260   17.4440 C.3    59  LEU59       0.0001
      9  N          9.4740   11.9680   22.3260 N.3    93  ASP93      -0.1225
     10  CA        10.3460   12.9800   22.9040 C.3    93  ASP93       0.1805
     11  C          9.6440   13.6690   24.0810 C.2    93  ASP93       0.2598
     12  O          8.4550   13.4560   24.3500 O.2    93  ASP93      -0.2718
     13  CB        10.8520   13.9450   21.8290 C.3    93  ASP93       0.1424
     14  CG         9.7340   14.6690   21.1070 C.2    93  ASP93       0.3668
     15  OD1        8.6780   14.9350   21.7150 O.co2  93  ASP93      -0.2456
     16  OD2        9.9260   14.9950   19.9150 O.co2  93  ASP93      -0.2456
     17  N         10.3970   14.4890   24.8120 N.am   94  SER94      -0.1938
     18  CA         9.8690   15.0390   26.0530 C.3    94  SER94       0.2055
     19  C          9.1520   16.3640   25.8580 C.2    94  SER94       0.2643
     20  O          8.4040   16.7840   26.7480 O.2    94  SER94      -0.2714
     21  CB        10.9970   15.2470   27.0670 C.3    94  SER94       0.2130
     22  OG        11.8320   16.3340   26.6970 O.3    94  SER94      -0.2179
     23  N          9.3570   17.0240   24.7200 N.am   95  GLY95      -0.1954
     24  CA         8.8740   18.3630   24.5040 C.3    95  GLY95       0.1869
     25  C          9.8650   19.4530   24.8490 C.2    95  GLY95       0.2309
     26  O          9.6670   20.5980   24.4330 O.2    95  GLY95      -0.2863
     27  N         12.8060   20.2410   23.8540 N.3    97  TYR97      -0.1241
     28  CA        13.5070   20.8430   22.7280 C.3    97  TYR97       0.1605
     29  C         12.5470   21.6110   21.8310 C.2    97  TYR97       0.2264
     30  O         12.7890   22.7800   21.5150 O.2    97  TYR97      -0.2867
     31  CB        14.2300   19.7460   21.9400 C.3    97  TYR97       0.0534
     32  CG        14.8870   20.1730   20.6440 C.ar   97  TYR97      -0.0201
     33  CD1       16.1850   20.6640   20.6280 C.ar   97  TYR97      -0.0009
     34  CD2       14.2310   20.0240   19.4290 C.ar   97  TYR97      -0.0009
     35  CE1       16.8060   21.0260   19.4420 C.ar   97  TYR97       0.0417
     36  CE2       14.8420   20.3930   18.2340 C.ar   97  TYR97       0.0417
     37  CZ        16.1270   20.8920   18.2500 C.ar   97  TYR97       0.1957
     38  OH        16.7340   21.2510   17.0670 O.3    97  TYR97      -0.2866
     39  N         11.0880    9.7540   27.2070 N.3   141  MET141     -0.1245
     40  CA        12.2950   10.5640   27.3560 C.3   141  MET141      0.1570
     41  C         12.1500   11.5340   28.5240 C.2   141  MET141      0.2261
     42  O         11.1180   12.2030   28.6630 O.2   141  MET141     -0.2867
     43  CB        12.5910   11.3580   26.0810 C.3   141  MET141      0.0387
     44  CG        12.8620   10.4910   24.8560 C.3   141  MET141      0.0595
     45  SD        14.2160    9.2870   25.0540 S.3   141  MET141     -0.1393
     46  CE        15.5970   10.3430   25.4890 C.3   141  MET141      0.0692
     47  N         14.1470   17.6580   29.4480 N.3   144  ASP144     -0.1239
     48  CA        15.4670   18.2670   29.5230 C.3   144  ASP144      0.1674
     49  C         15.4400   19.6600   28.9030 C.2   144  ASP144      0.2266
     50  O         14.4030   20.1510   28.4490 O.2   144  ASP144     -0.2867
     51  CB        16.5270   17.4000   28.8220 C.3   144  ASP144      0.1410
     52  CG        16.3460   17.3490   27.3090 C.2   144  ASP144      0.3668
     53  OD1       15.1980   17.4570   26.8270 O.co2 144  ASP144     -0.2456
     54  OD2       17.3620   17.1900   26.6000 O.co2 144  ASP144     -0.2456
     55  N         17.8010   21.6420   25.9830 N.3   146  CYS146     -0.1235
     56  CA        18.8690   21.5790   24.9900 C.3   146  CYS146      0.1677
     57  C         19.5800   22.9250   24.9620 C.2   146  CYS146      0.2270
     58  O         19.0480   23.9040   24.4270 O.2   146  CYS146     -0.2867
     59  CB        18.3100   21.2460   23.6120 C.3   146  CYS146      0.0956
     60  SG        19.5820   21.1760   22.3310 S.3   146  CYS146     -0.0801
     61  N         18.8640   11.9910   29.4170 N.3   189  ILE189     -0.1245
     62  CA        19.5240   12.7600   28.3620 C.3   189  ILE189      0.1561
     63  C         20.7220   13.5130   28.9370 C.2   189  ILE189      0.2260
     64  O         20.5610   14.4010   29.7860 O.2   189  ILE189     -0.2867
     65  CB        18.5660   13.7240   27.6460 C.3   189  ILE189      0.0252
     66  CG1       17.3220   12.9830   27.1470 C.3   189  ILE189      0.0019
     67  CG2       19.3110   14.4260   26.4960 C.3   189  ILE189      0.0019
     68  CD1       16.2620   13.9140   26.5700 C.3   189  ILE189      0.0001
     69  N         23.5990   16.2670   28.9460 N.3   191  GLN191     -0.1245
     70  CA        23.8490   17.6160   28.4480 C.3   191  GLN191      0.1566
     71  C         25.2980   18.0010   28.7720 C.2   191  GLN191      0.2260
     72  O         26.1210   17.1470   29.1080 O.2   191  GLN191     -0.2867
     73  CB        22.7880   18.5940   28.9710 C.3   191  GLN191      0.0367
     74  CG        21.3630   18.2720   28.4730 C.3   191  GLN191      0.0905
     75  CD        21.1460   18.5550   26.9840 C.2   191  GLN191      0.2608
     76  OE1       21.9270   19.2720   26.3400 O.2   191  GLN191     -0.2717
     77  NE2       20.0770   17.9840   26.4310 N.am  191  GLN191     -0.0878
     78  N         22.3210   14.3660   24.3810 N.3   217  GLY217     -0.1210
     79  CA        21.5940   15.5420   23.9620 C.3   217  GLY217      0.1956
     80  C         22.5250   16.6920   23.6360 C.2   217  GLY217      0.2612
     81  O         23.7420   16.6130   23.7970 O.2   217  GLY217     -0.2717
     82  N         21.9290   17.7770   23.1550 N.am  218  GLY218     -0.1942
     83  CA        22.6740   19.0090   22.9680 C.3   218  GLY218      0.2014
     84  C         23.5630   19.0800   21.7460 C.2   218  GLY218      0.2639
     85  O         24.3380   20.0390   21.6230 O.2   218  GLY218     -0.2714
     86  N         23.4760   18.1130   20.8370 N.am  219  LEU219     -0.1963
     87  CA        24.2570   18.1180   19.6100 C.3   219  LEU219      0.1728
     88  C         23.3240   18.3050   18.4150 C.2   219  LEU219      0.2616
     89  O         22.0990   18.3770   18.5550 O.2   219  LEU219     -0.2715
     90  CB        25.0950   16.8410   19.5120 C.3   219  LEU219      0.0311
     91  CG        26.1460   16.6770   20.6260 C.3   219  LEU219      0.0022
     92  CD1       26.9040   15.3740   20.4330 C.3   219  LEU219      0.0001
     93  CD2       27.1150   17.8670   20.6770 C.3   219  LEU219      0.0001
     94  N         23.9180   18.4000   17.2250 N.am  220  ALA220     -0.1963
     95  CA        23.1740   18.7360   16.0080 C.3   220  ALA220      0.1728
     96  C         22.3680   20.0240   16.1920 C.2   220  ALA220      0.2616
     97  O         21.1890   20.1160   15.8380 O.2   220  ALA220     -0.2715
     98  CB        22.3010   17.5680   15.5370 C.3   220  ALA220      0.0334
     99  N         23.0280   21.0320   16.7600 N.am  221  VAL221     -0.1977
    100  CA        22.4090   22.3290   17.0210 C.3   221  VAL221      0.1596
    101  C         23.2470   23.4440   16.4090 C.2   221  VAL221      0.2287
    102  O         23.1850   24.5990   16.8500 O.2   221  VAL221     -0.2864
    103  CB        22.1920   22.5590   18.5270 C.3   221  VAL221      0.0276
    104  CG1       21.0730   21.6690   19.0420 C.3   221  VAL221      0.0022
    105  CG2       23.4790   22.2900   19.2820 C.3   221  VAL221      0.0022
    106  N         21.6320    6.8160   22.5570 N.3   246  TYR246     -0.1241
    107  CA        20.7080    7.4070   21.5910 C.3   246  TYR246      0.1605
    108  C         21.1960    8.8060   21.2300 C.2   246  TYR246      0.2264
    109  O         21.4080    9.6380   22.1140 O.2   246  TYR246     -0.2867
    110  CB        19.3100    7.4390   22.2200 C.3   246  TYR246      0.0534
    111  CG        18.2020    8.1860   21.5000 C.ar  246  TYR246     -0.0201
    112  CD1       18.2210    8.4100   20.1150 C.ar  246  TYR246     -0.0009
    113  CD2       17.1160    8.6720   22.2300 C.ar  246  TYR246     -0.0009
    114  CE1       17.1890    9.0950   19.4960 C.ar  246  TYR246      0.0417
    115  CE2       16.0890    9.3600   21.6240 C.ar  246  TYR246      0.0417
    116  CZ        16.1240    9.5770   20.2610 C.ar  246  TYR246      0.1957
    117  OH        15.0750   10.2670   19.6880 O.3   246  TYR246     -0.2866
    118  N         19.8380   11.8960   19.4090 N.3   248  MET248     -0.1230
    119  CA        18.6140   12.3920   18.7830 C.3   248  MET248      0.1702
    120  C         18.8960   13.4900   17.7610 C.2   248  MET248      0.2592
    121  O         19.8340   14.2840   17.8950 O.2   248  MET248     -0.2718
    122  CB        17.6050   12.9030   19.8050 C.3   248  MET248      0.0401
    123  CG        18.0760   14.1240   20.5510 C.3   248  MET248      0.0596
    124  SD        19.0070   13.7530   22.0290 S.3   248  MET248     -0.1393
    125  CE        17.6130   13.3080   23.0870 C.3   248  MET248      0.0692
    126  N         18.0410   13.5410   16.7430 N.am  249  GLY249     -0.1957
    127  CA        18.1080   14.5640   15.7230 C.3   249  GLY249      0.1869
    128  C         19.1950   14.3750   14.6880 C.2   249  GLY249      0.2309
    129  O         19.4840   15.3170   13.9480 O.2   249  GLY249     -0.2863
    130  N         17.1530    9.3030   15.3060 N.3   268  ASP268     -0.1225
    131  CA        15.9480    9.7760   14.6300 C.3   268  ASP268      0.1805
    132  C         16.2910   11.0770   13.9230 C.2   268  ASP268      0.2598
    133  O         17.1790   11.8110   14.3580 O.2   268  ASP268     -0.2718
    134  CB        14.8270   10.1070   15.6200 C.3   268  ASP268      0.1424
    135  CG        15.1160   11.3760   16.4140 C.2   268  ASP268      0.3668
    136  OD1       15.8590   11.3030   17.4070 O.co2 268  ASP268     -0.2456
    137  OD2       14.6360   12.4590   16.0330 O.co2 268  ASP268     -0.2456
    138  N         15.5550   11.3700   12.8480 N.am  269  CYS269     -0.1970
    139  CA        15.7930   12.5980   12.1010 C.3   269  CYS269      0.1712
    140  C         14.6710   12.8110   11.0940 C.2   269  CYS269      0.2296
    141  O         14.1890   11.8480   10.4850 O.2   269  CYS269     -0.2864
    142  CB        17.1320   12.5090   11.3600 C.3   269  CYS269      0.0983
    143  SG        17.7280   14.0710   10.7340 S.3   269  CYS269     -0.0798
@<TRIPOS>BOND
     1   141   140    2
     2   143   142    1
     3   140   139    1
     4   142   139    1
     5   139   138    1
     6   138   132   am
     7   132   133    2
     8   132   131    1
     9   129   128    2
    10   131   130    1
    11   131   134    1
    12   128   127    1
    13    98    95    1
    14   134   135    1
    15   127   126    1
    16    97    96    2
    17     4     3    2
    18    95    96    1
    19    95    94    1
    20   137   135   ar
    21     1     2    1
    22    96    99   am
    23   101   102    2
    24   101   100    1
    25   135   136   ar
    26   126   120   am
    27    99   100    1
    28     5     2    1
    29     5     6    1
    30   100   103    1
    31     3     2    1
    32    38    37    1
    33    94    88   am
    34     8     6    1
    35   120   121    2
    36   120   119    1
    37     6     7    1
    38    36    37   ar
    39    36    34   ar
    40    37    35   ar
    41    88    89    2
    42    88    87    1
    43   103   104    1
    44   103   105    1
    45   119   118    1
    46   119   122    1
    47    34    32   ar
    48    35    33   ar
    49   114   112   ar
    50   114   116   ar
    51    90    87    1
    52    90    91    1
    53    87    86    1
    54   117   116    1
    55   122   123    1
    56    16    14   ar
    57   112   111   ar
    58   116   115   ar
    59    92    91    1
    60   123   124    1
    61    91    93    1
    62    33    32   ar
    63    32    31    1
    64    86    84   am
    65    14    15   ar
    66    14    13    1
    67   108   107    1
    68   108   109    2
    69   111   110    1
    70   111   113   ar
    71    30    29    2
    72   107   110    1
    73   107   106    1
    74    85    84    2
    75   115   113   ar
    76    84    83    1
    77    13    10    1
    78    29    28    1
    79    31    28    1
    80   124   125    1
    81     9    10    1
    82    60    59    1
    83    28    27    1
    84    10    11    1
    85    83    82    1
    86    82    80   am
    87    59    56    1
    88    80    81    2
    89    80    79    1
    90    79    78    1
    91    11    12    2
    92    11    17   am
    93    58    57    2
    94    26    25    2
    95    24    23    1
    96    24    25    1
    97    23    19   am
    98    17    18    1
    99    44    45    1
   100    44    43    1
   101    57    56    1
   102    56    55    1
   103    45    46    1
   104    19    18    1
   105    19    20    2
   106    18    21    1
   107    43    40    1
   108    76    75    2
   109    77    75   am
   110    67    65    1
   111    68    66    1
   112    54    52   ar
   113    22    21    1
   114    53    52   ar
   115    75    74    1
   116    66    65    1
   117    39    40    1
   118    52    51    1
   119    40    41    1
   120    65    62    1
   121    62    63    1
   122    62    61    1
   123    70    71    1
   124    70    69    1
   125    70    73    1
   126    50    49    2
   127    74    73    1
   128    41    42    2
   129    71    72    2
   130    51    48    1
   131    49    48    1
   132    63    64    2
   133    47    48    1
