@<TRIPOS>MOLECULE
tmp/5jgvA00.pdb
 87 82 0 0 0
SMALL
GASTEIGER

@<TRIPOS>ATOM
      1  N        -18.8240   14.7320   15.4310 N.3    30  GLY30      -0.1210
      2  CA       -19.9430   15.3090   14.7120 C.3    30  GLY30       0.1956
      3  C        -21.1910   15.5310   15.5440 C.2    30  GLY30       0.2612
      4  O        -22.3010   15.5030   14.9970 O.2    30  GLY30      -0.2717
      5  N        -21.0450   15.7800   16.8430 N.am   31  HIS31      -0.1961
      6  CA       -22.2060   16.0710   17.6840 C.3    31  HIS31       0.1787
      7  C        -22.5790   17.5380   17.5540 C.2    31  HIS31       0.2620
      8  O        -21.9340   18.4080   18.1400 O.2    31  HIS31      -0.2715
      9  CB       -21.9500   15.7420   19.1490 C.3    31  HIS31       0.0785
     10  CG       -23.1250   16.0820   20.0180 C.ar   31  HIS31       0.0821
     11  ND1      -24.2400   15.2760   20.0930 N.ar   31  HIS31      -0.2267
     12  CD2      -23.3910   17.1660   20.7850 C.ar   31  HIS31       0.1154
     13  CE1      -25.1330   15.8360   20.8930 C.ar   31  HIS31       0.1986
     14  NE2      -24.6440   16.9840   21.3250 N.ar   31  HIS31      -0.2212
     15  N        -23.6460   17.8150   16.8120 N.am   32  LEU32      -0.1977
     16  CA       -24.0970   19.1880   16.6480 C.3    32  LEU32       0.1596
     17  C        -24.6310   19.7130   17.9700 C.2    32  LEU32       0.2287
     18  O        -25.4630   19.0600   18.6130 O.2    32  LEU32      -0.2864
     19  CB       -25.1780   19.2530   15.5760 C.3    32  LEU32       0.0297
     20  CG       -25.9110   20.5820   15.3930 C.3    32  LEU32       0.0022
     21  CD1      -24.9630   21.6130   14.8210 C.3    32  LEU32       0.0001
     22  CD2      -27.1280   20.4030   14.4850 C.3    32  LEU32       0.0001
     23  N        -26.0750    9.6020   19.6150 N.3    70  ASP70      -0.1239
     24  CA       -26.4370   10.2310   18.3550 C.3    70  ASP70       0.1674
     25  C        -26.7580    9.1890   17.2930 C.2    70  ASP70       0.2266
     26  O        -27.6660    9.3950   16.4780 O.2    70  ASP70      -0.2867
     27  CB       -25.3090   11.1550   17.8890 C.3    70  ASP70       0.1410
     28  CG       -25.1630   12.3840   18.7640 C.2    70  ASP70       0.3668
     29  OD1      -26.1100   12.7030   19.5130 O.co2  70  ASP70      -0.2456
     30  OD2      -24.1040   13.0430   18.6930 O.co2  70  ASP70      -0.2456
     31  N        -30.1460    8.0680   18.1150 N.3    73  CYS73      -0.1221
     32  CA       -31.1290    9.0670   17.6990 C.3    73  CYS73       0.1808
     33  C        -31.3970    8.9840   16.2020 C.2    73  CYS73       0.2601
     34  O        -32.5450    9.1350   15.7560 O.2    73  CYS73      -0.2717
     35  CB       -30.6590   10.4750   18.0660 C.3    73  CYS73       0.0970
     36  SG       -30.7320   10.8650   19.8340 S.3    73  CYS73      -0.0800
     37  N        -30.3440    8.7860   15.4070 N.am   74  ALA74      -0.1979
     38  CA       -30.5190    8.6850   13.9620 C.3    74  ALA74       0.1597
     39  C        -31.3840    7.4840   13.5990 C.2    74  ALA74       0.2287
     40  O        -32.2830    7.5880   12.7560 O.2    74  ALA74      -0.2864
     41  CB       -29.1560    8.6000   13.2670 C.3    74  ALA74       0.0319
     42  N        -34.9410    8.2130   14.5160 N.3    77  GLY77      -0.1225
     43  CA       -35.5610    9.1150   13.5570 C.3    77  GLY77       0.1811
     44  C        -36.0490    8.3920   12.3170 C.2    77  GLY77       0.2280
     45  O        -37.1310    8.6810   11.8000 O.2    77  GLY77      -0.2866
     46  N        -39.2220    6.0530   13.2830 N.3    80  ARG80      -0.1245
     47  CA       -40.4670    6.7510   13.5890 C.3    80  ARG80       0.1563
     48  C        -41.0410    7.5060   12.3960 C.2    80  ARG80       0.2260
     49  O        -42.1430    8.0600   12.5000 O.2    80  ARG80      -0.2867
     50  CB       -40.2640    7.7370   14.7520 C.3    80  ARG80       0.0307
     51  CG       -39.5130    9.0030   14.3560 C.3    80  ARG80       0.0489
     52  CD       -39.5110   10.0880   15.4520 C.3    80  ARG80       0.2205
     53  NE       -38.5400   11.1300   15.1230 N.pl3  80  ARG80      -0.0865
     54  CZ       -37.3510   11.2600   15.7090 C.cat  80  ARG80       0.5346
     55  NH1      -36.9930   10.4360   16.6860 N.pl3  80  ARG80       0.1354
     56  NH2      -36.5210   12.2240   15.3260 N.pl3  80  ARG80       0.1354
     57  N        -29.0230   10.5180    7.8640 N.3   103  VAL103     -0.1231
     58  CA       -29.8780   11.1030    8.8930 C.3   103  VAL103      0.1692
     59  C        -29.0280   11.7160   10.0020 C.2   103  VAL103      0.2592
     60  O        -29.4110   12.7310   10.5940 O.2   103  VAL103     -0.2718
     61  CB       -30.8510   10.0390    9.4300 C.3   103  VAL103      0.0266
     62  CG1      -31.6050   10.5560   10.6520 C.3   103  VAL103      0.0020
     63  CG2      -31.8390    9.6320    8.3340 C.3   103  VAL103      0.0020
     64  N        -27.8710   11.1130   10.3060 N.am  104  PHE104     -0.1976
     65  CA       -26.9530   11.7000   11.2880 C.3   104  PHE104      0.1639
     66  C        -26.5070   13.0910   10.8520 C.2   104  PHE104      0.2290
     67  O        -26.4560   14.0250   11.6660 O.2   104  PHE104     -0.2864
     68  CB       -25.7510   10.7670   11.4660 C.3   104  PHE104      0.0560
     69  CG       -24.8040   11.1380   12.5840 C.ar  104  PHE104     -0.0200
     70  CD1      -23.8550   12.1470   12.4180 C.ar  104  PHE104     -0.0042
     71  CD2      -24.8050   10.4180   13.7760 C.ar  104  PHE104     -0.0042
     72  CE1      -22.9590   12.4550   13.4460 C.ar  104  PHE104     -0.0003
     73  CE2      -23.9150   10.7170   14.8000 C.ar  104  PHE104     -0.0003
     74  CZ       -22.9940   11.7310   14.6390 C.ar  104  PHE104     -0.0000
     75  N        -30.4270   15.0610    9.7180 N.3   107  GLY107     -0.1210
     76  CA       -31.6240   14.9240   10.5300 C.3   107  GLY107      0.1956
     77  C        -32.7600   14.2220    9.7990 C.2   107  GLY107      0.2611
     78  O        -32.8090   14.1600    8.5720 O.2   107  GLY107     -0.2717
     79  N        -33.7120   13.7050   10.5920 N.am  108  GLU108     -0.1979
     80  CA       -34.8450   12.9560   10.0460 C.3   108  GLU108      0.1602
     81  C        -35.6020   13.7570    8.9900 C.2   108  GLU108      0.2287
     82  O        -35.8940   13.2550    7.8990 O.2   108  GLU108     -0.2864
     83  CB       -35.7960   12.5520   11.1840 C.3   108  GLU108      0.0415
     84  CG       -37.1930   12.1960   10.7070 C.3   108  GLU108      0.1163
     85  CD       -38.2190   12.1270   11.8290 C.2   108  GLU108      0.3649
     86  OE1      -37.8350   12.1930   13.0180 O.co2 108  GLU108     -0.2457
     87  OE2      -39.4180   12.0100   11.5110 O.co2 108  GLU108     -0.2457
@<TRIPOS>BOND
     1    57    58    1
     2    82    81    2
     3    63    61    1
     4    78    77    2
     5    58    61    1
     6    58    59    1
     7    81    80    1
     8    61    62    1
     9    75    76    1
    10    77    76    1
    11    77    79   am
    12    59    64   am
    13    59    60    2
    14    80    79    1
    15    80    83    1
    16    64    65    1
    17    84    83    1
    18    84    85    1
    19    66    65    1
    20    66    67    2
    21    65    68    1
    22    68    69    1
    23    87    85   ar
    24    45    44    2
    25    85    86   ar
    26    44    43    1
    27    48    49    2
    28    48    47    1
    29    70    69   ar
    30    70    72   ar
    31    69    71   ar
    32    40    39    2
    33    41    38    1
    34    46    47    1
    35    72    74   ar
    36    43    42    1
    37    47    50    1
    38    39    38    1
    39    71    73   ar
    40    38    37    1
    41    51    50    1
    42    51    52    1
    43    22    20    1
    44    74    73   ar
    45     2     1    1
    46     2     3    1
    47    21    20    1
    48     4     3    2
    49    53    52    1
    50    53    54    2
    51    56    54    1
    52    20    19    1
    53    37    33   am
    54     3     5   am
    55    19    16    1
    56    54    55    1
    57    34    33    2
    58    33    32    1
    59    26    25    2
    60    16    15    1
    61    16    17    1
    62    15     7   am
    63     5     6    1
    64    25    24    1
    65     7     6    1
    66     7     8    2
    67     6     9    1
    68    32    35    1
    69    32    31    1
    70    27    24    1
    71    27    28    1
    72    17    18    2
    73    35    36    1
    74    24    23    1
    75    30    28   ar
    76    28    29   ar
    77     9    10    1
    78    10    11   ar
    79    10    12   ar
    80    11    13   ar
    81    12    14   ar
    82    13    14   ar
