@<TRIPOS>MOLECULE
tmp/5jgvA01.pdb
 92 89 0 0 0
SMALL
GASTEIGER

@<TRIPOS>ATOM
      1  N        -21.2110   23.4820    8.0640 N.3    22  GLU22      -0.1245
      2  CA       -22.2090   24.5270    7.8900 C.3    22  GLU22       0.1567
      3  C        -21.9560   25.7340    8.7810 C.2    22  GLU22       0.2260
      4  O        -22.7650   26.6710    8.7810 O.2    22  GLU22      -0.2867
      5  CB       -23.6110   23.9700    8.1730 C.3    22  GLU22       0.0388
      6  CG       -24.0540   22.9070    7.2020 C.3    22  GLU22       0.1160
      7  CD       -24.3620   23.4420    5.7980 C.2    22  GLU22       0.3649
      8  OE1      -24.5360   24.6700    5.6150 O.co2  22  GLU22      -0.2457
      9  OE2      -24.4360   22.6140    4.8660 O.co2  22  GLU22      -0.2457
     10  N        -26.1910   13.2470    9.5640 N.3   105  GLN105     -0.1231
     11  CA       -25.6800   14.5170    9.0500 C.3   105  GLN105      0.1698
     12  C        -26.7760   15.5600    8.8610 C.2   105  GLN105      0.2592
     13  O        -26.5440   16.7460    9.1250 O.2   105  GLN105     -0.2718
     14  CB       -24.9490   14.2960    7.7230 C.3   105  GLN105      0.0381
     15  CG       -24.4030   15.5940    7.1040 C.3   105  GLN105      0.0905
     16  CD       -23.7160   15.3600    5.7800 C.2   105  GLN105      0.2608
     17  OE1      -23.7630   14.2630    5.2280 O.2   105  GLN105     -0.2717
     18  NE2      -23.0770   16.3970    5.2510 N.am  105  GLN105     -0.0878
     19  N        -27.9680   15.1570    8.4060 N.am  106  MET106     -0.1979
     20  CA       -28.9990   16.1020    8.0040 C.3   106  MET106      0.1605
     21  C        -30.2720   16.0480    8.8390 C.2   106  MET106      0.2287
     22  O        -31.1310   16.9260    8.6700 O.2   106  MET106     -0.2864
     23  CB       -29.3670   15.8870    6.5250 C.3   106  MET106      0.0413
     24  CG       -28.2660   16.2720    5.5540 C.3   106  MET106      0.0598
     25  SD       -28.6970   15.8480    3.8560 S.3   106  MET106     -0.1393
     26  CE       -28.1180   14.1520    3.7520 C.3   106  MET106      0.0692
     27  N        -35.9510   15.0030    9.3070 N.3   109  THR109     -0.1203
     28  CA       -36.7790   15.7860    8.3920 C.3   109  THR109      0.1994
     29  C        -36.0800   16.0280    7.0620 C.2   109  THR109      0.2618
     30  O        -36.7030   15.9150    5.9970 O.2   109  THR109     -0.2717
     31  CB       -37.1580   17.1130    9.0420 C.3   109  THR109      0.1784
     32  OG1      -37.9920   16.8480   10.1740 O.3   109  THR109     -0.2211
     33  CG2      -37.8940   17.9940    8.0540 C.3   109  THR109      0.0376
     34  N        -34.7910   16.3730    7.1050 N.am  110  GLY110     -0.1956
     35  CA       -34.0470   16.6140    5.8770 C.3   110  GLY110      0.1869
     36  C        -34.0420   15.4140    4.9490 C.2   110  GLY110      0.2309
     37  O        -34.3370   15.5340    3.7610 O.2   110  GLY110     -0.2863
     38  N        -37.1750   14.3320    3.1380 N.3   113  GLY113     -0.1210
     39  CA       -37.4840   15.1410    1.9740 C.3   113  GLY113      0.1956
     40  C        -36.8970   14.6480    0.6680 C.2   113  GLY113      0.2611
     41  O        -37.2640   15.1690   -0.3900 O.2   113  GLY113     -0.2717
     42  N        -35.9900   13.6700    0.7190 N.am  114  PHE114     -0.1976
     43  CA       -35.4430   13.0530   -0.4860 C.3   114  PHE114      0.1639
     44  C        -36.4540   12.0510   -1.0490 C.2   114  PHE114      0.2290
     45  O        -36.1040   10.9030   -1.3190 O.2   114  PHE114     -0.2864
     46  CB       -34.1170   12.3380   -0.1880 C.3   114  PHE114      0.0560
     47  CG       -32.9180   13.2570   -0.0030 C.ar  114  PHE114     -0.0200
     48  CD1      -32.9060   14.2340    0.9720 C.ar  114  PHE114     -0.0042
     49  CD2      -31.7810   13.0930   -0.7850 C.ar  114  PHE114     -0.0042
     50  CE1      -31.7910   15.0450    1.1460 C.ar  114  PHE114     -0.0003
     51  CE2      -30.6670   13.8970   -0.6120 C.ar  114  PHE114     -0.0003
     52  CZ       -30.6750   14.8710    0.3560 C.ar  114  PHE114     -0.0000
     53  N        -28.4570   17.3210   -5.3470 N.3   136  SER136     -0.1202
     54  CA       -28.8830   17.7550   -4.0200 C.3   136  SER136      0.2020
     55  C        -27.9350   18.8240   -3.4830 C.2   136  SER136      0.2619
     56  O        -26.7500   18.8510   -3.8210 O.2   136  SER136     -0.2717
     57  CB       -28.9260   16.5680   -3.0430 C.3   136  SER136      0.2103
     58  OG       -27.6300   16.0070   -2.8920 O.3   136  SER136     -0.2182
     59  N        -28.4690   19.7030   -2.6280 N.am  137  ARG137     -0.1965
     60  CA       -27.5920   20.5960   -1.8810 C.3   137  ARG137      0.1729
     61  C        -26.5910   19.7860   -1.0740 C.2   137  ARG137      0.2616
     62  O        -25.4030   20.1180   -1.0300 O.2   137  ARG137     -0.2715
     63  CB       -28.4060   21.5160   -0.9590 C.3   137  ARG137      0.0348
     64  CG       -27.5220   22.4670   -0.1570 C.3   137  ARG137      0.0492
     65  CD       -28.2630   23.4090    0.7860 C.3   137  ARG137      0.2205
     66  NE       -27.3150   24.3920    1.3170 N.pl3 137  ARG137     -0.0865
     67  CZ       -26.5160   24.1860    2.3580 C.cat 137  ARG137      0.5346
     68  NH1      -26.5410   23.0240    3.0070 N.pl3 137  ARG137      0.1354
     69  NH2      -25.6820   25.1500    2.7500 N.pl3 137  ARG137      0.1354
     70  N        -27.0540   18.6870   -0.4730 N.am  138  TRP138     -0.1974
     71  CA       -26.1840   17.8010    0.2960 C.3   138  TRP138      0.1640
     72  C        -24.9280   17.4390   -0.4820 C.2   138  TRP138      0.2290
     73  O        -23.8010   17.6280   -0.0040 O.2   138  TRP138     -0.2864
     74  CB       -26.9600   16.5350    0.6620 C.3   138  TRP138      0.0576
     75  CG       -26.1380   15.4010    1.2360 C.ar  138  TRP138      0.0006
     76  CD1      -25.3580   15.4360    2.3610 C.ar  138  TRP138      0.0946
     77  CD2      -26.0690   14.0490    0.7460 C.ar  138  TRP138      0.0152
     78  NE1      -24.8060   14.2000    2.5960 N.ar  138  TRP138     -0.2442
     79  CE2      -25.2320   13.3300    1.6240 C.ar  138  TRP138      0.0810
     80  CE3      -26.6370   13.3810   -0.3450 C.ar  138  TRP138      0.0012
     81  CZ2      -24.9410   11.9780    1.4400 C.ar  138  TRP138      0.0191
     82  CZ3      -26.3440   12.0320   -0.5260 C.ar  138  TRP138      0.0001
     83  CH2      -25.5080   11.3490    0.3620 C.ar  138  TRP138      0.0015
     84  N        -22.6410   20.5260   -1.3000 N.3   141  GLN141     -0.1245
     85  CA       -21.9250   21.1450   -0.1800 C.3   141  GLN141      0.1566
     86  C        -20.8840   20.2160    0.4440 C.2   141  GLN141      0.2260
     87  O        -19.8480   20.6920    0.9340 O.2   141  GLN141     -0.2867
     88  CB       -22.9120   21.6100    0.9030 C.3   141  GLN141      0.0367
     89  CG       -23.9280   22.6620    0.4590 C.3   141  GLN141      0.0905
     90  CD       -23.2850   23.9060   -0.1200 C.2   141  GLN141      0.2608
     91  OE1      -22.3300   24.4550    0.4460 O.2   141  GLN141     -0.2717
     92  NE2      -23.7990   24.3530   -1.2600 N.am  141  GLN141     -0.0878
@<TRIPOS>BOND
     1    53    54    1
     2    54    55    1
     3    54    57    1
     4    56    55    2
     5    55    59   am
     6    57    58    1
     7    59    60    1
     8    60    61    1
     9    60    63    1
    10    45    44    2
    11    84    85    1
    12    92    90   am
    13    61    62    2
    14    61    70   am
    15    44    43    1
    16    63    64    1
    17    49    51   ar
    18    49    47   ar
    19    51    52   ar
    20    82    80   ar
    21    82    83   ar
    22    43    46    1
    23    43    42    1
    24    72    73    2
    25    72    71    1
    26    70    71    1
    27    41    40    2
    28    80    77   ar
    29    46    47    1
    30    85    86    1
    31    85    88    1
    32    64    65    1
    33    90    91    2
    34    90    89    1
    35    47    48   ar
    36    71    74    1
    37    52    50   ar
    38    83    81   ar
    39    86    87    2
    40    89    88    1
    41    74    75    1
    42    40    42   am
    43    40    39    1
    44    77    75   ar
    45    77    79   ar
    46    65    66    1
    47    48    50   ar
    48    75    76   ar
    49    66    67    2
    50    81    79   ar
    51    79    78   ar
    52    39    38    1
    53    67    69    1
    54    67    68    1
    55    76    78   ar
    56    26    25    1
    57    37    36    2
    58    25    24    1
    59     9     7   ar
    60    36    35    1
    61    17    16    2
    62    18    16   am
    63    24    23    1
    64     8     7   ar
    65    16    15    1
    66     7     6    1
    67    35    34    1
    68    30    29    2
    69    23    20    1
    70    29    34   am
    71    29    28    1
    72    15    14    1
    73     6     5    1
    74    14    11    1
    75     2     1    1
    76     2     5    1
    77     2     3    1
    78    20    19    1
    79    20    21    1
    80    33    31    1
    81    28    31    1
    82    28    27    1
    83    19    12   am
    84    22    21    2
    85     4     3    2
    86    12    11    1
    87    12    13    2
    88    31    32    1
    89    11    10    1
