@<TRIPOS>MOLECULE
tmp/5jh2A00.pdb
 110 105 0 0 0
SMALL
GASTEIGER

@<TRIPOS>ATOM
      1  N         -0.1700   22.9820   17.3590 N.3   185  SER185     -0.1203
      2  CA        -1.5230   22.4300   17.5110 C.3   185  SER185      0.2005
      3  C         -1.8940   21.4690   16.3900 C.2   185  SER185      0.2461
      4  O         -2.9010   21.6470   15.7570 O.2   185  SER185     -0.2732
      5  CB        -2.5890   23.5780   17.5950 C.3   185  SER185      0.2103
      6  OG        -2.2880   24.3640   18.7510 O.3   185  SER185     -0.2182
      7  N         -1.1130   20.3850   16.1990 N.am  186  PRO186     -0.2717
      8  CA        -1.3020   19.5290   14.9850 C.3   186  PRO186      0.1535
      9  C         -2.4880   18.5650   15.1820 C.2   186  PRO186      0.2598
     10  O         -2.9120   17.9390   14.2590 O.2   186  PRO186     -0.2715
     11  CB        -0.0070   18.7370   14.9220 C.3   186  PRO186      0.0310
     12  CG         0.4200   18.6570   16.3370 C.3   186  PRO186      0.0237
     13  CD         0.0850   19.9740   16.9600 C.3   186  PRO186      0.0939
     14  N         -3.0400   18.5290   16.3980 N.am  187  LEU187     -0.1964
     15  CA        -4.3110   17.8390   16.6790 C.3   187  LEU187      0.1728
     16  C         -5.5460   18.7850   16.7940 C.2   187  LEU187      0.2616
     17  O         -6.6570   18.3150   17.1600 O.2   187  LEU187     -0.2715
     18  CB        -4.1230   16.9590   17.9390 C.3   187  LEU187      0.0311
     19  CG        -2.9230   16.0330   17.9580 C.3   187  LEU187      0.0022
     20  CD1       -2.8860   15.1560   19.2070 C.3   187  LEU187      0.0001
     21  CD2       -2.8690   15.1790   16.6930 C.3   187  LEU187      0.0001
     22  N         -5.3770   20.0560   16.4490 N.am  188  GLY188     -0.1955
     23  CA        -6.4840   21.0560   16.4540 C.3   188  GLY188      0.1869
     24  C         -6.7450   21.7030   17.8090 C.2   188  GLY188      0.2309
     25  O         -5.8380   21.6200   18.6480 O.2   188  GLY188     -0.2863
     26  N        -10.0470   15.3530   15.6410 N.3   191  LEU191     -0.1245
     27  CA        -9.9550   13.9030   15.8640 C.3   191  LEU191      0.1561
     28  C        -11.3140   13.1960   15.7570 C.2   191  LEU191      0.2260
     29  O        -11.3300   11.9900   15.5590 O.2   191  LEU191     -0.2867
     30  CB        -9.3070   13.5690   17.2200 C.3   191  LEU191      0.0270
     31  CG        -7.8750   14.1660   17.3860 C.3   191  LEU191      0.0019
     32  CD1       -7.2410   13.5900   18.6130 C.3   191  LEU191      0.0001
     33  CD2       -7.0260   13.9360   16.1550 C.3   191  LEU191      0.0001
     34  N         -4.5320    5.1690   15.3770 N.3   206  THR206     -0.1218
     35  CA        -5.4470    6.0990   16.0230 C.3   206  THR206      0.1862
     36  C         -5.7110    7.3480   15.1940 C.2   206  THR206      0.2287
     37  O         -4.9610    7.6180   14.2490 O.2   206  THR206     -0.2866
     38  CB        -4.9030    6.5350   17.3810 C.3   206  THR206      0.1770
     39  OG1       -3.7560    7.4010   17.1730 O.3   206  THR206     -0.2211
     40  CG2       -4.5570    5.2960   18.2280 C.3   206  THR206      0.0375
     41  N         -5.2980   10.4400   16.1910 N.3   208  ALA208     -0.1245
     42  CA        -4.1450   11.3090   16.3320 C.3   208  ALA208      0.1562
     43  C         -2.9940   10.8890   15.4390 C.2   208  ALA208      0.2260
     44  O         -2.3380   11.7600   14.8460 O.2   208  ALA208     -0.2867
     45  CB        -3.6920   11.3560   17.7630 C.3   208  ALA208      0.0290
     46  N          3.0190   17.8240   18.6230 N.3   224  PRO224     -0.2102
     47  CA         1.9160   17.4120   19.5060 C.3   224  PRO224      0.1504
     48  C          2.2580   17.6520   21.0070 C.2   224  PRO224      0.2576
     49  O          3.4010   17.4990   21.3950 O.2   224  PRO224     -0.2718
     50  CB         1.7730   15.8900   19.1830 C.3   224  PRO224      0.0282
     51  CG         3.1010   15.4630   18.7200 C.3   224  PRO224      0.0208
     52  CD         3.6920   16.6830   18.0020 C.3   224  PRO224      0.0893
     53  N          1.2640   18.0260   21.8190 N.am  225  LYS225     -0.1966
     54  CA         1.4400   18.2460   23.2630 C.3   225  LYS225      0.1728
     55  C          0.5790   17.1930   24.0050 C.2   225  LYS225      0.2617
     56  O         -0.5920   16.9690   23.6050 O.2   225  LYS225     -0.2715
     57  CB         0.8340   19.6340   23.6020 C.3   225  LYS225      0.0311
     58  CG         1.5980   20.7680   23.0090 C.3   225  LYS225      0.0038
     59  CD         1.1370   22.1100   23.4500 C.3   225  LYS225      0.0206
     60  CE        -0.2420   22.4910   22.9950 C.3   225  LYS225      0.1093
     61  NZ        -0.3220   22.6350   21.5200 N.3   225  LYS225     -0.1314
     62  N          1.1390   16.5780   25.0460 N.am  226  SER226     -0.1936
     63  CA         0.3850   15.6210   25.8840 C.3   226  SER226      0.2055
     64  C          1.0410   15.5880   27.2660 C.2   226  SER226      0.2644
     65  O          2.2660   15.7150   27.3880 O.2   226  SER226     -0.2714
     66  CB         0.3460   14.2170   25.2850 C.3   226  SER226      0.2130
     67  OG        -0.4510   13.3270   26.0380 O.3   226  SER226     -0.2179
     68  N          0.2090   15.4290   28.2890 N.am  227  THR227     -0.1936
     69  CA         0.7150   15.0930   29.6330 C.3   227  THR227      0.2028
     70  C          0.5610   13.5750   29.9170 C.2   227  THR227      0.2642
     71  O          0.9330   13.1110   31.0010 O.2   227  THR227     -0.2714
     72  CB        -0.0290   15.8920   30.7200 C.3   227  THR227      0.1808
     73  OG1       -1.4180   15.6860   30.5910 O.3   227  THR227     -0.2208
     74  CG2        0.1790   17.3760   30.5620 C.3   227  THR227      0.0379
     75  N          0.0130   12.8160   28.9720 N.am  228  ASN228     -0.1971
     76  CA        -0.1720   11.4110   29.1430 C.3   228  ASN228      0.1688
     77  C          0.9910   10.6760   28.5900 C.2   228  ASN228      0.2292
     78  O          1.2620   10.7750   27.3860 O.2   228  ASN228     -0.2864
     79  CB        -1.4740   10.9600   28.4260 C.3   228  ASN228      0.1181
     80  CG        -1.7450    9.5060   28.5860 C.2   228  ASN228      0.2629
     81  OD1       -1.1820    8.6510   27.9160 O.2   228  ASN228     -0.2716
     82  ND2       -2.5630    9.1950   29.5720 N.am  228  ASN228     -0.0877
     83  N          0.1020    8.5420   25.3860 N.3   231  ARG231     -0.1245
     84  CA        -0.1400    9.3820   24.1960 C.3   231  ARG231      0.1563
     85  C          1.1650   10.0450   23.7640 C.2   231  ARG231      0.2260
     86  O          1.4040   10.1820   22.5690 O.2   231  ARG231     -0.2867
     87  CB        -1.1720   10.4550   24.4500 C.3   231  ARG231      0.0307
     88  CG        -2.5920    9.8380   24.5620 C.3   231  ARG231      0.0489
     89  CD        -3.6790   10.9200   24.5620 C.3   231  ARG231      0.2205
     90  NE        -4.0390   11.4710   25.8600 N.pl3 231  ARG231     -0.0865
     91  CZ        -4.9340   10.9180   26.7100 C.cat 231  ARG231      0.5346
     92  NH1       -5.2090   11.5300   27.8540 N.pl3 231  ARG231      0.1354
     93  NH2       -5.5460    9.7630   26.4300 N.pl3 231  ARG231      0.1354
     94  N          2.6740    7.2860   21.7050 N.3   234  GLN234     -0.1231
     95  CA         1.9140    7.0970   20.4390 C.3   234  GLN234      0.1698
     96  C          2.1520    8.2180   19.4360 C.2   234  GLN234      0.2592
     97  O          2.1270    7.9880   18.2030 O.2   234  GLN234     -0.2718
     98  CB         0.4170    7.0220   20.7130 C.3   234  GLN234      0.0381
     99  CG         0.0280    5.7740   21.4330 C.3   234  GLN234      0.0905
    100  CD        -1.4680    5.7630   21.7570 C.2   234  GLN234      0.2608
    101  OE1       -2.2060    6.6630   21.3650 O.2   234  GLN234     -0.2717
    102  NE2       -1.8860    4.7890   22.5660 N.am  234  GLN234     -0.0878
    103  N          2.3750    9.4130   19.9550 N.am  235  ASN235     -0.1974
    104  CA         2.5760   10.6280   19.1090 C.3   235  ASN235      0.1688
    105  C          3.9220   10.5730   18.3760 C.2   235  ASN235      0.2292
    106  O          4.0920   11.2620   17.3720 O.2   235  ASN235     -0.2864
    107  CB         2.4130   11.9170   19.8820 C.3   235  ASN235      0.1181
    108  CG         0.9860   12.1920   20.2690 C.2   235  ASN235      0.2629
    109  OD1        0.0490   11.5180   19.8010 O.2   235  ASN235     -0.2716
    110  ND2        0.7950   13.1200   21.1790 N.am  235  ASN235     -0.0877
@<TRIPOS>BOND
     1    37    36    2
     2    10     9    2
     3    44    43    2
     4    11     8    1
     5    11    12    1
     6     8     9    1
     7     8     7    1
     8     9    14   am
     9    36    35    1
    10    34    35    1
    11    43    42    1
    12    29    28    2
    13    26    27    1
    14     4     3    2
    15    28    27    1
    16    27    30    1
    17    35    38    1
    18    33    31    1
    19    41    42    1
    20     7     3   am
    21     7    13    1
    22    42    45    1
    23    12    13    1
    24     3     2    1
    25    14    15    1
    26    22    23    1
    27    22    16   am
    28    23    24    1
    29    15    16    1
    30    15    18    1
    31    21    19    1
    32    16    17    2
    33    39    38    1
    34    30    31    1
    35     1     2    1
    36   106   105    2
    37    38    40    1
    38    31    32    1
    39     2     5    1
    40     5     6    1
    41    24    25    2
    42    18    19    1
    43    19    20    1
    44    52    46    1
    45    52    51    1
    46    97    96    2
    47   105   104    1
    48    46    47    1
    49    51    50    1
    50   104   107    1
    51   104   103    1
    52    50    47    1
    53    96   103   am
    54    96    95    1
    55    47    48    1
    56   109   108    2
    57   107   108    1
    58   108   110   am
    59    95    98    1
    60    95    94    1
    61    98    99    1
    62    48    49    2
    63    48    53   am
    64   101   100    2
    65    99   100    1
    66    61    60    1
    67   100   102   am
    68    53    54    1
    69    86    85    2
    70    60    59    1
    71    58    59    1
    72    58    57    1
    73    54    57    1
    74    54    55    1
    75    56    55    2
    76    85    84    1
    77    55    62   am
    78    84    87    1
    79    84    83    1
    80    87    88    1
    81    88    89    1
    82    89    90    1
    83    62    63    1
    84    66    63    1
    85    66    67    1
    86    90    91    2
    87    63    64    1
    88    93    91    1
    89    91    92    1
    90    64    65    2
    91    64    68   am
    92    78    77    2
    93    81    80    2
    94    68    69    1
    95    79    80    1
    96    79    76    1
    97    80    82   am
    98    77    76    1
    99    75    76    1
   100    75    70   am
   101    69    70    1
   102    69    72    1
   103    70    71    2
   104    74    72    1
   105    73    72    1
