@<TRIPOS>MOLECULE
tmp/5jh6A00.pdb
 155 146 0 0 0
SMALL
GASTEIGER

@<TRIPOS>ATOM
      1  N        -19.3690  -53.6340  -13.8120 N.3    16  VAL16      -0.1231
      2  CA       -19.1060  -52.8720  -15.0270 C.3    16  VAL16       0.1692
      3  C        -18.7510  -53.8220  -16.1620 C.2    16  VAL16       0.2593
      4  O        -19.5500  -54.0390  -17.0800 O.2    16  VAL16      -0.2718
      5  CB       -17.9820  -51.8430  -14.7980 C.3    16  VAL16       0.0266
      6  CG1      -17.6290  -51.1180  -16.0970 C.3    16  VAL16       0.0020
      7  CG2      -18.3930  -50.8440  -13.7230 C.3    16  VAL16       0.0020
      8  N        -17.5460  -54.3840  -16.1130 N.am   17  GLY17      -0.1942
      9  CA       -17.0620  -55.2340  -17.1820 C.3    17  GLY17       0.2014
     10  C        -16.1870  -56.3660  -16.6880 C.2    17  GLY17       0.2639
     11  O        -16.1320  -56.6370  -15.4850 O.2    17  GLY17      -0.2714
     12  N        -15.4940  -57.0350  -17.6090 N.am   18  ARG18      -0.1963
     13  CA       -14.6840  -58.2140  -17.2940 C.3    18  ARG18       0.1729
     14  C        -13.2750  -57.9800  -17.8380 C.2    18  ARG18       0.2616
     15  O        -12.9850  -58.2940  -18.9960 O.2    18  ARG18      -0.2715
     16  CB       -15.3140  -59.4810  -17.8790 C.3    18  ARG18       0.0348
     17  CG       -15.2890  -60.6760  -16.9400 C.3    18  ARG18       0.0492
     18  CD       -16.3510  -60.5500  -15.8600 C.3    18  ARG18       0.2205
     19  NE       -16.3900  -61.7180  -14.9830 N.pl3  18  ARG18      -0.0865
     20  CZ       -17.3150  -61.9240  -14.0510 C.cat  18  ARG18       0.5346
     21  NH1      -18.2910  -61.0430  -13.8670 N.pl3  18  ARG18       0.1354
     22  NH2      -17.2700  -63.0150  -13.3010 N.pl3  18  ARG18       0.1354
     23  N        -12.4030  -57.4270  -17.0010 N.am   19  GLY19      -0.1955
     24  CA       -11.0070  -57.2610  -17.3520 C.3    19  GLY19       0.1869
     25  C        -10.2140  -58.5140  -17.0530 C.2    19  GLY19       0.2309
     26  O        -10.7300  -59.6370  -17.1040 O.2    19  GLY19      -0.2863
     27  N        -14.4620  -55.7880  -12.8990 N.3    23  VAL23      -0.1245
     28  CA       -14.4760  -54.3920  -12.4760 C.3    23  VAL23       0.1561
     29  C        -15.8690  -54.0580  -11.9670 C.2    23  VAL23       0.2260
     30  O        -16.8690  -54.5470  -12.5030 O.2    23  VAL23      -0.2867
     31  CB       -14.0780  -53.4450  -13.6290 C.3    23  VAL23       0.0252
     32  CG1      -14.0610  -51.9970  -13.1530 C.3    23  VAL23       0.0019
     33  CG2      -12.7210  -53.8390  -14.1990 C.3    23  VAL23       0.0019
     34  N        -14.3670  -46.5240  -10.0780 N.3    34  ALA34      -0.1245
     35  CA       -14.3520  -47.8920  -10.5710 C.3    34  ALA34       0.1562
     36  C        -13.2500  -48.6540   -9.8500 C.2    34  ALA34       0.2260
     37  O        -12.1250  -48.1580   -9.7290 O.2    34  ALA34      -0.2867
     38  CB       -14.1280  -47.9280  -12.0830 C.3    34  ALA34       0.0290
     39  N        -11.2050  -52.4580   -9.2070 N.3    36  LYS36      -0.1245
     40  CA       -10.7960  -53.6980   -9.8640 C.3    36  LYS36       0.1561
     41  C        -10.2630  -54.6400   -8.7880 C.2    36  LYS36       0.2260
     42  O         -9.0640  -54.6580   -8.4950 O.2    36  LYS36      -0.2867
     43  CB        -9.7510  -53.4170  -10.9450 C.3    36  LYS36       0.0271
     44  CG        -9.5390  -54.5610  -11.9240 C.3    36  LYS36       0.0035
     45  CD        -8.5690  -54.1680  -13.0300 C.3    36  LYS36       0.0206
     46  CE        -8.7770  -55.0060  -14.2800 C.3    36  LYS36       0.1093
     47  NZ        -7.7130  -54.7700  -15.2970 N.3    36  LYS36      -0.1314
     48  N         -5.8190  -42.3000  -16.6520 N.3    63  VAL63      -0.1245
     49  CA        -6.7710  -42.5560  -15.5800 C.3    63  VAL63       0.1561
     50  C         -6.1240  -42.2830  -14.2290 C.2    63  VAL63       0.2260
     51  O         -4.9620  -42.6340  -13.9890 O.2    63  VAL63      -0.2867
     52  CB        -7.2930  -43.9990  -15.6630 C.3    63  VAL63       0.0252
     53  CG1       -6.1550  -44.9970  -15.4570 C.3    63  VAL63       0.0019
     54  CG2       -8.4110  -44.2230  -14.6540 C.3    63  VAL63       0.0019
     55  N         -9.9390  -46.4680   -8.6500 N.3    74  MET74      -0.1230
     56  CA        -9.6950  -45.5660   -9.7640 C.3    74  MET74       0.1702
     57  C        -10.9480  -44.7480  -10.0430 C.2    74  MET74       0.2592
     58  O        -12.0440  -45.0750   -9.5800 O.2    74  MET74      -0.2718
     59  CB        -9.2820  -46.3470  -11.0150 C.3    74  MET74       0.0401
     60  CG        -8.2380  -47.4170  -10.7470 C.3    74  MET74       0.0596
     61  SD        -7.7470  -48.3000  -12.2390 S.3    74  MET74      -0.1393
     62  CE        -6.6000  -47.1340  -12.9640 C.3    74  MET74       0.0692
     63  N        -10.7760  -43.6730  -10.8070 N.am   75  GLU75      -0.1966
     64  CA       -11.8860  -42.7790  -11.1000 C.3    75  GLU75       0.1733
     65  C        -12.8090  -43.3980  -12.1410 C.2    75  GLU75       0.2616
     66  O        -12.3600  -44.0670  -13.0760 O.2    75  GLU75      -0.2715
     67  CB       -11.3740  -41.4210  -11.5860 C.3    75  GLU75       0.0429
     68  CG       -10.6730  -41.4440  -12.9390 C.3    75  GLU75       0.1163
     69  CD       -10.2000  -40.0670  -13.3780 C.2    75  GLU75       0.3649
     70  OE1      -10.9090  -39.0770  -13.0960 O.co2  75  GLU75      -0.2457
     71  OE2       -9.1210  -39.9720  -14.0010 O.co2  75  GLU75      -0.2457
     72  N        -14.1090  -43.1720  -11.9680 N.am   76  TYR76      -0.1960
     73  CA       -15.1130  -43.7570  -12.8450 C.3    76  TYR76       0.1771
     74  C        -15.3020  -42.8890  -14.0830 C.2    76  TYR76       0.2619
     75  O        -15.5070  -41.6750  -13.9770 O.2    76  TYR76      -0.2715
     76  CB       -16.4370  -43.9120  -12.0980 C.3    76  TYR76       0.0574
     77  CG       -17.5560  -44.4960  -12.9290 C.ar   76  TYR76      -0.0198
     78  CD1      -17.6400  -45.8630  -13.1540 C.ar   76  TYR76      -0.0009
     79  CD2      -18.5360  -43.6800  -13.4780 C.ar   76  TYR76      -0.0009
     80  CE1      -18.6660  -46.4000  -13.9090 C.ar   76  TYR76       0.0417
     81  CE2      -19.5640  -44.2070  -14.2340 C.ar   76  TYR76       0.0417
     82  CZ       -19.6250  -45.5670  -14.4460 C.ar   76  TYR76       0.1957
     83  OH       -20.6510  -46.0910  -15.2000 O.3    76  TYR76      -0.2866
     84  N        -15.2320  -43.5150  -15.2550 N.am   77  ALA77      -0.1963
     85  CA       -15.4160  -42.8290  -16.5290 C.3    77  ALA77       0.1728
     86  C        -16.8380  -43.0880  -17.0070 C.2    77  ALA77       0.2616
     87  O        -17.1730  -44.2100  -17.3980 O.2    77  ALA77      -0.2715
     88  CB       -14.3950  -43.3080  -17.5590 C.3    77  ALA77       0.0334
     89  N        -17.6720  -42.0450  -16.9840 N.am   78  GLU78      -0.1977
     90  CA       -19.0810  -42.2180  -17.3210 C.3    78  GLU78       0.1602
     91  C        -19.2700  -42.6260  -18.7780 C.2    78  GLU78       0.2287
     92  O        -20.2020  -43.3750  -19.0920 O.2    78  GLU78      -0.2864
     93  CB       -19.8580  -40.9300  -17.0230 C.3    78  GLU78       0.0415
     94  CG       -19.4040  -39.6870  -17.7980 C.3    78  GLU78       0.1163
     95  CD       -18.4380  -38.8180  -17.0130 C.2    78  GLU78       0.3649
     96  OE1      -17.6020  -39.3720  -16.2670 O.co2  78  GLU78      -0.2457
     97  OE2      -18.5200  -37.5760  -17.1380 O.co2  78  GLU78      -0.2457
     98  N        -17.6760  -44.6080  -20.7980 N.3    80  GLY80      -0.1210
     99  CA       -17.3470  -45.9470  -21.2440 C.3    80  GLY80       0.1956
    100  C        -16.0880  -45.9710  -22.0960 C.2    80  GLY80       0.2612
    101  O        -15.3000  -45.0220  -22.1280 O.2    80  GLY80      -0.2717
    102  N        -15.9020  -47.0850  -22.7990 N.am   81  SER81      -0.1952
    103  CA       -14.7220  -47.2490  -23.6340 C.3    81  SER81       0.1924
    104  C        -14.9450  -46.6330  -25.0110 C.2    81  SER81       0.2314
    105  O        -16.0750  -46.4860  -25.4840 O.2    81  SER81      -0.2863
    106  CB       -14.3690  -48.7260  -23.7960 C.3    81  SER81       0.2116
    107  OG       -15.3330  -49.3810  -24.5990 O.3    81  SER81      -0.2180
    108  N        -16.6400  -49.1140  -27.4040 N.3    84  ASN84      -0.1240
    109  CA       -18.0920  -49.2010  -27.2800 C.3    84  ASN84       0.1653
    110  C        -18.7720  -48.0410  -27.9990 C.2    84  ASN84       0.2266
    111  O        -19.8310  -48.2150  -28.6110 O.2    84  ASN84      -0.2867
    112  CB       -18.4910  -49.2270  -25.7960 C.3    84  ASN84       0.1155
    113  CG       -20.0010  -49.4160  -25.5870 C.2    84  ASN84       0.2627
    114  OD1      -20.6140  -48.7390  -24.7620 O.2    84  ASN84      -0.2716
    115  ND2      -20.5900  -50.3430  -26.3270 N.am   84  ASN84      -0.0877
    116  N        -10.5040  -50.4210  -26.7060 N.3   130  PRO130     -0.2102
    117  CA       -11.1200  -50.9880  -25.4940 C.3   130  PRO130      0.1504
    118  C        -10.4880  -50.4980  -24.2030 C.2   130  PRO130      0.2575
    119  O        -11.1320  -50.5770  -23.1480 O.2   130  PRO130     -0.2718
    120  CB       -10.9320  -52.4990  -25.6760 C.3   130  PRO130      0.0282
    121  CG       -10.8780  -52.6910  -27.1430 C.3   130  PRO130      0.0208
    122  CD       -10.1730  -51.4750  -27.6830 C.3   130  PRO130      0.0893
    123  N         -9.2540  -49.9960  -24.2480 N.am  131  ASN131     -0.1975
    124  CA        -8.5840  -49.4460  -23.0760 C.3   131  ASN131      0.1688
    125  C         -8.5550  -47.9210  -23.0700 C.2   131  ASN131      0.2292
    126  O         -7.9880  -47.3290  -22.1450 O.2   131  ASN131     -0.2864
    127  CB        -7.1550  -49.9840  -22.9850 C.3   131  ASN131      0.1181
    128  CG        -7.0990  -51.5000  -22.9370 C.2   131  ASN131      0.2629
    129  OD1       -6.2390  -52.1140  -23.5630 O.2   131  ASN131     -0.2716
    130  ND2       -8.0170  -52.1100  -22.1960 N.am  131  ASN131     -0.0877
    131  N        -10.7780  -44.8270  -22.4680 N.3   133  LEU133     -0.1245
    132  CA       -12.0480  -44.4430  -21.8730 C.3   133  LEU133      0.1561
    133  C        -12.3630  -42.9810  -22.1770 C.2   133  LEU133      0.2260
    134  O        -11.4900  -42.1950  -22.5520 O.2   133  LEU133     -0.2867
    135  CB       -12.0220  -44.6670  -20.3590 C.3   133  LEU133      0.0270
    136  CG       -11.5820  -46.0600  -19.8960 C.3   133  LEU133      0.0019
    137  CD1      -11.5200  -46.1220  -18.3750 C.3   133  LEU133      0.0001
    138  CD2      -12.5090  -47.1340  -20.4340 C.3   133  LEU133      0.0001
    139  N         -5.8340  -46.0850  -19.9090 N.3   144  CYS144     -0.1235
    140  CA        -5.8730  -46.9460  -18.7320 C.3   144  CYS144      0.1677
    141  C         -4.9050  -48.1020  -18.9310 C.2   144  CYS144      0.2270
    142  O         -5.0410  -48.8640  -19.8930 O.2   144  CYS144     -0.2867
    143  CB        -7.2900  -47.4570  -18.4990 C.3   144  CYS144      0.0956
    144  SG        -7.4080  -48.7450  -17.1850 S.3   144  CYS144     -0.0801
    145  N         -3.5580  -51.6220  -18.2910 N.3   146  PHE146     -0.1241
    146  CA        -4.0340  -52.9180  -17.8190 C.3   146  PHE146      0.1605
    147  C         -5.3930  -52.7840  -17.1380 C.2   146  PHE146      0.2264
    148  O         -6.2710  -53.6300  -17.3090 O.2   146  PHE146     -0.2867
    149  CB        -3.0210  -53.5410  -16.8540 C.3   146  PHE146      0.0534
    150  CG        -1.6440  -53.7020  -17.4390 C.ar  146  PHE146     -0.0203
    151  CD1       -1.3960  -54.6620  -18.4060 C.ar  146  PHE146     -0.0042
    152  CD2       -0.5970  -52.8990  -17.0140 C.ar  146  PHE146     -0.0042
    153  CE1       -0.1310  -54.8130  -18.9440 C.ar  146  PHE146     -0.0003
    154  CE2        0.6700  -53.0470  -17.5480 C.ar  146  PHE146     -0.0003
    155  CZ         0.9030  -54.0050  -18.5130 C.ar  146  PHE146     -0.0000
@<TRIPOS>BOND
     1   111   110    2
     2   110   109    1
     3   122   121    1
     4   122   116    1
     5   108   109    1
     6   109   112    1
     7   121   120    1
     8   116   117    1
     9   115   113   am
    10   112   113    1
    11   120   117    1
    12   113   114    2
    13   117   118    1
    14   105   104    2
    15   104   103    1
    16   107   106    1
    17   123   118   am
    18   123   124    1
    19   118   119    2
    20   106   103    1
    21   103   102    1
    22   129   128    2
    23   124   125    1
    24   124   127    1
    25   125   126    2
    26   127   128    1
    27   128   130   am
    28   102   100   am
    29   134   133    2
    30   131   132    1
    31   133   132    1
    32   101   100    2
    33   100    99    1
    34   132   135    1
    35    99    98    1
    36   138   136    1
    37   135   136    1
    38   139   140    1
    39   136   137    1
    40   142   141    2
    41    92    91    2
    42    15    14    2
    43   153   155   ar
    44   153   151   ar
    45   141   140    1
    46    91    90    1
    47   140   143    1
    48   155   154   ar
    49   143   144    1
    50   151   150   ar
    51   145   146    1
    52    16    13    1
    53    16    17    1
    54    14    13    1
    55    14    23   am
    56   146   147    1
    57   146   149    1
    58    94    93    1
    59    94    95    1
    60    12    13    1
    61    12    10   am
    62    88    85    1
    63   154   152   ar
    64   150   152   ar
    65   150   149    1
    66    87    86    2
    67    24    25    1
    68    24    23    1
    69    90    93    1
    70    90    89    1
    71   148   147    2
    72     9    10    1
    73     9     8    1
    74    97    95   ar
    75    26    25    2
    76     4     3    2
    77    95    96   ar
    78    86    89   am
    79    86    85    1
    80    17    18    1
    81    10    11    2
    82    48    49    1
    83    85    84    1
    84     3     8   am
    85     3     2    1
    86     6     5    1
    87    18    19    1
    88    52    49    1
    89    52    53    1
    90    52    54    1
    91    49    50    1
    92    47    46    1
    93    84    74   am
    94    83    82    1
    95     2     5    1
    96     2     1    1
    97    19    20    2
    98     5     7    1
    99    82    81   ar
   100    82    80   ar
   101    46    45    1
   102    81    79   ar
   103    50    51    2
   104    33    31    1
   105    74    75    2
   106    74    73    1
   107    20    21    1
   108    20    22    1
   109    71    69   ar
   110    80    78   ar
   111    31    32    1
   112    31    28    1
   113    79    77   ar
   114    69    70   ar
   115    69    68    1
   116    78    77   ar
   117    66    65    2
   118    45    44    1
   119    62    61    1
   120    68    67    1
   121    77    76    1
   122    27    28    1
   123    73    76    1
   124    73    72    1
   125    30    29    2
   126    28    29    1
   127    61    60    1
   128    65    72   am
   129    65    64    1
   130    38    35    1
   131    44    43    1
   132    67    64    1
   133    64    63    1
   134    59    60    1
   135    59    56    1
   136    43    40    1
   137    63    57   am
   138    35    34    1
   139    35    36    1
   140    57    56    1
   141    57    58    2
   142    40    39    1
   143    40    41    1
   144    36    37    2
   145    56    55    1
   146    41    42    2
