@<TRIPOS>MOLECULE
tmp/5jh7D01.pdb
 123 120 0 0 0
SMALL
GASTEIGER

@<TRIPOS>ATOM
      1  N         22.7470   -7.2800  -44.8640 N.3    11  GLN11      -0.1245
      2  CA        21.4450   -7.3290  -45.5190 C.3    11  GLN11       0.1566
      3  C         20.3200   -6.9100  -44.5760 C.2    11  GLN11       0.2260
      4  O         19.5790   -5.9710  -44.8650 O.2    11  GLN11      -0.2867
      5  CB        21.1760   -8.7310  -46.0660 C.3    11  GLN11       0.0367
      6  CG        19.8250   -8.8780  -46.7460 C.3    11  GLN11       0.0905
      7  CD        19.7230  -10.1540  -47.5580 C.2    11  GLN11       0.2608
      8  OE1       20.7060  -10.8800  -47.7240 O.2    11  GLN11      -0.2717
      9  NE2       18.5310  -10.4350  -48.0720 N.am   11  GLN11      -0.0878
     10  N         27.8770  -15.3450  -44.1960 N.3    99  ASN99      -0.1240
     11  CA        27.4360  -15.8160  -42.8860 C.3    99  ASN99       0.1653
     12  C         28.6080  -16.1800  -41.9760 C.2    99  ASN99       0.2266
     13  O         28.4650  -16.9940  -41.0630 O.2    99  ASN99      -0.2867
     14  CB        26.5020  -17.0220  -43.0360 C.3    99  ASN99       0.1155
     15  CG        25.2030  -16.6750  -43.7450 C.2    99  ASN99       0.2627
     16  OD1       24.5760  -15.6530  -43.4580 O.2    99  ASN99      -0.2716
     17  ND2       24.7950  -17.5290  -44.6790 N.am   99  ASN99      -0.0877
     18  N         15.6950  -20.2420  -35.3690 N.3   173  PRO173     -0.2102
     19  CA        15.5560  -21.3930  -36.2690 C.3   173  PRO173      0.1504
     20  C         14.1980  -21.4350  -36.9640 C.2   173  PRO173      0.2576
     21  O         14.0530  -22.1200  -37.9750 O.2   173  PRO173     -0.2718
     22  CB        15.7240  -22.5940  -35.3320 C.3   173  PRO173      0.0282
     23  CG        16.4670  -22.0630  -34.1530 C.3   173  PRO173      0.0208
     24  CD        15.9930  -20.6530  -33.9870 C.3   173  PRO173      0.0893
     25  N         13.2180  -20.7180  -36.4220 N.am  174  LYS174     -0.1966
     26  CA        11.8900  -20.6580  -37.0260 C.3   174  LYS174      0.1728
     27  C         11.8930  -19.7960  -38.2840 C.2   174  LYS174      0.2616
     28  O         10.9700  -19.8600  -39.0960 O.2   174  LYS174     -0.2715
     29  CB        10.8640  -20.1110  -36.0320 C.3   174  LYS174      0.0311
     30  CG        10.6100  -20.9990  -34.8290 C.3   174  LYS174      0.0038
     31  CD         9.5730  -20.3710  -33.9100 C.3   174  LYS174      0.0206
     32  CE         9.3400  -21.2180  -32.6700 C.3   174  LYS174      0.1093
     33  NZ         8.3410  -20.5970  -31.7590 N.3   174  LYS174     -0.1314
     34  N         12.9360  -18.9900  -38.4390 N.am  175  VAL175     -0.1963
     35  CA        13.0110  -18.0480  -39.5470 C.3   175  VAL175      0.1727
     36  C         14.1850  -18.3570  -40.4740 C.2   175  VAL175      0.2617
     37  O         14.0530  -18.2880  -41.6960 O.2   175  VAL175     -0.2715
     38  CB        13.1290  -16.5990  -39.0320 C.3   175  VAL175      0.0290
     39  CG1       13.3840  -15.6400  -40.1810 C.3   175  VAL175      0.0023
     40  CG2       11.8690  -16.2080  -38.2700 C.3   175  VAL175      0.0023
     41  N         15.3290  -18.7020  -39.8900 N.am  176  SER176     -0.1936
     42  CA        16.5230  -19.0140  -40.6710 C.3   176  SER176      0.2055
     43  C         17.1990  -20.2910  -40.1790 C.2   176  SER176      0.2643
     44  O         17.2930  -20.5290  -38.9770 O.2   176  SER176     -0.2714
     45  CB        17.5120  -17.8480  -40.6240 C.3   176  SER176      0.2130
     46  OG        18.6800  -18.1420  -41.3690 O.3   176  SER176     -0.2179
     47  N         17.6750  -21.1060  -41.1150 N.am  177  ASP177     -0.1957
     48  CA        18.3090  -22.3750  -40.7730 C.3   177  ASP177      0.1840
     49  C         19.7810  -22.4220  -41.1840 C.2   177  ASP177      0.2622
     50  O         20.3310  -23.4990  -41.4010 O.2   177  ASP177     -0.2715
     51  CB        17.5560  -23.5340  -41.4270 C.3   177  ASP177      0.1450
     52  CG        17.4620  -23.3900  -42.9330 C.2   177  ASP177      0.3671
     53  OD1       18.4670  -23.6640  -43.6210 O.co2 177  ASP177     -0.2456
     54  OD2       16.3830  -23.0040  -43.4270 O.co2 177  ASP177     -0.2456
     55  N         20.4140  -21.2550  -41.2730 N.am  178  THR178     -0.1951
     56  CA        21.8080  -21.1510  -41.7070 C.3   178  THR178      0.1897
     57  C         22.7640  -21.9640  -40.8200 C.2   178  THR178      0.2313
     58  O         23.9010  -22.2340  -41.2080 O.2   178  THR178     -0.2863
     59  CB        22.2620  -19.6740  -41.7440 C.3   178  THR178      0.1794
     60  OG1       21.4220  -18.9400  -42.6440 O.3   178  THR178     -0.2208
     61  CG2       23.7040  -19.5580  -42.2120 C.3   178  THR178      0.0378
     62  N         24.4550  -19.6950  -37.2150 N.3   181  GLU181     -0.1245
     63  CA        23.9620  -18.4360  -36.6680 C.3   181  GLU181      0.1567
     64  C         24.1750  -18.3030  -35.1590 C.2   181  GLU181      0.2260
     65  O         24.5420  -17.2270  -34.6850 O.2   181  GLU181     -0.2867
     66  CB        22.4810  -18.2650  -37.0060 C.3   181  GLU181      0.0388
     67  CG        22.2090  -18.2880  -38.5020 C.3   181  GLU181      0.1160
     68  CD        21.0750  -17.3720  -38.9130 C.2   181  GLU181      0.3649
     69  OE1       20.4670  -16.7330  -38.0270 O.co2 181  GLU181     -0.2457
     70  OE2       20.7940  -17.2920  -40.1290 O.co2 181  GLU181     -0.2457
     71  N          8.2510  -13.6370  -35.4710 N.3   208  TYR208     -0.1241
     72  CA         7.5420  -14.7100  -36.1610 C.3   208  TYR208      0.1605
     73  C          6.3080  -15.1570  -35.3820 C.2   208  TYR208      0.2264
     74  O          5.2430  -15.3630  -35.9630 O.2   208  TYR208     -0.2867
     75  CB         8.4640  -15.9070  -36.3990 C.3   208  TYR208      0.0534
     76  CG         7.7570  -17.1010  -37.0040 C.ar  208  TYR208     -0.0201
     77  CD1        7.5830  -17.2080  -38.3780 C.ar  208  TYR208     -0.0009
     78  CD2        7.2550  -18.1180  -36.2000 C.ar  208  TYR208     -0.0009
     79  CE1        6.9340  -18.2960  -38.9360 C.ar  208  TYR208      0.0417
     80  CE2        6.6030  -19.2090  -36.7490 C.ar  208  TYR208      0.0417
     81  CZ         6.4460  -19.2930  -38.1170 C.ar  208  TYR208      0.1957
     82  OH         5.7990  -20.3780  -38.6670 O.3   208  TYR208     -0.2866
     83  N          2.7840  -18.5940  -42.9700 N.3   219  THR219     -0.1204
     84  CA         3.8820  -18.3010  -43.8870 C.3   219  THR219      0.1979
     85  C          4.1790  -16.8020  -43.9290 C.2   219  THR219      0.2460
     86  O          4.0580  -16.1690  -44.9780 O.2   219  THR219     -0.2732
     87  CB         3.5880  -18.8010  -45.3230 C.3   219  THR219      0.1783
     88  OG1        2.5360  -18.0220  -45.9060 O.3   219  THR219     -0.2211
     89  CG2        3.1850  -20.2690  -45.3090 C.3   219  THR219      0.0376
     90  N          4.5620  -16.2290  -42.7790 N.am  220  PRO220     -0.2717
     91  CA         4.9100  -14.8050  -42.7140 C.3   220  PRO220      0.1536
     92  C          6.1630  -14.4900  -43.5230 C.2   220  PRO220      0.2599
     93  O          7.0080  -15.3660  -43.7080 O.2   220  PRO220     -0.2715
     94  CB         5.1490  -14.5680  -41.2190 C.3   220  PRO220      0.0310
     95  CG         5.5310  -15.9060  -40.6870 C.3   220  PRO220      0.0237
     96  CD         4.7240  -16.8970  -41.4760 C.3   220  PRO220      0.0939
     97  N          6.2770  -13.2560  -44.0030 N.am  221  THR221     -0.1937
     98  CA         7.4330  -12.8500  -44.7930 C.3   221  THR221      0.2028
     99  C          8.3110  -11.8900  -44.0000 C.2   221  THR221      0.2642
    100  O          7.9510  -11.4730  -42.8970 O.2   221  THR221     -0.2714
    101  CB         7.0130  -12.1790  -46.1150 C.3   221  THR221      0.1808
    102  OG1        6.4380  -10.8950  -45.8430 O.3   221  THR221     -0.2208
    103  CG2        5.9960  -13.0410  -46.8520 C.3   221  THR221      0.0379
    104  N          9.4640  -11.5440  -44.5600 N.am  222  TYR222     -0.1973
    105  CA        10.3490  -10.5820  -43.9210 C.3   222  TYR222      0.1639
    106  C          9.7200   -9.1920  -43.9490 C.2   222  TYR222      0.2290
    107  O         10.0380   -8.3390  -43.1200 O.2   222  TYR222     -0.2864
    108  CB        11.7230  -10.5760  -44.5950 C.3   222  TYR222      0.0560
    109  CG        12.6200  -11.7080  -44.1420 C.ar  222  TYR222     -0.0198
    110  CD1       13.1390  -11.7330  -42.8540 C.ar  222  TYR222     -0.0009
    111  CD2       12.9500  -12.7500  -45.0000 C.ar  222  TYR222     -0.0009
    112  CE1       13.9590  -12.7620  -42.4310 C.ar  222  TYR222      0.0417
    113  CE2       13.7710  -13.7870  -44.5850 C.ar  222  TYR222      0.0417
    114  CZ        14.2730  -13.7850  -43.2980 C.ar  222  TYR222      0.1957
    115  OH        15.0880  -14.8090  -42.8750 O.3   222  TYR222     -0.2866
    116  N          7.6470   -9.1990  -40.7380 N.3   225  LEU225     -0.1245
    117  CA         8.4990   -9.0420  -39.5650 C.3   225  LEU225      0.1561
    118  C          9.0100   -7.6110  -39.4610 C.2   225  LEU225      0.2260
    119  O          8.9110   -6.9800  -38.4090 O.2   225  LEU225     -0.2867
    120  CB         9.6790  -10.0150  -39.6140 C.3   225  LEU225      0.0270
    121  CG         9.3760  -11.5020  -39.8060 C.3   225  LEU225      0.0019
    122  CD1       10.6160  -12.3300  -39.4960 C.3   225  LEU225      0.0001
    123  CD2        8.1980  -11.9470  -38.9510 C.3   225  LEU225      0.0001
@<TRIPOS>BOND
     1     9     7   am
     2     8     7    2
     3     7     6    1
     4   103   101    1
     5     6     5    1
     6   101   102    1
     7   101    98    1
     8     5     2    1
     9    88    87    1
    10     2     1    1
    11     2     3    1
    12    87    89    1
    13    87    84    1
    14   111   113   ar
    15   111   109   ar
    16    86    85    2
    17     4     3    2
    18    98    97    1
    19    98    99    1
    20    17    15   am
    21   108   109    1
    22   108   105    1
    23   113   114   ar
    24   104    99   am
    25   104   105    1
    26    10    11    1
    27   109   110   ar
    28    97    92   am
    29    99   100    2
    30   106   105    1
    31   106   107    2
    32    85    84    1
    33    85    90   am
    34    84    83    1
    35    15    16    2
    36    15    14    1
    37    93    92    2
    38    53    52   ar
    39    92    91    1
    40    54    52   ar
    41   114   115    1
    42   114   112   ar
    43    14    11    1
    44    52    51    1
    45    11    12    1
    46   110   112   ar
    47    90    91    1
    48    90    96    1
    49    91    94    1
    50    60    59    1
    51    61    59    1
    52    12    13    2
    53    59    56    1
    54    56    55    1
    55    56    57    1
    56    37    36    2
    57    96    95    1
    58    51    48    1
    59    50    49    2
    60    46    45    1
    61    55    49   am
    62    94    95    1
    63    58    57    2
    64    49    48    1
    65    47    48    1
    66    47    43   am
    67   116   117    1
    68    42    45    1
    69    42    43    1
    70    42    41    1
    71    36    41   am
    72    36    35    1
    73    39    38    1
    74    43    44    2
    75    70    68   ar
    76   121   120    1
    77   121   122    1
    78   121   123    1
    79   120   117    1
    80   117   118    1
    81    35    38    1
    82    35    34    1
    83   118   119    2
    84    28    27    2
    85    38    40    1
    86    79    77   ar
    87    79    81   ar
    88    68    67    1
    89    68    69   ar
    90    82    81    1
    91    67    66    1
    92    34    27   am
    93    77    76   ar
    94    27    26    1
    95    81    80   ar
    96    21    20    2
    97    62    63    1
    98    26    25    1
    99    26    29    1
   100    66    63    1
   101    76    75    1
   102    76    78   ar
   103    20    25   am
   104    20    19    1
   105    80    78   ar
   106    63    64    1
   107    75    72    1
   108    19    18    1
   109    19    22    1
   110    72    71    1
   111    72    73    1
   112    29    30    1
   113    74    73    2
   114    18    24    1
   115    22    23    1
   116    64    65    2
   117    30    31    1
   118    23    24    1
   119    31    32    1
   120    32    33    1
