@<TRIPOS>MOLECULE
tmp/5jh7C00.pdb
 100 95 0 0 0
SMALL
GASTEIGER

@<TRIPOS>ATOM
      1  N          3.8330   50.9800    5.7730 N.3   247  ALA247     -0.1231
      2  CA         3.9170   51.2690    7.2000 C.3   247  ALA247      0.1694
      3  C          3.9050   50.0050    8.0610 C.2   247  ALA247      0.2592
      4  O          4.3690   50.0250    9.1990 O.2   247  ALA247     -0.2718
      5  CB         2.7800   52.1920    7.6130 C.3   247  ALA247      0.0304
      6  N          3.3740   48.9110    7.5200 N.am  248  LEU248     -0.1966
      7  CA         3.2630   47.6670    8.2780 C.3   248  LEU248      0.1728
      8  C          4.1570   46.5760    7.7060 C.2   248  LEU248      0.2616
      9  O          4.0500   45.4090    8.0830 O.2   248  LEU248     -0.2715
     10  CB         1.8120   47.1840    8.3070 C.3   248  LEU248      0.0311
     11  CG         0.7940   48.1290    8.9470 C.3   248  LEU248      0.0022
     12  CD1       -0.6150   47.5750    8.8020 C.3   248  LEU248      0.0001
     13  CD2        1.1350   48.3670   10.4100 C.3   248  LEU248      0.0001
     14  N          5.0430   46.9650    6.7980 N.am  249  ASN249     -0.1958
     15  CA         5.9120   46.0140    6.1200 C.3   249  ASN249      0.1819
     16  C          7.0900   45.5770    6.9870 C.2   249  ASN249      0.2621
     17  O          7.7030   46.3910    7.6790 O.2   249  ASN249     -0.2715
     18  CB         6.4240   46.6150    4.8110 C.3   249  ASN249      0.1195
     19  CG         7.2820   45.6500    4.0230 C.2   249  ASN249      0.2630
     20  OD1        7.0770   44.4380    4.0680 O.2   249  ASN249     -0.2716
     21  ND2        8.2550   46.1850    3.2960 N.am  249  ASN249     -0.0877
     22  N          7.3920   44.2840    6.9500 N.am  250  VAL250     -0.1977
     23  CA         8.5400   43.7360    7.6600 C.3   250  VAL250      0.1596
     24  C          9.4410   42.9960    6.6730 C.2   250  VAL250      0.2287
     25  O          8.9890   42.0950    5.9690 O.2   250  VAL250     -0.2864
     26  CB         8.1070   42.7830    8.7930 C.3   250  VAL250      0.0276
     27  CG1        9.3240   42.2340    9.5180 C.3   250  VAL250      0.0022
     28  CG2        7.1800   43.4980    9.7640 C.3   250  VAL250      0.0022
     29  N         14.3650   40.2970    8.2970 N.3   254  GLU254     -0.1245
     30  CA        13.8020   40.2650    9.6410 C.3   254  GLU254      0.1567
     31  C         13.2940   38.8680    9.9810 C.2   254  GLU254      0.2260
     32  O         13.6330   38.3120   11.0260 O.2   254  GLU254     -0.2867
     33  CB        12.6680   41.2820    9.7750 C.3   254  GLU254      0.0388
     34  CG        13.1240   42.7330    9.8180 C.3   254  GLU254      0.1160
     35  CD        13.7930   43.0960   11.1310 C.2   254  GLU254      0.3649
     36  OE1       14.0990   44.2910   11.3350 O.co2 254  GLU254     -0.2457
     37  OE2       14.0120   42.1870   11.9610 O.co2 254  GLU254     -0.2457
     38  N         -3.7740   44.8540   11.3000 N.3   325  PRO325     -0.2116
     39  CA        -3.2070   44.1550   12.4610 C.3   325  PRO325      0.1372
     40  C         -4.2660   43.6830   13.4550 C.2   325  PRO325      0.2244
     41  O         -4.0890   42.6470   14.0940 O.2   325  PRO325     -0.2868
     42  CB        -2.3000   45.2140   13.0960 C.3   325  PRO325      0.0268
     43  CG        -1.9220   46.1120   11.9610 C.3   325  PRO325      0.0207
     44  CD        -3.1340   46.1630   11.0760 C.3   325  PRO325      0.0892
     45  N         -4.3550   39.8070   14.6600 N.3   329  ASN329     -0.1240
     46  CA        -4.1950   39.4200   16.0600 C.3   329  ASN329      0.1653
     47  C         -5.3740   38.6040   16.5830 C.2   329  ASN329      0.2266
     48  O         -5.1930   37.6730   17.3660 O.2   329  ASN329     -0.2867
     49  CB        -3.9960   40.6580   16.9330 C.3   329  ASN329      0.1155
     50  CG        -2.7710   41.4540   16.5400 C.2   329  ASN329      0.2627
     51  OD1       -1.8230   40.9110   15.9740 O.2   329  ASN329     -0.2716
     52  ND2       -2.7860   42.7490   16.8330 N.am  329  ASN329     -0.0877
     53  N         -5.0380   35.0790   15.0530 N.3   332  ILE332     -0.1245
     54  CA        -3.9520   34.3470   15.6970 C.3   332  ILE332      0.1561
     55  C         -4.3670   33.8070   17.0650 C.2   332  ILE332      0.2260
     56  O         -4.0110   32.6880   17.4330 O.2   332  ILE332     -0.2867
     57  CB        -2.7010   35.2320   15.8690 C.3   332  ILE332      0.0252
     58  CG1       -2.0980   35.5790   14.5060 C.3   332  ILE332      0.0019
     59  CG2       -1.6680   34.5340   16.7420 C.3   332  ILE332      0.0019
     60  CD1       -0.8820   36.4770   14.5900 C.3   332  ILE332      0.0001
     61  N         -4.2370   29.7610   18.0910 N.3   336  LYS336     -0.1245
     62  CA        -3.3920   29.2750   19.1770 C.3   336  LYS336      0.1561
     63  C         -4.1440   28.3120   20.0880 C.2   336  LYS336      0.2260
     64  O         -3.5590   27.3760   20.6330 O.2   336  LYS336     -0.2867
     65  CB        -2.8450   30.4450   20.0000 C.3   336  LYS336      0.0271
     66  CG        -1.6250   31.1310   19.4030 C.3   336  LYS336      0.0035
     67  CD        -1.0940   32.2090   20.3410 C.3   336  LYS336      0.0206
     68  CE         0.2130   32.8020   19.8370 C.3   336  LYS336      0.1093
     69  NZ         1.3060   31.7900   19.7800 N.3   336  LYS336     -0.1314
     70  N          5.5360   33.8800   20.0200 N.3   350  GLY350     -0.1210
     71  CA         4.8200   34.8680   19.2330 C.3   350  GLY350      0.1956
     72  C          4.9790   34.6450   17.7400 C.2   350  GLY350      0.2612
     73  O          5.9690   34.0680   17.2930 O.2   350  GLY350     -0.2717
     74  N          3.9940   35.0950   16.9680 N.am  351  PHE351     -0.1962
     75  CA         4.0610   34.9990   15.5140 C.3   351  PHE351      0.1771
     76  C          4.5670   36.3010   14.9020 C.2   351  PHE351      0.2619
     77  O          4.0170   37.3710   15.1620 O.2   351  PHE351     -0.2715
     78  CB         2.6910   34.6540   14.9240 C.3   351  PHE351      0.0574
     79  CG         2.2170   33.2660   15.2470 C.ar  351  PHE351     -0.0200
     80  CD1        2.9960   32.4040   16.0010 C.ar  351  PHE351     -0.0042
     81  CD2        0.9900   32.8190   14.7850 C.ar  351  PHE351     -0.0042
     82  CE1        2.5540   31.1270   16.2940 C.ar  351  PHE351     -0.0003
     83  CE2        0.5460   31.5450   15.0750 C.ar  351  PHE351     -0.0003
     84  CZ         1.3290   30.6970   15.8290 C.ar  351  PHE351     -0.0000
     85  N          5.6160   36.2050   14.0900 N.am  352  LYS352     -0.1963
     86  CA         6.1460   37.3620   13.3770 C.3   352  LYS352      0.1728
     87  C          5.2300   37.7260   12.2140 C.2   352  LYS352      0.2616
     88  O          5.0220   36.9220   11.3100 O.2   352  LYS352     -0.2715
     89  CB         7.5570   37.0800   12.8650 C.3   352  LYS352      0.0311
     90  CG         8.6160   36.9960   13.9440 C.3   352  LYS352      0.0038
     91  CD         9.1980   38.3660   14.2290 C.3   352  LYS352      0.0206
     92  CE         9.8170   38.9720   12.9780 C.3   352  LYS352      0.1093
     93  NZ        10.2390   40.3850   13.2100 N.3   352  LYS352     -0.1314
     94  N          4.6950   38.9410   12.2340 N.am  353  VAL353     -0.1977
     95  CA         3.7270   39.3600   11.2260 C.3   353  VAL353      0.1596
     96  C          4.2240   40.5190   10.3680 C.2   353  VAL353      0.2287
     97  O          4.7480   41.5080   10.8780 O.2   353  VAL353     -0.2864
     98  CB         2.3860   39.7730   11.8760 C.3   353  VAL353      0.0276
     99  CG1        1.4850   40.4570   10.8570 C.3   353  VAL353      0.0022
    100  CG2        1.6940   38.5630   12.4920 C.3   353  VAL353      0.0022
@<TRIPOS>BOND
     1    21    19   am
     2    19    20    2
     3    19    18    1
     4    18    15    1
     5     1     2    1
     6    25    24    2
     7    15    14    1
     8    15    16    1
     9    24    23    1
    10    14     8   am
    11    22    16   am
    12    22    23    1
    13    16    17    2
    14     2     5    1
    15     2     3    1
    16     6     3   am
    17     6     7    1
    18    23    26    1
    19     8     9    2
    20     8     7    1
    21     3     4    2
    22     7    10    1
    23    29    30    1
    24    10    11    1
    25    26    27    1
    26    26    28    1
    27    12    11    1
    28    11    13    1
    29    30    33    1
    30    30    31    1
    31    33    34    1
    32    34    35    1
    33    31    32    2
    34    96    97    2
    35    96    95    1
    36    99    98    1
    37    44    38    1
    38    44    43    1
    39    35    36   ar
    40    35    37   ar
    41    95    98    1
    42    95    94    1
    43    38    39    1
    44    88    87    2
    45    98   100    1
    46    43    42    1
    47    87    94   am
    48    87    86    1
    49    39    42    1
    50    39    40    1
    51    89    86    1
    52    89    90    1
    53    92    93    1
    54    92    91    1
    55    86    85    1
    56    40    41    2
    57    90    91    1
    58    85    76   am
    59    58    60    1
    60    58    57    1
    61    45    46    1
    62    81    83   ar
    63    81    79   ar
    64    76    77    2
    65    76    75    1
    66    78    79    1
    67    78    75    1
    68    53    54    1
    69    83    84   ar
    70    79    80   ar
    71    75    74    1
    72    54    57    1
    73    54    55    1
    74    84    82   ar
    75    57    59    1
    76    51    50    2
    77    80    82   ar
    78    46    47    1
    79    46    49    1
    80    50    52   am
    81    50    49    1
    82    47    48    2
    83    74    72   am
    84    55    56    2
    85    73    72    2
    86    72    71    1
    87    61    62    1
    88    62    65    1
    89    62    63    1
    90    71    70    1
    91    66    65    1
    92    66    67    1
    93    69    68    1
    94    68    67    1
    95    63    64    2
