@<TRIPOS>MOLECULE
tmp/5jh8A01.pdb
 116 111 0 0 0
SMALL
GASTEIGER

@<TRIPOS>ATOM
      1  N         40.9340   34.6650   18.9370 N.3     6  TYR6       -0.1241
      2  CA        40.1580   35.8920   18.7680 C.3     6  TYR6        0.1605
      3  C         40.4850   36.8770   19.8880 C.2     6  TYR6        0.2264
      4  O         40.3010   36.5800   21.0680 O.2     6  TYR6       -0.2867
      5  CB        38.6410   35.6080   18.6880 C.3     6  TYR6        0.0534
      6  CG        38.2550   35.3080   17.2590 C.ar    6  TYR6       -0.0201
      7  CD1       38.4980   34.0820   16.6990 C.ar    6  TYR6       -0.0009
      8  CD2       37.8050   36.3220   16.4250 C.ar    6  TYR6       -0.0009
      9  CE1       38.2760   33.8540   15.3740 C.ar    6  TYR6        0.0417
     10  CE2       37.5520   36.0980   15.0990 C.ar    6  TYR6        0.0417
     11  CZ        37.8120   34.8740   14.5620 C.ar    6  TYR6        0.1957
     12  OH        37.6400   34.6450   13.2270 O.3     6  TYR6       -0.2866
     13  N         39.2900   40.2650   21.1880 N.3     8  SER8       -0.1217
     14  CA        38.0610   41.0250   21.0750 C.3     8  SER8        0.1889
     15  C         37.8230   41.7710   22.3800 C.2     8  SER8        0.2288
     16  O         38.6410   41.7330   23.3030 O.2     8  SER8       -0.2866
     17  CB        36.8920   40.0900   20.7540 C.3     8  SER8        0.2089
     18  OG        35.6980   40.8370   20.6730 O.3     8  SER8       -0.2183
     19  N         36.8090   41.8930   25.4860 N.3    10  TYR10      -0.1241
     20  CA        36.5310   41.1760   26.7170 C.3    10  TYR10       0.1605
     21  C         37.5670   41.5460   27.7590 C.2    10  TYR10       0.2264
     22  O         38.7450   41.7490   27.4450 O.2    10  TYR10      -0.2867
     23  CB        36.5560   39.6520   26.4900 C.3    10  TYR10       0.0534
     24  CG        35.4360   39.2270   25.5820 C.ar   10  TYR10      -0.0201
     25  CD1       34.1270   39.2490   26.0230 C.ar   10  TYR10      -0.0009
     26  CD2       35.6740   38.8510   24.2710 C.ar   10  TYR10      -0.0009
     27  CE1       33.0890   38.8960   25.1960 C.ar   10  TYR10       0.0417
     28  CE2       34.6320   38.5010   23.4310 C.ar   10  TYR10       0.0417
     29  CZ        33.3450   38.5280   23.8990 C.ar   10  TYR10       0.1957
     30  OH        32.3130   38.1830   23.0600 O.3    10  TYR10      -0.2866
     31  N         39.6900   41.7270   16.5800 N.3    30  ASP30      -0.1239
     32  CA        38.2590   42.0090   16.4090 C.3    30  ASP30       0.1674
     33  C         37.9200   43.3690   17.0230 C.2    30  ASP30       0.2266
     34  O         37.2840   43.4690   18.0760 O.2    30  ASP30      -0.2867
     35  CB        37.4580   40.8810   17.0560 C.3    30  ASP30       0.1410
     36  CG        35.9730   41.1200   17.0480 C.2    30  ASP30       0.3668
     37  OD1       35.4320   41.3630   15.9570 O.co2  30  ASP30      -0.2456
     38  OD2       35.3410   41.0280   18.1250 O.co2  30  ASP30      -0.2456
     39  N         24.2930   43.9330   14.2030 N.3    74  TRP74      -0.1241
     40  CA        24.6090   43.3670   12.9020 C.3    74  TRP74       0.1605
     41  C         23.6830   43.9660   11.8580 C.2    74  TRP74       0.2264
     42  O         22.4810   44.1000   12.0910 O.2    74  TRP74      -0.2867
     43  CB        24.4350   41.8480   12.9210 C.3    74  TRP74       0.0550
     44  CG        25.3930   41.1310   13.7890 C.ar   74  TRP74       0.0003
     45  CD1       25.1220   40.5120   14.9700 C.ar   74  TRP74       0.0946
     46  CD2       26.7940   40.9400   13.5460 C.ar   74  TRP74       0.0152
     47  NE1       26.2640   39.9480   15.4780 N.ar   74  TRP74      -0.2442
     48  CE2       27.3030   40.1920   14.6200 C.ar   74  TRP74       0.0810
     49  CE3       27.6650   41.3280   12.5220 C.ar   74  TRP74       0.0012
     50  CZ2       28.6370   39.8210   14.6960 C.ar   74  TRP74       0.0191
     51  CZ3       29.0000   40.9370   12.6020 C.ar   74  TRP74       0.0001
     52  CH2       29.4630   40.2100   13.6820 C.ar   74  TRP74       0.0015
     53  N         34.1670   39.3140    9.0040 N.3   107  ASP107     -0.1239
     54  CA        33.1930   38.7420    9.9360 C.3   107  ASP107      0.1674
     55  C         31.8740   39.4410    9.6510 C.2   107  ASP107      0.2266
     56  O         31.4740   40.3700   10.3620 O.2   107  ASP107     -0.2867
     57  CB        33.6380   38.9190   11.3740 C.3   107  ASP107      0.1410
     58  CG        32.6990   38.2420   12.3430 C.2   107  ASP107      0.3668
     59  OD1       31.7910   37.5150   11.8870 O.co2 107  ASP107     -0.2456
     60  OD2       32.8440   38.4270   13.5640 O.co2 107  ASP107     -0.2456
     61  N         28.0400   38.9790    9.5460 N.3   109  GLU109     -0.1245
     62  CA        26.9870   38.1250   10.0530 C.3   109  GLU109      0.1567
     63  C         25.6490   38.7710    9.7120 C.2   109  GLU109      0.2260
     64  O         25.5550   39.9710    9.4180 O.2   109  GLU109     -0.2867
     65  CB        27.1860   37.8790   11.5510 C.3   109  GLU109      0.0388
     66  CG        28.5760   37.2910   11.8020 C.3   109  GLU109      0.1160
     67  CD        28.8400   36.8110   13.2110 C.2   109  GLU109      0.3649
     68  OE1       27.8930   36.4970   13.9550 O.co2 109  GLU109     -0.2457
     69  OE2       30.0390   36.7470   13.5700 O.co2 109  GLU109     -0.2457
     70  N         34.7090   34.4530    8.2250 N.3   139  SER139     -0.1217
     71  CA        33.9610   33.7790    9.2820 C.3   139  SER139      0.1889
     72  C         32.5630   33.4680    8.7620 C.2   139  SER139      0.2288
     73  O         31.8920   34.3390    8.2100 O.2   139  SER139     -0.2866
     74  CB        33.8870   34.6510   10.5380 C.3   139  SER139      0.2089
     75  OG        35.1860   34.8900   11.0680 O.3   139  SER139     -0.2183
     76  N         36.5700   30.4460    8.5320 N.3   168  GLN168     -0.1245
     77  CA        36.5260   30.2490    9.9800 C.3   168  GLN168      0.1566
     78  C         35.0960   29.8010   10.2710 C.2   168  GLN168      0.2260
     79  O         34.1720   30.6210   10.2820 O.2   168  GLN168     -0.2867
     80  CB        36.9410   31.5280   10.7110 C.3   168  GLN168      0.0367
     81  CG        37.0810   31.3630   12.2070 C.3   168  GLN168      0.0905
     82  CD        35.8630   31.7810   13.0140 C.2   168  GLN168      0.2608
     83  OE1       35.1620   32.7340   12.6940 O.2   168  GLN168     -0.2717
     84  NE2       35.6530   31.0810   14.1160 N.am  168  GLN168     -0.0878
     85  N         30.0490   27.0080   17.0040 N.3   171  TYR171     -0.1227
     86  CA        29.6000   27.2790   18.3570 C.3   171  TYR171      0.1736
     87  C         28.2900   28.0510   18.2330 C.2   171  TYR171      0.2595
     88  O         27.8710   28.4380   17.1430 O.2   171  TYR171     -0.2718
     89  CB        30.6880   27.9760   19.2150 C.3   171  TYR171      0.0548
     90  CG        31.5480   28.9930   18.4920 C.ar  171  TYR171     -0.0200
     91  CD1       31.0480   30.2220   18.1150 C.ar  171  TYR171     -0.0009
     92  CD2       32.8790   28.7080   18.1960 C.ar  171  TYR171     -0.0009
     93  CE1       31.8480   31.1510   17.4560 C.ar  171  TYR171      0.0417
     94  CE2       33.6730   29.6240   17.5560 C.ar  171  TYR171      0.0417
     95  CZ        33.1630   30.8440   17.1960 C.ar  171  TYR171      0.1957
     96  OH        34.0160   31.7140   16.5710 O.3   171  TYR171     -0.2866
     97  N         27.6170   28.2490   19.3570 N.am  172  ASP172     -0.1974
     98  CA        26.2750   28.8300   19.3630 C.3   172  ASP172      0.1709
     99  C         25.2450   27.9290   18.6690 C.2   172  ASP172      0.2293
    100  O         24.2510   28.4040   18.1200 O.2   172  ASP172     -0.2864
    101  CB        26.2650   30.2670   18.8480 C.3   172  ASP172      0.1436
    102  CG        27.0470   31.1870   19.7470 C.2   172  ASP172      0.3671
    103  OD1       27.2320   30.8650   20.9450 O.co2 172  ASP172     -0.2456
    104  OD2       27.4900   32.2210   19.2350 O.co2 172  ASP172     -0.2456
    105  N         37.3500   30.9930   20.5310 N.3   286  TYR286     -0.1241
    106  CA        36.6090   32.2110   20.8150 C.3   286  TYR286      0.1605
    107  C         36.2970   32.2400   22.3060 C.2   286  TYR286      0.2264
    108  O         35.4600   31.4530   22.7690 O.2   286  TYR286     -0.2867
    109  CB        35.3020   32.2870   19.9990 C.3   286  TYR286      0.0534
    110  CG        34.7170   33.6770   20.0560 C.ar  286  TYR286     -0.0201
    111  CD1       33.8670   34.0480   21.0780 C.ar  286  TYR286     -0.0009
    112  CD2       35.1190   34.6550   19.1700 C.ar  286  TYR286     -0.0009
    113  CE1       33.3770   35.3310   21.1850 C.ar  286  TYR286      0.0417
    114  CE2       34.6580   35.9520   19.2870 C.ar  286  TYR286      0.0417
    115  CZ        33.7880   36.2820   20.3100 C.ar  286  TYR286      0.1957
    116  OH        33.2830   37.5490   20.4660 O.3   286  TYR286     -0.2866
@<TRIPOS>BOND
     1    73    72    2
     2    70    71    1
     3    76    77    1
     4    72    71    1
     5    53    54    1
     6    71    74    1
     7    64    63    2
     8    61    62    1
     9    55    54    1
    10    55    56    2
    11    63    62    1
    12    54    57    1
    13    77    78    1
    14    77    80    1
    15    62    65    1
    16    78    79    2
    17    74    75    1
    18    80    81    1
    19    57    58    1
    20    65    66    1
    21    66    67    1
    22    41    42    2
    23    41    40    1
    24    59    58   ar
    25    81    82    1
    26    58    60   ar
    27    49    51   ar
    28    49    46   ar
    29    51    52   ar
    30    83    82    2
    31    40    43    1
    32    40    39    1
    33    43    44    1
    34    82    84   am
    35    67    69   ar
    36    67    68   ar
    37    12    11    1
    38    46    44   ar
    39    46    48   ar
    40    52    50   ar
    41    44    45   ar
    42    11    10   ar
    43    11     9   ar
    44    48    50   ar
    45    48    47   ar
    46    45    47   ar
    47    10     8   ar
    48     9     7   ar
    49    37    36   ar
    50    32    31    1
    51    32    33    1
    52    32    35    1
    53     8     6   ar
    54    96    95    1
    55     7     6   ar
    56    85    86    1
    57    33    34    2
    58    36    35    1
    59    36    38   ar
    60    88    87    2
    61    95    93   ar
    62    95    94   ar
    63     6     5    1
    64    93    91   ar
    65    94    92   ar
    66    91    90   ar
    67   100    99    2
    68    92    90   ar
    69    87    86    1
    70    87    97   am
    71    86    89    1
    72    90    89    1
    73    99    98    1
    74     5     2    1
    75     2     1    1
    76     2     3    1
    77   101    98    1
    78   101   102    1
    79   112   114   ar
    80   112   110   ar
    81   104   102   ar
    82   114   115   ar
    83    97    98    1
    84   102   103   ar
    85     3     4    2
    86   109   110    1
    87   109   106    1
    88   110   111   ar
    89   115   116    1
    90   115   113   ar
    91   105   106    1
    92    18    17    1
    93    17    14    1
    94   106   107    1
    95    14    13    1
    96    14    15    1
    97   111   113   ar
    98   107   108    2
    99    15    16    2
   100    30    29    1
   101    28    29   ar
   102    28    26   ar
   103    29    27   ar
   104    26    24   ar
   105    27    25   ar
   106    19    20    1
   107    24    25   ar
   108    24    23    1
   109    23    20    1
   110    20    21    1
   111    22    21    2
