@<TRIPOS>MOLECULE
tmp/5jh8A00.pdb
 106 106 0 0 0
SMALL
GASTEIGER

@<TRIPOS>ATOM
      1  N         36.8090   41.8930   25.4860 N.3    10  TYR10      -0.1241
      2  CA        36.5310   41.1760   26.7170 C.3    10  TYR10       0.1605
      3  C         37.5670   41.5460   27.7590 C.2    10  TYR10       0.2264
      4  O         38.7450   41.7490   27.4450 O.2    10  TYR10      -0.2867
      5  CB        36.5560   39.6520   26.4900 C.3    10  TYR10       0.0534
      6  CG        35.4360   39.2270   25.5820 C.ar   10  TYR10      -0.0201
      7  CD1       34.1270   39.2490   26.0230 C.ar   10  TYR10      -0.0009
      8  CD2       35.6740   38.8510   24.2710 C.ar   10  TYR10      -0.0009
      9  CE1       33.0890   38.8960   25.1960 C.ar   10  TYR10       0.0417
     10  CE2       34.6320   38.5010   23.4310 C.ar   10  TYR10       0.0417
     11  CZ        33.3450   38.5280   23.8990 C.ar   10  TYR10       0.1957
     12  OH        32.3130   38.1830   23.0600 O.3    10  TYR10      -0.2866
     13  N         24.2930   43.9330   14.2030 N.3    74  TRP74      -0.1241
     14  CA        24.6090   43.3670   12.9020 C.3    74  TRP74       0.1605
     15  C         23.6830   43.9660   11.8580 C.2    74  TRP74       0.2264
     16  O         22.4810   44.1000   12.0910 O.2    74  TRP74      -0.2867
     17  CB        24.4350   41.8480   12.9210 C.3    74  TRP74       0.0550
     18  CG        25.3930   41.1310   13.7890 C.ar   74  TRP74       0.0003
     19  CD1       25.1220   40.5120   14.9700 C.ar   74  TRP74       0.0946
     20  CD2       26.7940   40.9400   13.5460 C.ar   74  TRP74       0.0152
     21  NE1       26.2640   39.9480   15.4780 N.ar   74  TRP74      -0.2442
     22  CE2       27.3030   40.1920   14.6200 C.ar   74  TRP74       0.0810
     23  CE3       27.6650   41.3280   12.5220 C.ar   74  TRP74       0.0012
     24  CZ2       28.6370   39.8210   14.6960 C.ar   74  TRP74       0.0191
     25  CZ3       29.0000   40.9370   12.6020 C.ar   74  TRP74       0.0001
     26  CH2       29.4630   40.2100   13.6820 C.ar   74  TRP74       0.0015
     27  N         28.0400   38.9790    9.5460 N.3   109  GLU109     -0.1245
     28  CA        26.9870   38.1250   10.0530 C.3   109  GLU109      0.1567
     29  C         25.6490   38.7710    9.7120 C.2   109  GLU109      0.2260
     30  O         25.5550   39.9710    9.4180 O.2   109  GLU109     -0.2867
     31  CB        27.1860   37.8790   11.5510 C.3   109  GLU109      0.0388
     32  CG        28.5760   37.2910   11.8020 C.3   109  GLU109      0.1160
     33  CD        28.8400   36.8110   13.2110 C.2   109  GLU109      0.3649
     34  OE1       27.8930   36.4970   13.9550 O.co2 109  GLU109     -0.2457
     35  OE2       30.0390   36.7470   13.5700 O.co2 109  GLU109     -0.2457
     36  N         30.0490   27.0080   17.0040 N.3   171  TYR171     -0.1227
     37  CA        29.6000   27.2790   18.3570 C.3   171  TYR171      0.1736
     38  C         28.2900   28.0510   18.2330 C.2   171  TYR171      0.2595
     39  O         27.8710   28.4380   17.1430 O.2   171  TYR171     -0.2718
     40  CB        30.6880   27.9760   19.2150 C.3   171  TYR171      0.0548
     41  CG        31.5480   28.9930   18.4920 C.ar  171  TYR171     -0.0200
     42  CD1       31.0480   30.2220   18.1150 C.ar  171  TYR171     -0.0009
     43  CD2       32.8790   28.7080   18.1960 C.ar  171  TYR171     -0.0009
     44  CE1       31.8480   31.1510   17.4560 C.ar  171  TYR171      0.0417
     45  CE2       33.6730   29.6240   17.5560 C.ar  171  TYR171      0.0417
     46  CZ        33.1630   30.8440   17.1960 C.ar  171  TYR171      0.1957
     47  OH        34.0160   31.7140   16.5710 O.3   171  TYR171     -0.2866
     48  N         27.6170   28.2490   19.3570 N.am  172  ASP172     -0.1974
     49  CA        26.2750   28.8300   19.3630 C.3   172  ASP172      0.1709
     50  C         25.2450   27.9290   18.6690 C.2   172  ASP172      0.2293
     51  O         24.2510   28.4040   18.1200 O.2   172  ASP172     -0.2864
     52  CB        26.2650   30.2670   18.8480 C.3   172  ASP172      0.1436
     53  CG        27.0470   31.1870   19.7470 C.2   172  ASP172      0.3671
     54  OD1       27.2320   30.8650   20.9450 O.co2 172  ASP172     -0.2456
     55  OD2       27.4900   32.2210   19.2350 O.co2 172  ASP172     -0.2456
     56  N         21.8250   28.9850   22.0900 N.3   175  ILE175     -0.1231
     57  CA        22.1220   30.2980   22.6570 C.3   175  ILE175      0.1678
     58  C         21.0690   30.5950   23.7190 C.2   175  ILE175      0.2434
     59  O         20.0020   29.9550   23.7460 O.2   175  ILE175     -0.2733
     60  CB        22.1350   31.4080   21.5820 C.3   175  ILE175      0.0265
     61  CG1       20.7950   31.4770   20.8290 C.3   175  ILE175      0.0019
     62  CG2       23.3640   31.2110   20.6430 C.3   175  ILE175      0.0020
     63  CD1       20.6810   32.6460   19.8730 C.3   175  ILE175      0.0001
     64  N         21.2980   31.6160   24.5530 N.am  176  PRO176     -0.2729
     65  CA        20.3170   31.9510   25.5980 C.3   176  PRO176      0.1401
     66  C         18.9120   32.1680   25.0890 C.2   176  PRO176      0.2269
     67  O         17.9660   31.8190   25.7890 O.2   176  PRO176     -0.2865
     68  CB        20.9050   33.2270   26.1940 C.3   176  PRO176      0.0296
     69  CG        22.4200   32.9400   26.1130 C.3   176  PRO176      0.0237
     70  CD        22.5630   32.3610   24.7330 C.3   176  PRO176      0.0939
     71  N         33.6160   29.0950   26.3340 N.3   211  TYR211     -0.1241
     72  CA        32.4490   29.4900   27.1010 C.3   211  TYR211      0.1605
     73  C         31.3710   28.4380   26.8650 C.2   211  TYR211      0.2264
     74  O         31.4560   27.6010   25.9500 O.2   211  TYR211     -0.2867
     75  CB        31.9170   30.8950   26.6990 C.3   211  TYR211      0.0534
     76  CG        31.3740   30.9320   25.2790 C.ar  211  TYR211     -0.0201
     77  CD1       32.1930   31.1840   24.1830 C.ar  211  TYR211     -0.0009
     78  CD2       30.0460   30.6690   25.0400 C.ar  211  TYR211     -0.0009
     79  CE1       31.7130   31.1420   22.9050 C.ar  211  TYR211      0.0417
     80  CE2       29.5430   30.6090   23.7520 C.ar  211  TYR211      0.0417
     81  CZ        30.3810   30.8430   22.6860 C.ar  211  TYR211      0.1957
     82  OH        29.9430   30.7880   21.3910 O.3   211  TYR211     -0.2866
     83  N         26.7450   28.3360   28.0560 N.3   213  TYR213     -0.1241
     84  CA        25.6440   29.1620   28.4990 C.3   213  TYR213      0.1605
     85  C         24.9630   28.5440   29.7170 C.2   213  TYR213      0.2264
     86  O         24.9040   27.3170   29.9010 O.2   213  TYR213     -0.2867
     87  CB        24.6070   29.3760   27.3850 C.3   213  TYR213      0.0534
     88  CG        25.1330   30.1810   26.2260 C.ar  213  TYR213     -0.0201
     89  CD1       25.5080   31.5020   26.3900 C.ar  213  TYR213     -0.0009
     90  CD2       25.2400   29.6240   24.9720 C.ar  213  TYR213     -0.0009
     91  CE1       26.0170   32.2460   25.3340 C.ar  213  TYR213      0.0417
     92  CE2       25.7330   30.3680   23.8990 C.ar  213  TYR213      0.0417
     93  CZ        26.1270   31.6770   24.1000 C.ar  213  TYR213      0.1957
     94  OH        26.6240   32.4370   23.0830 O.3   213  TYR213     -0.2866
     95  N         37.3500   30.9930   20.5310 N.3   286  TYR286     -0.1241
     96  CA        36.6090   32.2110   20.8150 C.3   286  TYR286      0.1605
     97  C         36.2970   32.2400   22.3060 C.2   286  TYR286      0.2264
     98  O         35.4600   31.4530   22.7690 O.2   286  TYR286     -0.2867
     99  CB        35.3020   32.2870   19.9990 C.3   286  TYR286      0.0534
    100  CG        34.7170   33.6770   20.0560 C.ar  286  TYR286     -0.0201
    101  CD1       33.8670   34.0480   21.0780 C.ar  286  TYR286     -0.0009
    102  CD2       35.1190   34.6550   19.1700 C.ar  286  TYR286     -0.0009
    103  CE1       33.3770   35.3310   21.1850 C.ar  286  TYR286      0.0417
    104  CE2       34.6580   35.9520   19.2870 C.ar  286  TYR286      0.0417
    105  CZ        33.7880   36.2820   20.3100 C.ar  286  TYR286      0.1957
    106  OH        33.2830   37.5490   20.4660 O.3   286  TYR286     -0.2866
@<TRIPOS>BOND
     1    30    29    2
     2    27    28    1
     3    29    28    1
     4    28    31    1
     5    31    32    1
     6    32    33    1
     7    15    16    2
     8    15    14    1
     9    23    25   ar
    10    23    20   ar
    11    25    26   ar
    12    14    17    1
    13    14    13    1
    14    17    18    1
    15    33    35   ar
    16    33    34   ar
    17    20    18   ar
    18    20    22   ar
    19    26    24   ar
    20    18    19   ar
    21    22    24   ar
    22    22    21   ar
    23    19    21   ar
    24    47    46    1
    25    36    37    1
    26    39    38    2
    27    46    44   ar
    28    46    45   ar
    29    44    42   ar
    30    45    43   ar
    31    42    41   ar
    32    51    50    2
    33    43    41   ar
    34    38    37    1
    35    38    48   am
    36    37    40    1
    37    41    40    1
    38    50    49    1
    39    52    49    1
    40    52    53    1
    41   102   104   ar
    42   102   100   ar
    43    55    53   ar
    44   104   105   ar
    45    48    49    1
    46    53    54   ar
    47    63    61    1
    48    99   100    1
    49    99    96    1
    50   100   101   ar
    51   105   106    1
    52   105   103   ar
    53    95    96    1
    54    62    60    1
    55    96    97    1
    56    61    60    1
    57   101   103   ar
    58    82    81    1
    59    60    57    1
    60    56    57    1
    61    97    98    2
    62    57    58    1
    63    81    79   ar
    64    81    80   ar
    65    79    77   ar
    66    12    11    1
    67    94    93    1
    68    10    11   ar
    69    10     8   ar
    70    58    59    2
    71    58    64   am
    72    80    78   ar
    73    92    93   ar
    74    92    90   ar
    75    11     9   ar
    76    93    91   ar
    77    77    76   ar
    78     8     6   ar
    79    64    70    1
    80    64    65    1
    81    70    69    1
    82    90    88   ar
    83    78    76   ar
    84    66    65    1
    85    66    67    2
    86     9     7   ar
    87    76    75    1
    88    91    89   ar
    89     1     2    1
    90     6     7   ar
    91     6     5    1
    92    65    68    1
    93    74    73    2
    94    69    68    1
    95    88    89   ar
    96    88    87    1
    97    71    72    1
    98     5     2    1
    99    75    72    1
   100     2     3    1
   101    73    72    1
   102    87    84    1
   103     4     3    2
   104    83    84    1
   105    84    85    1
   106    85    86    2
