@<TRIPOS>MOLECULE
tmp/5jhbA00.pdb
 200 188 0 0 0
SMALL
GASTEIGER

@<TRIPOS>ATOM
      1  N         18.1220   -2.0300   12.1450 N.3   545  MET545     -0.1230
      2  CA        18.2680   -1.0850   13.2480 C.3   545  MET545      0.1702
      3  C         19.1020    0.1310   12.8560 C.2   545  MET545      0.2592
      4  O         20.0070    0.0350   12.0280 O.2   545  MET545     -0.2718
      5  CB        18.8940   -1.7790   14.4600 C.3   545  MET545      0.0401
      6  CG        17.9080   -2.5830   15.2950 C.3   545  MET545      0.0596
      7  SD        18.6940   -3.8850   16.2660 S.3   545  MET545     -0.1393
      8  CE        18.9570   -5.1410   15.0160 C.3   545  MET545      0.0692
      9  N         18.7900    1.2730   13.4600 N.am  546  ALA546     -0.1966
     10  CA        19.5480    2.4960   13.2270 C.3   546  ALA546      0.1728
     11  C         20.8700    2.4560   13.9840 C.2   546  ALA546      0.2616
     12  O         21.1790    3.3550   14.7680 O.2   546  ALA546     -0.2715
     13  CB        18.7350    3.7140   13.6350 C.3   546  ALA546      0.0334
     14  N         21.6430    1.4010   13.7490 N.am  547  SER547     -0.1950
     15  CA        22.9500    1.2470   14.3710 C.3   547  SER547      0.1924
     16  C         24.0470    1.2740   13.3120 C.2   547  SER547      0.2314
     17  O         23.7900    1.0420   12.1300 O.2   547  SER547     -0.2863
     18  CB        23.0140   -0.0480   15.1810 C.3   547  SER547      0.2116
     19  OG        22.0630   -0.0300   16.2330 O.3   547  SER547     -0.2180
     20  N         22.4540   -3.6320   11.8390 N.3   551  PRO551     -0.2116
     21  CA        22.0800   -4.9460   12.3670 C.3   551  PRO551      0.1372
     22  C         20.6260   -5.2920   12.0710 C.2   551  PRO551      0.2244
     23  O         19.7470   -4.4360   12.1860 O.2   551  PRO551     -0.2868
     24  CB        22.3060   -4.7920   13.8710 C.3   551  PRO551      0.0268
     25  CG        22.0300   -3.3490   14.1260 C.3   551  PRO551      0.0207
     26  CD        22.5150   -2.6100   12.8990 C.3   551  PRO551      0.0892
     27  N         17.1070   -6.6770   12.8320 N.3   553  TRP553     -0.1241
     28  CA        16.1720   -6.9730   13.9130 C.3   553  TRP553      0.1605
     29  C         15.0970   -7.9290   13.4050 C.2   553  TRP553      0.2264
     30  O         14.2810   -7.5540   12.5630 O.2   553  TRP553     -0.2867
     31  CB        15.5410   -5.6830   14.4330 C.3   553  TRP553      0.0550
     32  CG        14.5970   -5.8620   15.5730 C.ar  553  TRP553      0.0003
     33  CD1       13.3290   -6.3630   15.5200 C.ar  553  TRP553      0.0946
     34  CD2       14.8350   -5.5160   16.9410 C.ar  553  TRP553      0.0152
     35  NE1       12.7670   -6.3630   16.7730 N.ar  553  TRP553     -0.2442
     36  CE2       13.6710   -5.8470   17.6630 C.ar  553  TRP553      0.0810
     37  CE3       15.9210   -4.9640   17.6260 C.ar  553  TRP553      0.0012
     38  CZ2       13.5640   -5.6440   19.0370 C.ar  553  TRP553      0.0191
     39  CZ3       15.8130   -4.7630   18.9900 C.ar  553  TRP553      0.0001
     40  CH2       14.6420   -5.1020   19.6810 C.ar  553  TRP553      0.0015
     41  N         18.7660  -10.7870   16.8940 N.3   572  ILE572     -0.1245
     42  CA        19.5600   -9.8210   16.1480 C.3   572  ILE572      0.1561
     43  C         20.6940  -10.5000   15.3990 C.2   572  ILE572      0.2260
     44  O         21.4040  -11.3410   15.9530 O.2   572  ILE572     -0.2867
     45  CB        20.1550   -8.7340   17.0670 C.3   572  ILE572      0.0252
     46  CG1       19.0390   -7.9320   17.7360 C.3   572  ILE572      0.0019
     47  CG2       21.0720   -7.8060   16.2720 C.3   572  ILE572      0.0019
     48  CD1       19.5460   -6.8240   18.6260 C.3   572  ILE572      0.0001
     49  N         24.2020   -9.6740   13.2000 N.3   574  LYS574     -0.1245
     50  CA        25.1770   -8.5960   13.1070 C.3   574  LYS574      0.1561
     51  C         26.4950   -9.0710   12.4980 C.2   574  LYS574      0.2260
     52  O         27.0100  -10.1280   12.8720 O.2   574  LYS574     -0.2867
     53  CB        25.4120   -8.0000   14.4980 C.3   574  LYS574      0.0271
     54  CG        26.6820   -7.1840   14.6380 C.3   574  LYS574      0.0035
     55  CD        26.4890   -5.7480   14.1890 C.3   574  LYS574      0.0206
     56  CE        27.7310   -4.9250   14.4980 C.3   574  LYS574      0.1093
     57  NZ        27.4170   -3.6880   15.2730 N.3   574  LYS574     -0.1314
     58  N         30.5940   -6.8320   14.5120 N.3   577  ASP577     -0.1239
     59  CA        31.3960   -7.1440   15.6950 C.3   577  ASP577      0.1674
     60  C         31.8900   -8.5850   15.7710 C.2   577  ASP577      0.2266
     61  O         31.4400   -9.4580   15.0260 O.2   577  ASP577     -0.2867
     62  CB        30.5990   -6.8250   16.9610 C.3   577  ASP577      0.1410
     63  CG        30.2540   -5.3560   17.0750 C.2   577  ASP577      0.3668
     64  OD1       29.0810   -5.0460   17.3620 O.co2 577  ASP577     -0.2456
     65  OD2       31.1560   -4.5120   16.8820 O.co2 577  ASP577     -0.2456
     66  N         31.6140  -11.4900   17.9950 N.3   579  LEU579     -0.1245
     67  CA        30.7620  -11.9740   19.0750 C.3   579  LEU579      0.1561
     68  C         31.4160  -13.0690   19.9190 C.2   579  LEU579      0.2260
     69  O         30.8080  -13.5790   20.8590 O.2   579  LEU579     -0.2867
     70  CB        29.4350  -12.4790   18.4950 C.3   579  LEU579      0.0270
     71  CG        28.6100  -11.3890   17.8060 C.3   579  LEU579      0.0019
     72  CD1       27.5670  -11.9790   16.8630 C.3   579  LEU579      0.0001
     73  CD2       27.9560  -10.4830   18.8490 C.3   579  LEU579      0.0001
     74  N         32.0290  -11.4880   23.1520 N.3   582  ASP582     -0.1239
     75  CA        30.7580  -11.3640   23.8530 C.3   582  ASP582      0.1674
     76  C         30.3400  -12.6730   24.5170 C.2   582  ASP582      0.2266
     77  O         29.8700  -12.6720   25.6560 O.2   582  ASP582     -0.2867
     78  CB        29.6630  -10.8880   22.8950 C.3   582  ASP582      0.1410
     79  CG        29.8900   -9.4670   22.4110 C.2   582  ASP582      0.3668
     80  OD1       30.5710   -8.7020   23.1230 O.co2 582  ASP582     -0.2456
     81  OD2       29.3910   -9.1120   21.3240 O.co2 582  ASP582     -0.2456
     82  N         22.1340  -12.2240   28.3810 N.3   608  TYR608     -0.1241
     83  CA        21.3540  -12.6110   27.2150 C.3   608  TYR608      0.1605
     84  C         22.1310  -13.5770   26.3280 C.2   608  TYR608      0.2264
     85  O         23.3670  -13.6420   26.3700 O.2   608  TYR608     -0.2867
     86  CB        20.9310  -11.3730   26.4130 C.3   608  TYR608      0.0534
     87  CG        22.0790  -10.4530   26.0920 C.ar  608  TYR608     -0.0201
     88  CD1       22.8170  -10.6140   24.9290 C.ar  608  TYR608     -0.0009
     89  CD2       22.4360   -9.4320   26.9630 C.ar  608  TYR608     -0.0009
     90  CE1       23.8760   -9.7790   24.6410 C.ar  608  TYR608      0.0417
     91  CE2       23.4900   -8.5950   26.6860 C.ar  608  TYR608      0.0417
     92  CZ        24.2050   -8.7720   25.5270 C.ar  608  TYR608      0.1957
     93  OH        25.2550   -7.9310   25.2610 O.3   608  TYR608     -0.2866
     94  N         22.3580  -12.4820   18.4480 N.3   620  ILE620     -0.1231
     95  CA        22.0980  -12.1060   19.8300 C.3   620  ILE620      0.1692
     96  C         20.6190  -12.2560   20.1790 C.2   620  ILE620      0.2592
     97  O         19.7410  -11.9630   19.3630 O.2   620  ILE620     -0.2718
     98  CB        22.5150  -10.6500   20.1300 C.3   620  ILE620      0.0266
     99  CG1       23.9690  -10.4000   19.7250 C.3   620  ILE620      0.0019
    100  CG2       22.2920  -10.3270   21.6090 C.3   620  ILE620      0.0020
    101  CD1       24.1250   -9.8610   18.3210 C.3   620  ILE620      0.0001
    102  N         20.3470  -12.7130   21.3950 N.am  621  GLU621     -0.1966
    103  CA        18.9820  -12.7510   21.9050 C.3   621  GLU621      0.1733
    104  C         18.4510  -11.3370   22.1260 C.2   621  GLU621      0.2616
    105  O         19.2000  -10.4430   22.5260 O.2   621  GLU621     -0.2715
    106  CB        18.9170  -13.5380   23.2140 C.3   621  GLU621      0.0429
    107  CG        17.5710  -13.4450   23.9140 C.3   621  GLU621      0.1163
    108  CD        17.6250  -13.9200   25.3550 C.2   621  GLU621      0.3649
    109  OE1       16.5840  -13.8460   26.0500 O.co2 621  GLU621     -0.2457
    110  OE2       18.7100  -14.3620   25.7980 O.co2 621  GLU621     -0.2457
    111  N         17.1610  -11.1400   21.8680 N.am  622  ILE622     -0.1963
    112  CA        16.5140   -9.8610   22.1490 C.3   622  ILE622      0.1727
    113  C         15.7130   -9.9020   23.4470 C.2   622  ILE622      0.2616
    114  O         14.7310  -10.6380   23.5570 O.2   622  ILE622     -0.2715
    115  CB        15.5640   -9.4310   21.0190 C.3   622  ILE622      0.0290
    116  CG1       16.3400   -9.1650   19.7270 C.3   622  ILE622      0.0022
    117  CG2       14.7920   -8.1930   21.4330 C.3   622  ILE622      0.0023
    118  CD1       15.4550   -8.7440   18.5710 C.3   622  ILE622      0.0001
    119  N         16.1400   -9.1040   24.4210 N.am  623  VAL623     -0.1977
    120  CA        15.4370   -8.9720   25.6900 C.3   623  VAL623      0.1596
    121  C         14.2210   -8.0570   25.5350 C.2   623  VAL623      0.2287
    122  O         14.3630   -6.8830   25.1970 O.2   623  VAL623     -0.2864
    123  CB        16.3610   -8.4090   26.7860 C.3   623  VAL623      0.0276
    124  CG1       15.5880   -8.1920   28.0770 C.3   623  VAL623      0.0022
    125  CG2       17.5450   -9.3330   27.0130 C.3   623  VAL623      0.0022
    126  N         13.0060   -3.7070   26.3970 N.3   626  ALA626     -0.1231
    127  CA        14.2480   -3.0940   26.8510 C.3   626  ALA626      0.1694
    128  C         14.6340   -1.9170   25.9600 C.2   626  ALA626      0.2593
    129  O         14.5000   -1.9790   24.7380 O.2   626  ALA626     -0.2718
    130  CB        15.3600   -4.1270   26.8810 C.3   626  ALA626      0.0304
    131  N         15.1140   -0.8450   26.5770 N.am  627  THR627     -0.1939
    132  CA        15.5470    0.3310   25.8330 C.3   627  THR627      0.2028
    133  C         16.8690    0.8530   26.3900 C.2   627  THR627      0.2642
    134  O         17.2040    0.5960   27.5470 O.2   627  THR627     -0.2714
    135  CB        14.4860    1.4490   25.8750 C.3   627  THR627      0.1808
    136  OG1       14.8200    2.4680   24.9240 O.3   627  THR627     -0.2208
    137  CG2       14.4040    2.0580   27.2640 C.3   627  THR627      0.0379
    138  N         17.6210    1.5790   25.5680 N.am  628  THR628     -0.1950
    139  CA        18.9240    2.0940   25.9820 C.3   628  THR628      0.1897
    140  C         18.7880    3.2910   26.9200 C.2   628  THR628      0.2313
    141  O         17.8650    4.0940   26.7860 O.2   628  THR628     -0.2863
    142  CB        19.7800    2.5010   24.7680 C.3   628  THR628      0.1794
    143  OG1       20.1550    1.3290   24.0320 O.3   628  THR628     -0.2208
    144  CG2       21.0360    3.2240   25.2200 C.3   628  THR628      0.0378
    145  N         18.9910    6.5470   25.0090 N.3   631  LYS631     -0.1245
    146  CA        17.7780    6.8650   24.2630 C.3   631  LYS631      0.1561
    147  C         16.7250    7.4760   25.1780 C.2   631  LYS631      0.2260
    148  O         15.9120    8.2930   24.7500 O.2   631  LYS631     -0.2867
    149  CB        17.2260    5.6120   23.5800 C.3   631  LYS631      0.0271
    150  CG        16.0200    5.8610   22.6890 C.3   631  LYS631      0.0035
    151  CD        15.5220    4.5650   22.0650 C.3   631  LYS631      0.0206
    152  CE        14.2880    4.7950   21.2060 C.3   631  LYS631      0.1093
    153  NZ        13.7850    3.5290   20.6030 N.3   631  LYS631     -0.1314
    154  N         24.8660    4.2230   25.3590 N.3   684  ASP684     -0.1239
    155  CA        24.2700    3.3860   24.3190 C.3   684  ASP684      0.1674
    156  C         24.4340    1.8980   24.6100 C.2   684  ASP684      0.2266
    157  O         23.6600    1.0730   24.1250 O.2   684  ASP684     -0.2867
    158  CB        24.8770    3.7100   22.9510 C.3   684  ASP684      0.1410
    159  CG        24.2820    4.9570   22.3270 C.2   684  ASP684      0.3668
    160  OD1       23.1090    5.2710   22.6200 O.co2 684  ASP684     -0.2456
    161  OD2       24.9860    5.6200   21.5350 O.co2 684  ASP684     -0.2456
    162  N         21.3470   -0.8420   28.8380 N.3   687  MET687     -0.1245
    163  CA        19.9060   -0.8090   28.6060 C.3   687  MET687      0.1570
    164  C         19.1120   -1.0800   29.8770 C.2   687  MET687      0.2261
    165  O         19.6690   -1.5020   30.8890 O.2   687  MET687     -0.2867
    166  CB        19.5180   -1.8270   27.5330 C.3   687  MET687      0.0387
    167  CG        20.3050   -1.6960   26.2460 C.3   687  MET687      0.0595
    168  SD        19.6760   -2.7880   24.9630 S.3   687  MET687     -0.1393
    169  CE        18.0910   -2.0280   24.6140 C.3   687  MET687      0.0692
    170  N         20.9140   -3.7370   32.4160 N.3   695  PHE695     -0.1241
    171  CA        21.9410   -4.6440   31.9220 C.3   695  PHE695      0.1605
    172  C         22.7780   -4.0060   30.8250 C.2   695  PHE695      0.2264
    173  O         22.3500   -3.0520   30.1760 O.2   695  PHE695     -0.2867
    174  CB        21.3130   -5.9470   31.4230 C.3   695  PHE695      0.0534
    175  CG        20.4270   -5.7800   30.2230 C.ar  695  PHE695     -0.0203
    176  CD1       19.1550   -5.2580   30.3540 C.ar  695  PHE695     -0.0042
    177  CD2       20.8580   -6.1730   28.9670 C.ar  695  PHE695     -0.0042
    178  CE1       18.3280   -5.1120   29.2480 C.ar  695  PHE695     -0.0003
    179  CE2       20.0430   -6.0310   27.8650 C.ar  695  PHE695     -0.0003
    180  CZ        18.7740   -5.4990   28.0030 C.ar  695  PHE695     -0.0000
    181  N         25.4560   -4.2580   27.3050 N.3   697  ILE697     -0.1231
    182  CA        25.5780   -4.9540   26.0300 C.3   697  ILE697      0.1692
    183  C         26.8460   -4.5400   25.2920 C.2   697  ILE697      0.2592
    184  O         27.5190   -3.5840   25.6860 O.2   697  ILE697     -0.2718
    185  CB        24.3690   -4.6930   25.1190 C.3   697  ILE697      0.0266
    186  CG1       24.2560   -3.2030   24.7980 C.3   697  ILE697      0.0019
    187  CG2       23.0950   -5.2110   25.7530 C.3   697  ILE697      0.0020
    188  CD1       23.2780   -2.8930   23.6860 C.3   697  ILE697      0.0001
    189  N         27.1590   -5.2700   24.2230 N.am  698  ASP698     -0.1974
    190  CA        28.2860   -4.9440   23.3490 C.3   698  ASP698      0.1709
    191  C         29.6120   -4.9590   24.1110 C.2   698  ASP698      0.2293
    192  O         30.1070   -3.9160   24.5320 O.2   698  ASP698     -0.2864
    193  CB        28.0640   -3.5760   22.6900 C.3   698  ASP698      0.1436
    194  CG        28.7200   -3.4690   21.3240 C.2   698  ASP698      0.3671
    195  OD1       29.8440   -3.9890   21.1610 O.co2 698  ASP698     -0.2456
    196  OD2       28.1070   -2.8700   20.4130 O.co2 698  ASP698     -0.2456
    197  N         32.5620   -6.3750   22.9270 N.3   700  GLY700     -0.1225
    198  CA        33.7020   -6.5640   22.0490 C.3   700  GLY700      0.1811
    199  C         34.6910   -5.4110   22.0770 C.2   700  GLY700      0.2280
    200  O         34.3030   -4.2430   22.0280 O.2   700  GLY700     -0.2866
@<TRIPOS>BOND
     1    20    21    1
     2    20    26    1
     3     4     3    2
     4    22    23    2
     5    22    21    1
     6    17    16    2
     7     1     2    1
     8    21    24    1
     9    51    52    2
    10    51    50    1
    11    30    29    2
    12    27    28    1
    13     3     2    1
    14     3     9   am
    15    26    25    1
    16    50    49    1
    17    50    53    1
    18    10     9    1
    19    10    13    1
    20    10    11    1
    21     2     5    1
    22    16    15    1
    23    29    28    1
    24    14    11   am
    25    14    15    1
    26    24    25    1
    27    28    31    1
    28    11    12    2
    29    55    56    1
    30    55    54    1
    31    15    18    1
    32    31    32    1
    33     5     6    1
    34    53    54    1
    35    56    57    1
    36    58    59    1
    37     8     7    1
    38    61    60    2
    39    18    19    1
    40     6     7    1
    41    43    44    2
    42    43    42    1
    43    33    32   ar
    44    33    35   ar
    45    32    34   ar
    46    59    60    1
    47    59    62    1
    48    42    41    1
    49    42    45    1
    50    47    45    1
    51    35    36   ar
    52    72    71    1
    53    65    63   ar
    54    34    37   ar
    55    34    36   ar
    56    62    63    1
    57    45    46    1
    58    63    64   ar
    59    37    39   ar
    60    36    38   ar
    61    46    48    1
    62    71    70    1
    63    71    73    1
    64    66    67    1
    65   101    99    1
    66    94    95    1
    67    70    67    1
    68   118   116    1
    69    39    40   ar
    70    38    40   ar
    71    67    68    1
    72    97    96    2
    73    99    98    1
    74   116   115    1
    75    95    98    1
    76    95    96    1
    77    68    69    2
    78    98   100    1
    79    96   102   am
    80   196   194   ar
    81   153   152    1
    82   115   117    1
    83   115   112    1
    84   195   194   ar
    85   152   151    1
    86    81    79   ar
    87   194   193    1
    88   102   103    1
    89   161   159   ar
    90   111   104   am
    91   111   112    1
    92   103   104    1
    93   103   106    1
    94   200   199    2
    95   198   199    1
    96   198   197    1
    97   151   150    1
    98   104   105    2
    99   112   113    1
   100   159   160   ar
   101   159   158    1
   102    79    78    1
   103    79    80   ar
   104   150   149    1
   105   193   190    1
   106    78    75    1
   107   158   155    1
   108    74    75    1
   109   106   107    1
   110   190   191    1
   111   190   189    1
   112   113   114    2
   113   113   119   am
   114   149   146    1
   115   188   186    1
   116    75    76    1
   117   107   108    1
   118   143   142    1
   119   191   192    2
   120   157   156    2
   121   189   183   am
   122   146   145    1
   123   146   147    1
   124   155   156    1
   125   155   154    1
   126   119   120    1
   127    76    77    2
   128   169   168    1
   129    90    88   ar
   130    90    92   ar
   131   129   128    2
   132   148   147    2
   133   142   144    1
   134   142   139    1
   135   186   185    1
   136   136   135    1
   137    88    87   ar
   138   168   167    1
   139   185   187    1
   140   185   182    1
   141   122   121    2
   142    93    92    1
   143   183   184    2
   144   183   182    1
   145   108   110   ar
   146   108   109   ar
   147    92    91   ar
   148   121   120    1
   149   138   139    1
   150   138   133   am
   151   120   123    1
   152   132   135    1
   153   132   133    1
   154   132   131    1
   155   135   137    1
   156   128   131   am
   157   128   127    1
   158   139   140    1
   159   182   181    1
   160    87    86    1
   161    87    89   ar
   162   167   166    1
   163    84    85    2
   164    84    83    1
   165   133   134    2
   166   126   127    1
   167    86    83    1
   168    91    89   ar
   169   123   125    1
   170   123   124    1
   171   141   140    2
   172   127   130    1
   173    83    82    1
   174   166   163    1
   175   179   180   ar
   176   179   177   ar
   177   180   178   ar
   178   163   162    1
   179   163   164    1
   180   177   175   ar
   181   178   176   ar
   182   164   165    2
   183   173   172    2
   184   175   176   ar
   185   175   174    1
   186   172   171    1
   187   174   171    1
   188   171   170    1
