@<TRIPOS>MOLECULE
tmp/5jhdJ00.pdb
 88 86 0 0 0
SMALL
GASTEIGER

@<TRIPOS>ATOM
      1  N         24.7930   76.2320   31.6490 N.3    46  TYR46      -0.1241
      2  CA        25.3130   76.1940   30.2930 C.3    46  TYR46       0.1605
      3  C         26.8310   76.1710   30.3520 C.2    46  TYR46       0.2264
      4  O         27.4380   76.6200   31.3270 O.2    46  TYR46      -0.2867
      5  CB        24.8770   77.4240   29.4850 C.3    46  TYR46       0.0534
      6  CG        23.7290   77.2190   28.5320 C.ar   46  TYR46      -0.0201
      7  CD1       23.9090   76.5490   27.3280 C.ar   46  TYR46      -0.0009
      8  CD2       22.4710   77.7320   28.8150 C.ar   46  TYR46      -0.0009
      9  CE1       22.8580   76.3760   26.4420 C.ar   46  TYR46       0.0417
     10  CE2       21.4150   77.5660   27.9370 C.ar   46  TYR46       0.0417
     11  CZ        21.6150   76.8880   26.7530 C.ar   46  TYR46       0.1957
     12  OH        20.5640   76.7230   25.8810 O.3    46  TYR46      -0.2866
     13  N         27.9580   75.2560   22.3730 N.3    54  PHE54      -0.1241
     14  CA        27.0690   75.4290   23.5140 C.3    54  PHE54       0.1605
     15  C         26.5770   74.0710   23.9810 C.2    54  PHE54       0.2264
     16  O         26.0470   73.2920   23.1870 O.2    54  PHE54      -0.2867
     17  CB        25.8790   76.3230   23.1530 C.3    54  PHE54       0.0534
     18  CG        26.2620   77.5620   22.4050 C.ar   54  PHE54      -0.0203
     19  CD1       26.6960   78.6860   23.0820 C.ar   54  PHE54      -0.0042
     20  CD2       26.1720   77.6080   21.0210 C.ar   54  PHE54      -0.0042
     21  CE1       27.0460   79.8320   22.3900 C.ar   54  PHE54      -0.0003
     22  CE2       26.5170   78.7500   20.3230 C.ar   54  PHE54      -0.0003
     23  CZ        26.9550   79.8630   21.0060 C.ar   54  PHE54      -0.0000
     24  N         24.1280   72.3410   26.9740 N.3    56  LYS56      -0.1245
     25  CA        23.1430   72.6180   28.0080 C.3    56  LYS56       0.1561
     26  C         23.4290   71.8080   29.2660 C.2    56  LYS56       0.2260
     27  O         23.8970   70.6670   29.2020 O.2    56  LYS56      -0.2867
     28  CB        21.7350   72.2960   27.5060 C.3    56  LYS56       0.0271
     29  CG        21.2030   73.2510   26.4560 C.3    56  LYS56       0.0035
     30  CD        19.8210   72.8130   25.9750 C.3    56  LYS56       0.0206
     31  CE        19.2380   73.7720   24.9470 C.3    56  LYS56       0.1093
     32  NZ        17.7760   73.5590   24.7450 N.3    56  LYS56      -0.1314
     33  N         18.9980   73.9610   31.9700 N.3    60  ALA60      -0.1231
     34  CA        19.2270   75.0050   30.9760 C.3    60  ALA60       0.1694
     35  C         17.9400   75.7310   30.5980 C.2    60  ALA60       0.2592
     36  O         17.9840   76.9230   30.2780 O.2    60  ALA60      -0.2718
     37  CB        19.8890   74.4160   29.7290 C.3    60  ALA60       0.0304
     38  N         16.7950   75.0490   30.6270 N.am   61  GLU61      -0.1966
     39  CA        15.5600   75.6700   30.1590 C.3    61  GLU61       0.1733
     40  C         15.2660   76.9470   30.9360 C.2    61  GLU61       0.2617
     41  O         15.4370   77.0110   32.1550 O.2    61  GLU61      -0.2715
     42  CB        14.3780   74.7050   30.2780 C.3    61  GLU61       0.0429
     43  CG        13.8980   74.1190   28.9380 C.3    61  GLU61       0.1163
     44  CD        13.5100   75.1860   27.9160 C.2    61  GLU61       0.3649
     45  OE1       12.8810   76.1920   28.3050 O.co2  61  GLU61      -0.2457
     46  OE2       13.8280   75.0140   26.7180 O.co2  61  GLU61      -0.2457
     47  N         14.7970   77.9640   30.2130 N.am   62  GLY62      -0.1940
     48  CA        14.6160   79.2880   30.7580 C.3    62  GLY62       0.2014
     49  C         15.8340   80.1750   30.6530 C.2    62  GLY62       0.2639
     50  O         15.7100   81.3920   30.8370 O.2    62  GLY62      -0.2714
     51  N         16.9970   79.6100   30.3450 N.am   63  TYR63      -0.1959
     52  CA        18.2280   80.3580   30.1690 C.3    63  TYR63       0.1771
     53  C         18.6880   80.2690   28.7180 C.2    63  TYR63       0.2620
     54  O         18.2590   79.4000   27.9520 O.2    63  TYR63      -0.2715
     55  CB        19.3360   79.8270   31.0860 C.3    63  TYR63       0.0574
     56  CG        19.0260   79.9030   32.5670 C.ar   63  TYR63      -0.0198
     57  CD1       19.1360   81.0980   33.2610 C.ar   63  TYR63      -0.0009
     58  CD2       18.6350   78.7710   33.2710 C.ar   63  TYR63      -0.0009
     59  CE1       18.8570   81.1650   34.6210 C.ar   63  TYR63       0.0417
     60  CE2       18.3550   78.8270   34.6210 C.ar   63  TYR63       0.0417
     61  CZ        18.4680   80.0250   35.2920 C.ar   63  TYR63       0.1957
     62  OH        18.1860   80.0740   36.6360 O.3    63  TYR63      -0.2866
     63  N         19.5660   81.1960   28.3470 N.am   64  SER64      -0.1936
     64  CA        20.2060   81.1840   27.0420 C.3    64  SER64       0.2055
     65  C         21.5540   81.8790   27.1630 C.2    64  SER64       0.2643
     66  O         21.7530   82.7230   28.0390 O.2    64  SER64      -0.2714
     67  CB        19.3330   81.8700   25.9880 C.3    64  SER64       0.2130
     68  OG        19.1570   83.2400   26.3030 O.3    64  SER64      -0.2179
     69  N         22.4790   81.5190   26.2730 N.am   65  VAL65      -0.1963
     70  CA        23.8350   82.0530   26.2890 C.3    65  VAL65       0.1727
     71  C         24.2860   82.3380   24.8610 C.2    65  VAL65       0.2616
     72  O         23.6620   81.9200   23.8840 O.2    65  VAL65      -0.2715
     73  CB        24.8300   81.0970   26.9790 C.3    65  VAL65       0.0290
     74  CG1       24.5530   81.0380   28.4670 C.3    65  VAL65       0.0023
     75  CG2       24.7480   79.7110   26.3680 C.3    65  VAL65       0.0023
     76  N         25.3860   83.0770   24.7550 N.am   66  SER66      -0.1950
     77  CA        26.0240   83.3360   23.4760 C.3    66  SER66       0.1924
     78  C         27.5310   83.3450   23.6790 C.2    66  SER66       0.2314
     79  O         28.0300   83.7430   24.7360 O.2    66  SER66      -0.2863
     80  CB        25.5660   84.6650   22.8610 C.3    66  SER66       0.2116
     81  OG        26.0890   85.7760   23.5710 O.3    66  SER66      -0.2180
     82  N         15.7110   84.4230   31.0350 N.3    78  THR78      -0.1218
     83  CA        14.4830   84.8290   30.3800 C.3    78  THR78       0.1862
     84  C         13.3400   84.8530   31.3860 C.2    78  THR78       0.2287
     85  O         13.4140   84.2660   32.4660 O.2    78  THR78      -0.2866
     86  CB        14.1330   83.8850   29.2250 C.3    78  THR78       0.1770
     87  OG1       13.6490   82.6410   29.7460 O.3    78  THR78      -0.2211
     88  CG2       15.3490   83.6250   28.3420 C.3    78  THR78       0.0375
@<TRIPOS>BOND
     1    22    23   ar
     2    22    20   ar
     3    23    21   ar
     4    20    18   ar
     5    13    14    1
     6    21    19   ar
     7    18    19   ar
     8    18    17    1
     9    80    77    1
    10    80    81    1
    11    17    14    1
    12    16    15    2
    13    77    78    1
    14    77    76    1
    15    14    15    1
    16    78    79    2
    17    72    71    2
    18    32    31    1
    19    76    71   am
    20    71    70    1
    21    31    30    1
    22    12    11    1
    23    30    29    1
    24    67    68    1
    25    67    64    1
    26    69    70    1
    27    69    65   am
    28    70    73    1
    29    75    73    1
    30     9    11   ar
    31     9     7   ar
    32    29    28    1
    33    46    44   ar
    34    11    10   ar
    35    24    25    1
    36    73    74    1
    37    64    65    1
    38    64    63    1
    39    65    66    2
    40     7     6   ar
    41    28    25    1
    42    44    45   ar
    43    44    43    1
    44    10     8   ar
    45    54    53    2
    46    25    26    1
    47    88    86    1
    48    63    53   am
    49     6     8   ar
    50     6     5    1
    51    53    52    1
    52    43    42    1
    53    27    26    2
    54    86    87    1
    55    86    83    1
    56     5     2    1
    57    37    34    1
    58    39    42    1
    59    39    38    1
    60    39    40    1
    61    52    51    1
    62    52    55    1
    63    47    48    1
    64    47    40   am
    65    36    35    2
    66     2     3    1
    67     2     1    1
    68    51    49   am
    69     3     4    2
    70    83    82    1
    71    83    84    1
    72    35    38   am
    73    35    34    1
    74    49    48    1
    75    49    50    2
    76    40    41    2
    77    34    33    1
    78    55    56    1
    79    84    85    2
    80    56    57   ar
    81    56    58   ar
    82    57    59   ar
    83    58    60   ar
    84    59    61   ar
    85    60    61   ar
    86    61    62    1
