@<TRIPOS>MOLECULE
tmp/5jhhB00.pdb
 120 114 0 0 0
SMALL
GASTEIGER

@<TRIPOS>ATOM
      1  N        -22.3670   18.4270   31.6400 N.3    11  ASP11      -0.1225
      2  CA       -23.0370   17.4740   30.7720 C.3    11  ASP11       0.1805
      3  C        -24.3260   17.0820   31.4410 C.2    11  ASP11       0.2598
      4  O        -24.4570   17.1560   32.6500 O.2    11  ASP11      -0.2718
      5  CB       -22.1820   16.2290   30.4910 C.3    11  ASP11       0.1424
      6  CG       -20.9820   16.5190   29.6070 C.2    11  ASP11       0.3668
      7  OD1      -20.9020   17.6130   29.0390 O.co2  11  ASP11      -0.2456
      8  OD2      -20.0880   15.6570   29.4900 O.co2  11  ASP11      -0.2456
      9  N        -25.2820   16.6940   30.6160 N.am   12  GLY12      -0.1942
     10  CA       -26.5810   16.2300   31.0470 C.3    12  GLY12       0.2014
     11  C        -26.5980   15.0390   31.9770 C.2    12  GLY12       0.2638
     12  O        -27.5730   14.8500   32.6970 O.2    12  GLY12      -0.2714
     13  N        -25.5380   14.2540   32.0230 N.am   13  ALA13      -0.1977
     14  CA       -25.5720   13.0790   32.9100 C.3    13  ALA13       0.1597
     15  C        -25.0770   13.3850   34.3590 C.2    13  ALA13       0.2287
     16  O        -25.1380   12.5430   35.2560 O.2    13  ALA13      -0.2864
     17  CB       -24.7690   11.9230   32.2920 C.3    13  ALA13       0.0319
     18  N        -25.7260   15.2360   37.0200 N.3    15  GLY15      -0.1210
     19  CA       -26.4200   15.5390   38.2760 C.3    15  GLY15       0.1956
     20  C        -26.5510   17.0100   38.6610 C.2    15  GLY15       0.2612
     21  O        -26.6590   17.3180   39.8270 O.2    15  GLY15      -0.2717
     22  N        -26.6180   17.9100   37.6850 N.am   16  LYS16      -0.1965
     23  CA       -26.7770   19.3550   37.9720 C.3    16  LYS16       0.1728
     24  C        -28.0200   19.6440   38.7990 C.2    16  LYS16       0.2617
     25  O        -27.9600   20.3620   39.8080 O.2    16  LYS16      -0.2715
     26  CB       -26.8100   20.1790   36.6830 C.3    16  LYS16       0.0311
     27  CG       -25.5210   20.1270   35.8750 C.3    16  LYS16       0.0038
     28  CD       -25.5670   20.9700   34.6090 C.3    16  LYS16       0.0206
     29  CE       -26.3890   20.3400   33.4660 C.3    16  LYS16       0.1093
     30  NZ       -26.5220   21.3730   32.3570 N.3    16  LYS16      -0.1314
     31  N        -29.1450   19.0920   38.3830 N.am   17  THR17      -0.1937
     32  CA       -30.4420   19.4780   38.9310 C.3    17  THR17       0.2028
     33  C        -30.5270   19.0430   40.3660 C.2    17  THR17       0.2642
     34  O        -30.8960   19.7810   41.2630 O.2    17  THR17      -0.2714
     35  CB       -31.5400   18.7920   38.1330 C.3    17  THR17       0.1808
     36  OG1      -31.4520   19.2920   36.8070 O.3    17  THR17      -0.2208
     37  CG2      -32.9150   19.0990   38.6940 C.3    17  THR17       0.0379
     38  N        -30.1240   17.8180   40.5760 N.am   18  CYS18      -0.1967
     39  CA       -30.1500   17.2330   41.8840 C.3    18  CYS18       0.1712
     40  C        -29.2500   17.9580   42.9170 C.2    18  CYS18       0.2296
     41  O        -29.6320   18.1990   44.0340 O.2    18  CYS18      -0.2864
     42  CB       -29.7440   15.7700   41.7320 C.3    18  CYS18       0.0983
     43  SG       -30.0570   14.8850   43.2480 S.3    18  CYS18      -0.0798
     44  N        -31.3960   15.5070   50.6270 N.3    28  PHE28      -0.1241
     45  CA       -31.4930   14.6160   49.4810 C.3    28  PHE28       0.1605
     46  C        -32.9040   14.0730   49.4270 C.2    28  PHE28       0.2264
     47  O        -33.4140   13.6020   50.4270 O.2    28  PHE28      -0.2867
     48  CB       -30.4830   13.4680   49.5270 C.3    28  PHE28       0.0534
     49  CG       -30.5270   12.5960   48.2990 C.ar   28  PHE28      -0.0203
     50  CD1      -29.8430   12.9650   47.1390 C.ar   28  PHE28      -0.0042
     51  CD2      -31.3020   11.4390   48.2710 C.ar   28  PHE28      -0.0042
     52  CE1      -29.9150   12.1870   45.9890 C.ar   28  PHE28      -0.0003
     53  CE2      -31.3680   10.6500   47.1220 C.ar   28  PHE28      -0.0003
     54  CZ       -30.6740   11.0270   45.9810 C.ar   28  PHE28      -0.0000
     55  N        -36.6920   11.8950   42.9820 N.3    33  VAL33      -0.1231
     56  CA       -35.7940   12.9190   42.5180 C.3    33  VAL33       0.1678
     57  C        -36.4280   13.7080   41.3580 C.2    33  VAL33       0.2434
     58  O        -36.5900   13.1850   40.2590 O.2    33  VAL33      -0.2733
     59  CB       -34.4730   12.3290   42.0320 C.3    33  VAL33       0.0265
     60  CG1      -33.5200   13.4610   41.6730 C.3    33  VAL33       0.0020
     61  CG2      -33.8610   11.4080   43.0950 C.3    33  VAL33       0.0020
     62  N        -36.7720   14.9760   41.6090 N.am   34  PRO34      -0.2729
     63  CA       -37.3710   15.8560   40.6120 C.3    34  PRO34       0.1401
     64  C        -36.4870   16.0730   39.3970 C.2    34  PRO34       0.2269
     65  O        -35.2520   16.0760   39.5070 O.2    34  PRO34      -0.2865
     66  CB       -37.5290   17.1740   41.3690 C.3    34  PRO34       0.0296
     67  CG       -37.7050   16.7620   42.7880 C.3    34  PRO34       0.0237
     68  CD       -36.7860   15.5900   42.9410 C.3    34  PRO34       0.0939
     69  N        -30.0470   22.1110   32.9570 N.3    59  ALA59      -0.1245
     70  CA       -30.3930   20.7630   32.5480 C.3    59  ALA59       0.1562
     71  C        -31.4050   20.7750   31.3880 C.2    59  ALA59       0.2260
     72  O        -32.4490   21.4330   31.4450 O.2    59  ALA59      -0.2867
     73  CB       -30.9500   20.0020   33.7340 C.3    59  ALA59       0.0290
     74  N        -19.1210   16.0400   40.9380 N.3   115  ASN115     -0.1225
     75  CA       -20.2590   15.4180   41.5840 C.3   115  ASN115      0.1785
     76  C        -20.0690   13.9030   41.7060 C.2   115  ASN115      0.2597
     77  O        -19.1610   13.3290   41.1210 O.2   115  ASN115     -0.2718
     78  CB       -21.5530   15.6310   40.7740 C.3   115  ASN115      0.1169
     79  CG       -22.0870   17.0440   40.8740 C.2   115  ASN115      0.2627
     80  OD1      -21.9350   17.6990   41.9080 O.2   115  ASN115     -0.2716
     81  ND2      -22.7070   17.5380   39.7820 N.am  115  ASN115     -0.0877
     82  N        -21.0060   13.2940   42.4190 N.am  116  LYS116     -0.1980
     83  CA       -21.1130   11.8670   42.5800 C.3   116  LYS116      0.1596
     84  C        -19.8680   11.2140   43.2030 C.2   116  LYS116      0.2287
     85  O        -19.4520   10.1570   42.7720 O.2   116  LYS116     -0.2864
     86  CB       -21.4920   11.2520   41.2200 C.3   116  LYS116      0.0298
     87  CG       -22.8220   11.8140   40.6970 C.3   116  LYS116      0.0038
     88  CD       -23.3120   11.0970   39.4580 C.3   116  LYS116      0.0206
     89  CE       -24.5370   11.7590   38.8330 C.3   116  LYS116      0.1093
     90  NZ       -25.0570   10.9340   37.7050 N.3   116  LYS116     -0.1314
     91  N        -19.3720    9.7980   45.9020 N.3   118  ASP118     -0.1225
     92  CA       -19.7230    8.5860   46.5680 C.3   118  ASP118      0.1805
     93  C        -19.5810    7.3750   45.6650 C.2   118  ASP118      0.2597
     94  O        -19.7910    6.2580   46.1060 O.2   118  ASP118     -0.2718
     95  CB       -21.1770    8.6700   47.0720 C.3   118  ASP118      0.1424
     96  CG       -22.1500    9.1370   45.9930 C.2   118  ASP118      0.3668
     97  OD1      -21.9200   10.2270   45.4490 O.co2 118  ASP118     -0.2456
     98  OD2      -23.1530    8.4520   45.7100 O.co2 118  ASP118     -0.2456
     99  N        -19.2920    7.5890   44.3900 N.am  119  LEU119     -0.1979
    100  CA       -19.2630    6.5040   43.4440 C.3   119  LEU119      0.1596
    101  C        -17.8240    6.1980   43.0820 C.2   119  LEU119      0.2287
    102  O        -17.5590    5.1970   42.4150 O.2   119  LEU119     -0.2864
    103  CB       -20.0600    6.8730   42.1800 C.3   119  LEU119      0.0297
    104  CG       -21.4960    6.3390   42.0530 C.3   119  LEU119      0.0022
    105  CD1      -22.2270    6.3600   43.3830 C.3   119  LEU119      0.0001
    106  CD2      -22.2870    7.1020   41.0010 C.3   119  LEU119      0.0001
    107  N        -24.2700   14.3960   46.1540 N.3   159  ALA159     -0.1231
    108  CA       -25.5980   14.8480   46.4900 C.3   159  ALA159      0.1694
    109  C        -26.3000   13.8670   47.4040 C.2   159  ALA159      0.2591
    110  O        -27.0790   14.2960   48.2450 O.2   159  ALA159     -0.2718
    111  CB       -26.4250   15.0610   45.2480 C.3   159  ALA159      0.0304
    112  N        -26.0720   12.5670   47.2050 N.am  160  LYS160     -0.1980
    113  CA       -26.8400   11.5460   47.9270 C.3   160  LYS160      0.1596
    114  C        -26.5640   11.6810   49.4170 C.2   160  LYS160      0.2287
    115  O        -27.4930   11.6760   50.2280 O.2   160  LYS160     -0.2864
    116  CB       -26.5120   10.1280   47.4630 C.3   160  LYS160      0.0298
    117  CG       -27.5990    9.1080   47.8340 C.3   160  LYS160      0.0038
    118  CD       -27.0800    7.7870   48.4340 C.3   160  LYS160      0.0206
    119  CE       -25.9660    7.1250   47.6270 C.3   160  LYS160      0.1093
    120  NZ       -26.2740    7.0550   46.1730 N.3   160  LYS160     -0.1314
@<TRIPOS>BOND
     1     7     6   ar
     2     8     6   ar
     3     6     5    1
     4     5     2    1
     5     9    10    1
     6     9     3   am
     7     2     3    1
     8     2     1    1
     9    10    11    1
    10    71    72    2
    11    71    70    1
    12     3     4    2
    13    11    13   am
    14    11    12    2
    15    13    14    1
    16    17    14    1
    17    30    29    1
    18    70    69    1
    19    70    73    1
    20    14    15    1
    21    29    28    1
    22    15    16    2
    23    28    27    1
    24    27    26    1
    25    26    23    1
    26    36    35    1
    27    18    19    1
    28    22    23    1
    29    22    20   am
    30    90    89    1
    31    23    24    1
    32    35    37    1
    33    35    32    1
    34    19    20    1
    35    31    24   am
    36    31    32    1
    37    20    21    2
    38    24    25    2
    39    89    88    1
    40    32    33    1
    41    64    65    2
    42    64    63    1
    43    88    87    1
    44    81    79   am
    45    58    57    2
    46    33    38   am
    47    33    34    2
    48    38    39    1
    49    63    66    1
    50    63    62    1
    51    87    86    1
    52    78    79    1
    53    78    75    1
    54    79    80    2
    55    74    75    1
    56   106   104    1
    57    77    76    2
    58    86    83    1
    59    57    62   am
    60    57    56    1
    61    66    67    1
    62    75    76    1
    63    62    68    1
    64    60    59    1
    65    76    82   am
    66    42    39    1
    67    42    43    1
    68    39    40    1
    69    59    56    1
    70    59    61    1
    71   104   103    1
    72   104   105    1
    73   103   100    1
    74   102   101    2
    75    82    83    1
    76    56    55    1
    77    83    84    1
    78    85    84    2
    79    67    68    1
    80    40    41    2
    81   101   100    1
    82   100    99    1
    83    99    93   am
    84   111   108    1
    85    97    96   ar
    86    93    94    2
    87    93    92    1
    88    98    96   ar
    89    91    92    1
    90    54    52   ar
    91    54    53   ar
    92    52    50   ar
    93    96    95    1
    94   107   108    1
    95   120   119    1
    96   108   109    1
    97    92    95    1
    98    53    51   ar
    99    50    49   ar
   100   112   109   am
   101   112   113    1
   102   109   110    2
   103   116   117    1
   104   116   113    1
   105   119   118    1
   106   117   118    1
   107   113   114    1
   108    51    49   ar
   109    49    48    1
   110   114   115    2
   111    46    45    1
   112    46    47    2
   113    45    48    1
   114    45    44    1
