@<TRIPOS>MOLECULE
tmp/5jhrK00.pdb
 135 128 0 0 0
SMALL
GASTEIGER

@<TRIPOS>ATOM
      1  N         11.5570 -140.5230    9.8240 N.3     1  THR1       -0.1218
      2  CA        11.3240 -139.4650    8.7960 C.3     1  THR1        0.1862
      3  C         11.7490 -139.8740    7.3890 C.2     1  THR1        0.2287
      4  O         12.6700 -140.6670    7.2030 O.2     1  THR1       -0.2866
      5  CB        12.0830 -138.2030    9.1720 C.3     1  THR1        0.1770
      6  OG1       11.5700 -137.7710   10.4000 O.3     1  THR1       -0.2211
      7  CG2       11.8480 -137.0300    8.2170 C.3     1  THR1        0.0375
      8  N          5.1280 -139.2570    9.9250 N.3    19  ARG19      -0.1231
      9  CA         5.2410 -140.1430   11.0770 C.3    19  ARG19       0.1694
     10  C          6.2450 -139.6500   12.1060 C.2    19  ARG19       0.2592
     11  O          7.3220 -139.1650   11.7600 O.2    19  ARG19      -0.2718
     12  CB         5.6250 -141.5550   10.6540 C.3    19  ARG19       0.0321
     13  CG         5.7690 -142.4910   11.8450 C.3    19  ARG19       0.0489
     14  CD         5.8840 -143.9430   11.4370 C.3    19  ARG19       0.2205
     15  NE         4.6930 -144.4120   10.7380 N.pl3  19  ARG19      -0.0865
     16  CZ         4.4840 -145.6750   10.3810 C.cat  19  ARG19       0.5346
     17  NH1        5.3840 -146.6130   10.6600 N.pl3  19  ARG19       0.1354
     18  NH2        3.3670 -146.0050    9.7440 N.pl3  19  ARG19       0.1354
     19  N          5.8770 -139.8020   13.3740 N.am   20  ALA20      -0.1966
     20  CA         6.7560 -139.5010   14.4910 C.3    20  ALA20       0.1728
     21  C          6.8590 -140.7360   15.3610 C.2    20  ALA20       0.2617
     22  O          5.8560 -141.4030   15.6260 O.2    20  ALA20      -0.2715
     23  CB         6.2160 -138.3390   15.2970 C.3    20  ALA20       0.0334
     24  N          8.0740 -141.0290   15.8110 N.am   21  THR21      -0.1937
     25  CA         8.3300 -142.2280   16.5920 C.3    21  THR21       0.2028
     26  C          9.0050 -141.9140   17.9180 C.2    21  THR21       0.2642
     27  O          9.6590 -140.8810   18.0750 O.2    21  THR21      -0.2714
     28  CB         9.2020 -143.2250   15.8040 C.3    21  THR21       0.1808
     29  OG1       10.4270 -142.5930   15.4070 O.3    21  THR21      -0.2208
     30  CG2        8.4600 -143.7120   14.5680 C.3    21  THR21       0.0379
     31  N          8.8160 -142.8180   18.8700 N.am   22  ALA22      -0.1977
     32  CA         9.4900 -142.7650   20.1580 C.3    22  ALA22       0.1597
     33  C         10.0430 -144.1610   20.4060 C.2    22  ALA22       0.2287
     34  O          9.4590 -144.9640   21.1380 O.2    22  ALA22      -0.2864
     35  CB         8.5210 -142.3560   21.2510 C.3    22  ALA22       0.0319
     36  N          7.6830 -147.1280   19.1660 N.3    25  TRP25      -0.1241
     37  CA         6.3500 -146.6160   19.4000 C.3    25  TRP25       0.1605
     38  C          6.0610 -145.5760   18.3260 C.2    25  TRP25       0.2264
     39  O          6.8540 -144.6560   18.1190 O.2    25  TRP25      -0.2867
     40  CB         6.2870 -146.0000   20.8040 C.3    25  TRP25       0.0550
     41  CG         5.1000 -145.1460   21.0690 C.ar   25  TRP25       0.0003
     42  CD1        5.0930 -143.8010   21.3110 C.ar   25  TRP25       0.0946
     43  CD2        3.7430 -145.5720   21.1280 C.ar   25  TRP25       0.0152
     44  NE1        3.8110 -143.3630   21.5160 N.ar   25  TRP25      -0.2442
     45  CE2        2.9600 -144.4310   21.4080 C.ar   25  TRP25       0.0810
     46  CE3        3.1070 -146.8070   20.9670 C.ar   25  TRP25       0.0012
     47  CZ2        1.5750 -144.4890   21.5310 C.ar   25  TRP25       0.0191
     48  CZ3        1.7310 -146.8640   21.0900 C.ar   25  TRP25       0.0001
     49  CH2        0.9800 -145.7110   21.3670 C.ar   25  TRP25       0.0015
     50  N          4.2930 -142.5410   17.6280 N.3    27  ALA27      -0.1231
     51  CA         3.7030 -141.4860   18.4380 C.3    27  ALA27       0.1694
     52  C          2.6230 -140.7480   17.6680 C.2    27  ALA27       0.2592
     53  O          1.5610 -140.4470   18.2130 O.2    27  ALA27      -0.2718
     54  CB         4.7770 -140.5130   18.8920 C.3    27  ALA27       0.0304
     55  N          2.8950 -140.4640   16.4000 N.am   28  SER28      -0.1952
     56  CA         1.9690 -139.7070   15.5750 C.3    28  SER28       0.1924
     57  C          2.0860 -140.1060   14.1110 C.2    28  SER28       0.2314
     58  O          3.1310 -140.5770   13.6650 O.2    28  SER28      -0.2863
     59  CB         2.2410 -138.2100   15.7370 C.3    28  SER28       0.2116
     60  OG         1.3030 -137.4270   15.0170 O.3    28  SER28      -0.2180
     61  N          2.0030 -135.6200   11.7240 N.3    31  VAL31      -0.1245
     62  CA         2.9560 -134.5600   12.0140 C.3    31  VAL31       0.1561
     63  C          3.2180 -133.7320   10.7680 C.2    31  VAL31       0.2260
     64  O          3.2790 -134.2590    9.6550 O.2    31  VAL31      -0.2867
     65  CB         4.2770 -135.1230   12.5700 C.3    31  VAL31       0.0252
     66  CG1        5.3350 -134.0340   12.6910 C.3    31  VAL31       0.0019
     67  CG2        4.0210 -135.7510   13.9240 C.3    31  VAL31       0.0019
     68  N          5.7200 -131.8390    8.7370 N.3    33  LYS33      -0.1245
     69  CA         7.1700 -131.7860    8.5650 C.3    33  LYS33       0.1561
     70  C          7.6270 -130.7380    7.5710 C.2    33  LYS33       0.2260
     71  O          8.8250 -130.5630    7.3630 O.2    33  LYS33      -0.2867
     72  CB         7.6960 -133.1500    8.1550 C.3    33  LYS33       0.0271
     73  CG         7.6520 -134.1180    9.3080 C.3    33  LYS33       0.0035
     74  CD         7.9230 -135.5280    8.8590 C.3    33  LYS33       0.0206
     75  CE         7.8310 -136.4570   10.0450 C.3    33  LYS33       0.1093
     76  NZ         8.3720 -137.7850    9.6870 N.3    33  LYS33      -0.1314
     77  N         11.4020 -130.8040    8.1500 N.3    45  MET45      -0.1230
     78  CA        11.7860 -131.3260    9.4570 C.3    45  MET45       0.1702
     79  C         12.2830 -132.7620    9.3300 C.2    45  MET45       0.2592
     80  O         11.6490 -133.5970    8.6830 O.2    45  MET45      -0.2718
     81  CB        10.5980 -131.2820   10.4270 C.3    45  MET45       0.0401
     82  CG        10.6830 -132.2950   11.5730 C.3    45  MET45       0.0596
     83  SD         9.1190 -132.6710   12.3970 S.3    45  MET45      -0.1393
     84  CE         8.5740 -131.0280   12.8460 C.3    45  MET45       0.0692
     85  N         13.4120 -133.0370    9.9730 N.am   46  ALA46      -0.1966
     86  CA        13.9520 -134.3860   10.0770 C.3    46  ALA46       0.1728
     87  C         14.9420 -134.4110   11.2310 C.2    46  ALA46       0.2617
     88  O         15.7360 -133.4880   11.3910 O.2    46  ALA46      -0.2715
     89  CB        14.6310 -134.7980    8.7840 C.3    46  ALA46       0.0334
     90  N         14.8840 -135.4640   12.0380 N.am   47  GLY47      -0.1940
     91  CA        15.7050 -135.5610   13.2390 C.3    47  GLY47       0.2014
     92  C         14.8360 -135.3240   14.4560 C.2    47  GLY47       0.2639
     93  O         13.7770 -135.9390   14.5990 O.2    47  GLY47      -0.2714
     94  N         15.2700 -134.4220   15.3300 N.am   48  GLY48      -0.1939
     95  CA        14.4840 -134.0520   16.5000 C.3    48  GLY48       0.2014
     96  C         13.3240 -133.1670   16.0850 C.2    48  GLY48       0.2639
     97  O         13.5240 -132.1470   15.4220 O.2    48  GLY48      -0.2714
     98  N         12.1110 -133.5590   16.4660 N.am   49  ALA49      -0.1963
     99  CA        10.9120 -132.8110   16.0960 C.3    49  ALA49       0.1728
    100  C         10.9370 -131.4100   16.6950 C.2    49  ALA49       0.2616
    101  O         10.7980 -130.4190   15.9810 O.2    49  ALA49      -0.2715
    102  CB         9.6660 -133.5530   16.5480 C.3    49  ALA49       0.0334
    103  N         11.1260 -131.3400   18.0080 N.am   50  ALA50      -0.1977
    104  CA        11.1690 -130.0680   18.7250 C.3    50  ALA50       0.1597
    105  C         12.2600 -129.1580   18.1800 C.2    50  ALA50       0.2287
    106  O         12.0130 -127.9890   17.9030 O.2    50  ALA50      -0.2864
    107  CB        11.3900 -130.3080   20.2090 C.3    50  ALA50       0.0319
    108  N         19.5830 -132.2310   16.9750 N.3    96  SER96      -0.1217
    109  CA        19.4550 -133.2250   15.9200 C.3    96  SER96       0.1889
    110  C         18.5230 -132.6910   14.8430 C.2    96  SER96       0.2288
    111  O         17.3080 -132.6520   15.0310 O.2    96  SER96      -0.2866
    112  CB        18.9170 -134.5350   16.4960 C.3    96  SER96       0.2089
    113  OG        18.9030 -135.5560   15.5150 O.3    96  SER96      -0.2183
    114  N         16.4150 -138.0740    6.0790 N.3   130  GLY130     -0.1210
    115  CA        15.6400 -138.8620    7.0270 C.3   130  GLY130      0.1956
    116  C         16.0790 -140.3100    7.0710 C.2   130  GLY130      0.2612
    117  O         16.9450 -140.7340    6.3100 O.2   130  GLY130     -0.2717
    118  N         15.4620 -141.0730    7.9660 N.am  131  SER131     -0.1952
    119  CA        15.7610 -142.4930    8.1140 C.3   131  SER131      0.1924
    120  C         15.3620 -143.3080    6.8820 C.2   131  SER131      0.2314
    121  O         15.8280 -144.4320    6.7060 O.2   131  SER131     -0.2863
    122  CB        15.0590 -143.0540    9.3520 C.3   131  SER131      0.2116
    123  OG        13.6530 -142.9180    9.2470 O.3   131  SER131     -0.2180
    124  N         10.1620 -146.5590   10.2170 N.3   170  TYR170     -0.1241
    125  CA        10.0100 -145.2830   10.9130 C.3   170  TYR170      0.1605
    126  C          9.5290 -144.1700    9.9870 C.2   170  TYR170      0.2264
    127  O          9.6220 -142.9960   10.3290 O.2   170  TYR170     -0.2867
    128  CB        11.3320 -144.8940   11.5760 C.3   170  TYR170      0.0534
    129  CG        11.8490 -145.9760   12.4880 C.ar  170  TYR170     -0.0201
    130  CD1       11.1770 -146.2940   13.6600 C.ar  170  TYR170     -0.0009
    131  CD2       12.9900 -146.6990   12.1700 C.ar  170  TYR170     -0.0009
    132  CE1       11.6350 -147.2930   14.4980 C.ar  170  TYR170      0.0417
    133  CE2       13.4570 -147.7000   13.0040 C.ar  170  TYR170      0.0417
    134  CZ        12.7740 -147.9920   14.1650 C.ar  170  TYR170      0.1957
    135  OH        13.2290 -148.9860   14.9950 O.3   170  TYR170     -0.2866
@<TRIPOS>BOND
     1   114   115    1
     2   117   116    2
     3   121   120    2
     4   120   119    1
     5   115   116    1
     6   116   118   am
     7     4     3    2
     8    71    70    2
     9     3     2    1
    10    70    69    1
    11   118   119    1
    12   119   122    1
    13    77    78    1
    14    72    69    1
    15    72    73    1
    16     7     5    1
    17    69    68    1
    18    80    79    2
    19    89    86    1
    20     2     5    1
    21     2     1    1
    22    74    73    1
    23    74    75    1
    24     5     6    1
    25   123   122    1
    26    79    78    1
    27    79    85   am
    28    78    81    1
    29    64    63    2
    30    76    75    1
    31    18    16    1
    32     8     9    1
    33    85    86    1
    34   126   127    2
    35   126   125    1
    36    86    87    1
    37   124   125    1
    38    16    17    1
    39    16    15    2
    40    81    82    1
    41    12     9    1
    42    12    13    1
    43    15    14    1
    44    63    62    1
    45   125   128    1
    46     9    10    1
    47    87    88    2
    48    87    90   am
    49    14    13    1
    50    82    83    1
    51   128   129    1
    52    61    62    1
    53    11    10    2
    54    62    65    1
    55    90    91    1
    56    10    19   am
    57   131   129   ar
    58   131   133   ar
    59    83    84    1
    60   129   130   ar
    61    65    66    1
    62    65    67    1
    63   133   134   ar
    64    91    92    1
    65    19    20    1
    66   130   132   ar
    67    58    57    2
    68    57    56    1
    69   134   132   ar
    70   134   135    1
    71    92    93    2
    72    92    94   am
    73    20    23    1
    74    20    21    1
    75    30    28    1
    76   110   111    2
    77   110   109    1
    78    60    59    1
    79    94    95    1
    80    21    22    2
    81    21    24   am
    82    29    28    1
    83    97    96    2
    84   113   112    1
    85    56    59    1
    86    56    55    1
    87    28    25    1
    88    24    25    1
    89   109   112    1
    90   109   108    1
    91   101   100    2
    92    96    98   am
    93    96    95    1
    94    99    98    1
    95    99   102    1
    96    99   100    1
    97    55    52   am
    98    25    26    1
    99   100   103   am
   100    50    51    1
   101    52    53    2
   102    52    51    1
   103   106   105    2
   104    26    27    2
   105    26    31   am
   106   103   104    1
   107    39    38    2
   108   105   104    1
   109    38    37    1
   110    51    54    1
   111   104   107    1
   112    31    32    1
   113    36    37    1
   114    37    40    1
   115    32    33    1
   116    32    35    1
   117    33    34    2
   118    40    41    1
   119    46    48   ar
   120    46    43   ar
   121    41    43   ar
   122    41    42   ar
   123    48    49   ar
   124    43    45   ar
   125    42    44   ar
   126    49    47   ar
   127    45    44   ar
   128    45    47   ar
