@<TRIPOS>MOLECULE
tmp/5jhrZ00.pdb
 125 122 0 0 0
SMALL
GASTEIGER

@<TRIPOS>ATOM
      1  N         53.0050 -169.0720   23.0480 N.3   101  ARG101     -0.1245
      2  CA        52.6520 -167.8930   22.2500 C.3   101  ARG101      0.1563
      3  C         51.4990 -167.0920   22.8560 C.2   101  ARG101      0.2260
      4  O         51.4560 -165.8670   22.7320 O.2   101  ARG101     -0.2867
      5  CB        52.3060 -168.3250   20.8180 C.3   101  ARG101      0.0307
      6  CG        51.5900 -167.2890   19.9710 C.3   101  ARG101      0.0489
      7  CD        52.4690 -166.0910   19.6730 C.3   101  ARG101      0.2205
      8  NE        51.7740 -165.1570   18.7950 N.pl3 101  ARG101     -0.0865
      9  CZ        50.8290 -164.3050   19.1830 C.cat 101  ARG101      0.5346
     10  NH1       50.4410 -164.2410   20.4530 N.pl3 101  ARG101      0.1354
     11  NH2       50.2630 -163.5060   18.2890 N.pl3 101  ARG101      0.1354
     12  N         53.1210 -165.7520   26.9280 N.3   104  PRO104     -0.2116
     13  CA        54.5470 -165.6700   26.6070 C.3   104  PRO104      0.1372
     14  C         55.5020 -165.6510   27.7870 C.2   104  PRO104      0.2244
     15  O         55.1360 -165.2400   28.8890 O.2   104  PRO104     -0.2868
     16  CB        54.6530 -164.3400   25.8460 C.3   104  PRO104      0.0268
     17  CG        53.2830 -164.0910   25.3250 C.3   104  PRO104      0.0207
     18  CD        52.4010 -164.5690   26.4280 C.3   104  PRO104      0.0892
     19  N         58.1330 -163.5920   29.2790 N.3   106  TYR106     -0.1241
     20  CA        58.3570 -162.1500   29.1530 C.3   106  TYR106      0.1605
     21  C         59.8450 -161.8500   29.1900 C.2   106  TYR106      0.2264
     22  O         60.3450 -161.2540   30.1430 O.2   106  TYR106     -0.2867
     23  CB        57.6300 -161.3900   30.2660 C.3   106  TYR106      0.0534
     24  CG        56.6810 -160.3420   29.7510 C.ar  106  TYR106     -0.0201
     25  CD1       55.5000 -160.7160   29.1200 C.ar  106  TYR106     -0.0009
     26  CD2       56.9520 -158.9830   29.8960 C.ar  106  TYR106     -0.0009
     27  CE1       54.6120 -159.7710   28.6430 C.ar  106  TYR106      0.0417
     28  CE2       56.0680 -158.0260   29.4210 C.ar  106  TYR106      0.0417
     29  CZ        54.8990 -158.4270   28.7950 C.ar  106  TYR106      0.1957
     30  OH        54.0120 -157.4900   28.3170 O.3   106  TYR106     -0.2866
     31  N         63.6700 -161.1950   26.6590 N.3   108  HIS108     -0.1226
     32  CA        64.4610 -161.1030   25.4480 C.3   108  HIS108      0.1752
     33  C         65.6330 -162.0400   25.6330 C.2   108  HIS108      0.2597
     34  O         66.3960 -161.9120   26.5930 O.2   108  HIS108     -0.2718
     35  CB        64.9470 -159.6760   25.2110 C.3   108  HIS108      0.0759
     36  CG        63.8800 -158.7600   24.7030 C.ar  108  HIS108      0.0818
     37  ND1       63.8630 -157.4080   24.9730 N.ar  108  HIS108     -0.2268
     38  CD2       62.7800 -159.0070   23.9530 C.ar  108  HIS108      0.1154
     39  CE1       62.8060 -156.8600   24.3990 C.ar  108  HIS108      0.1986
     40  NE2       62.1310 -157.8090   23.7750 N.ar  108  HIS108     -0.2212
     41  N         65.7640 -162.9920   24.7160 N.am  109  THR109     -0.1939
     42  CA        66.7430 -164.0520   24.8560 C.3   109  THR109      0.2028
     43  C         67.8820 -163.8600   23.8710 C.2   109  THR109      0.2642
     44  O         67.6700 -163.4410   22.7350 O.2   109  THR109     -0.2714
     45  CB        66.0990 -165.4270   24.6260 C.3   109  THR109      0.1808
     46  OG1       64.8890 -165.5230   25.3900 O.3   109  THR109     -0.2208
     47  CG2       67.0530 -166.5450   25.0290 C.3   109  THR109      0.0379
     48  N         69.0920 -164.1590   24.3310 N.am  110  ILE110     -0.1977
     49  CA        70.2720 -164.1550   23.4830 C.3   110  ILE110      0.1596
     50  C         71.1030 -165.3740   23.8270 C.2   110  ILE110      0.2287
     51  O         71.2580 -165.7160   25.0000 O.2   110  ILE110     -0.2864
     52  CB        71.1360 -162.8980   23.6910 C.3   110  ILE110      0.0276
     53  CG1       70.3080 -161.6370   23.4450 C.3   110  ILE110      0.0022
     54  CG2       72.3390 -162.9170   22.7550 C.3   110  ILE110      0.0022
     55  CD1       71.0490 -160.3480   23.7240 C.3   110  ILE110      0.0001
     56  N         69.5390 -163.8890   18.5970 N.3   124  SER124     -0.1202
     57  CA        68.6370 -163.1450   19.4730 C.3   124  SER124      0.2020
     58  C         67.1840 -163.4870   19.1840 C.2   124  SER124      0.2619
     59  O         66.8100 -163.7050   18.0330 O.2   124  SER124     -0.2717
     60  CB        68.8510 -161.6440   19.3100 C.3   124  SER124      0.2103
     61  OG        68.5680 -161.2240   17.9870 O.3   124  SER124     -0.2182
     62  N         66.3740 -163.5180   20.2410 N.am  125  PHE125     -0.1961
     63  CA        64.9680 -163.9020   20.1510 C.3   125  PHE125      0.1771
     64  C         64.0740 -162.8530   20.7730 C.2   125  PHE125      0.2620
     65  O         64.4080 -162.2910   21.8190 O.2   125  PHE125     -0.2715
     66  CB        64.7150 -165.1990   20.9130 C.3   125  PHE125      0.0574
     67  CG        65.6320 -166.3150   20.5320 C.ar  125  PHE125     -0.0200
     68  CD1       66.9470 -166.3310   20.9720 C.ar  125  PHE125     -0.0042
     69  CD2       65.1790 -167.3550   19.7430 C.ar  125  PHE125     -0.0042
     70  CE1       67.7950 -167.3600   20.6200 C.ar  125  PHE125     -0.0003
     71  CE2       66.0220 -168.3860   19.3850 C.ar  125  PHE125     -0.0003
     72  CZ        67.3310 -168.3890   19.8260 C.ar  125  PHE125     -0.0000
     73  N         62.9210 -162.6170   20.1540 N.am  126  ASP126     -0.1958
     74  CA        61.8790 -161.8200   20.7890 C.3   126  ASP126      0.1825
     75  C         61.1330 -162.7500   21.7570 C.2   126  ASP126      0.2464
     76  O         61.3990 -163.9550   21.7860 O.2   126  ASP126     -0.2730
     77  CB        60.9630 -161.1460   19.7460 C.3   126  ASP126      0.1450
     78  CG        59.8910 -162.0730   19.1800 C.2   126  ASP126      0.3671
     79  OD1       59.9480 -163.3010   19.4030 O.co2 126  ASP126     -0.2456
     80  OD2       58.9830 -161.5610   18.4860 O.co2 126  ASP126     -0.2456
     81  N         60.2140 -162.1990   22.5660 N.am  127  PRO127     -0.2715
     82  CA        59.5330 -163.0050   23.5810 C.3   127  PRO127      0.1536
     83  C         58.7560 -164.2150   23.0670 C.2   127  PRO127      0.2598
     84  O         58.5360 -165.1580   23.8310 O.2   127  PRO127     -0.2715
     85  CB        58.5800 -161.9970   24.2250 C.3   127  PRO127      0.0310
     86  CG        59.3080 -160.7090   24.0980 C.3   127  PRO127      0.0237
     87  CD        59.8610 -160.7780   22.7050 C.3   127  PRO127      0.0939
     88  N         58.3530 -164.2050   21.8000 N.am  128  VAL128     -0.1978
     89  CA        57.5620 -165.3150   21.2560 C.3   128  VAL128      0.1596
     90  C         58.2840 -166.1480   20.1910 C.2   128  VAL128      0.2287
     91  O         57.6610 -166.9670   19.5240 O.2   128  VAL128     -0.2864
     92  CB        56.1790 -164.8470   20.7410 C.3   128  VAL128      0.0276
     93  CG1       55.2340 -164.6440   21.9140 C.3   128  VAL128      0.0022
     94  CG2       56.2950 -163.5750   19.9150 C.3   128  VAL128      0.0022
     95  N         60.7120 -165.1800   17.5610 N.3   130  SER130     -0.1217
     96  CA        61.2880 -164.6440   16.3350 C.3   130  SER130      0.1889
     97  C         62.7880 -164.5230   16.5280 C.2   130  SER130      0.2288
     98  O         63.2330 -163.7840   17.4030 O.2   130  SER130     -0.2866
     99  CB        60.7070 -163.2700   16.0110 C.3   130  SER130      0.2089
    100  OG        61.1740 -162.8080   14.7580 O.3   130  SER130     -0.2183
    101  N         74.1560 -157.7330   19.4180 N.3   137  ARG137     -0.1231
    102  CA        72.8280 -157.5170   19.9840 C.3   137  ARG137      0.1694
    103  C         72.8640 -157.2080   21.4710 C.2   137  ARG137      0.2592
    104  O         73.5100 -157.9100   22.2500 O.2   137  ARG137     -0.2718
    105  CB        71.9150 -158.7250   19.7430 C.3   137  ARG137      0.0321
    106  CG        70.5500 -158.6180   20.4160 C.3   137  ARG137      0.0489
    107  CD        69.7400 -157.4410   19.8990 C.3   137  ARG137      0.2205
    108  NE        69.2340 -157.6700   18.5500 N.pl3 137  ARG137     -0.0865
    109  CZ        68.6530 -156.7410   17.7940 C.cat 137  ARG137      0.5346
    110  NH1       68.4980 -155.4960   18.2420 N.pl3 137  ARG137      0.1354
    111  NH2       68.2270 -157.0540   16.5760 N.pl3 137  ARG137      0.1354
    112  N         72.1470 -156.1560   21.8450 N.am  138  ALA138     -0.1966
    113  CA        71.9210 -155.8190   23.2360 C.3   138  ALA138      0.1728
    114  C         70.4570 -156.0790   23.5470 C.2   138  ALA138      0.2616
    115  O         69.5870 -155.8870   22.6960 O.2   138  ALA138     -0.2715
    116  CB        72.2700 -154.3660   23.4960 C.3   138  ALA138      0.0334
    117  N         70.1930 -156.5250   24.7660 N.am  139  GLY139     -0.1955
    118  CA        68.8380 -156.8220   25.1920 C.3   139  GLY139      0.1869
    119  C         68.6050 -156.3650   26.6120 C.2   139  GLY139      0.2309
    120  O         69.5460 -156.2130   27.3910 O.2   139  GLY139     -0.2863
    121  N         68.9000 -151.7130   26.4710 N.3   143  ALA143     -0.1245
    122  CA        69.1630 -152.0870   25.0830 C.3   143  ALA143      0.1562
    123  C         69.1470 -150.8700   24.1590 C.2   143  ALA143      0.2260
    124  O         69.9700 -150.7610   23.2510 O.2   143  ALA143     -0.2867
    125  CB        68.1390 -153.1100   24.6170 C.3   143  ALA143      0.0290
@<TRIPOS>BOND
     1   100    99    1
     2    99    96    1
     3    96    97    1
     4    96    95    1
     5    97    98    2
     6   111   109    1
     7   109   110    1
     8   109   108    2
     9    61    60    1
    10    59    58    2
    11    11     9    1
    12    80    78   ar
    13   108   107    1
    14    56    57    1
    15     8     9    2
    16     8     7    1
    17    78    79   ar
    18    78    77    1
    19     9    10    1
    20    58    57    1
    21    58    62   am
    22    60    57    1
    23    71    69   ar
    24    71    72   ar
    25   101   102    1
    26    91    90    2
    27     7     6    1
    28    69    67   ar
    29   105   102    1
    30   105   106    1
    31    77    74    1
    32    72    70   ar
    33   107   106    1
    34    94    92    1
    35     6     5    1
    36   102   103    1
    37    63    62    1
    38    63    64    1
    39    63    66    1
    40    73    64   am
    41    73    74    1
    42    90    89    1
    43    67    66    1
    44    67    68   ar
    45    70    68   ar
    46    92    89    1
    47    92    93    1
    48    64    65    2
    49    74    75    1
    50     5     2    1
    51    89    88    1
    52   103   112   am
    53   103   104    2
    54    75    76    2
    55    75    81   am
    56    88    83   am
    57   112   113    1
    58     2     3    1
    59     2     1    1
    60    81    87    1
    61    81    82    1
    62   115   114    2
    63    87    86    1
    64     4     3    2
    65    44    43    2
    66    54    52    1
    67    83    82    1
    68    83    84    2
    69   113   116    1
    70   113   114    1
    71   124   123    2
    72    53    52    1
    73    53    55    1
    74    49    52    1
    75    49    50    1
    76    49    48    1
    77   114   117   am
    78    82    85    1
    79    40    38   ar
    80    40    39   ar
    81    50    51    2
    82    43    48   am
    83    43    42    1
    84    38    36   ar
    85    86    85    1
    86   123   122    1
    87    39    37   ar
    88   125   122    1
    89    45    42    1
    90    45    47    1
    91    45    46    1
    92    36    37   ar
    93    36    35    1
    94    41    42    1
    95    41    33   am
    96   117   118    1
    97   122   121    1
    98   118   119    1
    99    35    32    1
   100    17    16    1
   101    17    18    1
   102    32    33    1
   103    32    31    1
   104    33    34    2
   105    16    13    1
   106    18    12    1
   107    13    12    1
   108    13    14    1
   109   119   120    2
   110    14    15    2
   111    30    29    1
   112    27    29   ar
   113    27    25   ar
   114    29    28   ar
   115    25    24   ar
   116    20    21    1
   117    20    19    1
   118    20    23    1
   119    21    22    2
   120    28    26   ar
   121    24    26   ar
   122    24    23    1
