@<TRIPOS>MOLECULE
tmp/5jhsL00.pdb
 106 106 0 0 0
SMALL
GASTEIGER

@<TRIPOS>ATOM
      1  N         15.8020 -130.6140   30.7340 N.3   104  PRO104     -0.2116
      2  CA        14.3600 -130.6530   30.4510 C.3   104  PRO104      0.1372
      3  C         13.4160 -130.8430   31.6340 C.2   104  PRO104      0.2244
      4  O         13.8050 -131.3710   32.6760 O.2   104  PRO104     -0.2868
      5  CB        14.2290 -131.8520   29.5050 C.3   104  PRO104      0.0268
      6  CG        15.5620 -131.9660   28.8610 C.3   104  PRO104      0.0207
      7  CD        16.5180 -131.6480   29.9640 C.3   104  PRO104      0.0892
      8  N         10.8540 -133.2170   32.6200 N.3   106  TYR106     -0.1241
      9  CA        10.4730 -134.5830   32.2180 C.3   106  TYR106      0.1605
     10  C          8.9670 -134.7790   32.3540 C.2   106  TYR106      0.2264
     11  O          8.4970 -135.4470   33.2740 O.2   106  TYR106     -0.2867
     12  CB        11.2360 -135.6440   33.0300 C.3   106  TYR106      0.0534
     13  CG        12.5020 -136.1540   32.3730 C.ar  106  TYR106     -0.0201
     14  CD1       13.3230 -135.3070   31.6240 C.ar  106  TYR106     -0.0009
     15  CD2       12.8940 -137.4840   32.5180 C.ar  106  TYR106     -0.0009
     16  CE1       14.4860 -135.7750   31.0280 C.ar  106  TYR106      0.0417
     17  CE2       14.0590 -137.9600   31.9300 C.ar  106  TYR106      0.0417
     18  CZ        14.8510 -137.1030   31.1860 C.ar  106  TYR106      0.1957
     19  OH        16.0070 -137.5690   30.6010 O.3   106  TYR106     -0.2866
     20  N          5.0030 -134.9980   29.9740 N.3   108  HIS108     -0.1241
     21  CA         4.1630 -134.9670   28.7910 C.3   108  HIS108      0.1621
     22  C          3.0020 -134.0410   29.0790 C.2   108  HIS108      0.2264
     23  O          2.1480 -134.3430   29.9080 O.2   108  HIS108     -0.2867
     24  CB         3.6530 -136.3610   28.4450 C.3   108  HIS108      0.0745
     25  CG         4.7090 -137.2570   27.8850 C.ar  108  HIS108      0.0817
     26  ND1        4.7780 -138.6020   28.1770 N.ar  108  HIS108     -0.2268
     27  CD2        5.7510 -136.9950   27.0610 C.ar  108  HIS108      0.1154
     28  CE1        5.8110 -139.1330   27.5470 C.ar  108  HIS108      0.1986
     29  NE2        6.4190 -138.1790   26.8640 N.ar  108  HIS108     -0.2212
     30  N         -0.9200 -131.0340   22.4610 N.3   124  SER124     -0.1202
     31  CA        -0.0300 -131.9390   23.1900 C.3   124  SER124      0.2020
     32  C          1.4320 -131.6020   22.9230 C.2   124  SER124      0.2619
     33  O          1.8040 -131.2770   21.7950 O.2   124  SER124     -0.2717
     34  CB        -0.3080 -133.3920   22.8090 C.3   124  SER124      0.2103
     35  OG         0.1220 -133.6800   21.4890 O.3   124  SER124     -0.2182
     36  N          2.2490 -131.7000   23.9700 N.am  125  PHE125     -0.1961
     37  CA         3.6580 -131.3190   23.9140 C.3   125  PHE125      0.1771
     38  C          4.5470 -132.4910   24.2940 C.2   125  PHE125      0.2620
     39  O          4.1450 -133.3570   25.0740 O.2   125  PHE125     -0.2715
     40  CB         3.9440 -130.1650   24.8810 C.3   125  PHE125      0.0574
     41  CG         3.0160 -128.9980   24.7250 C.ar  125  PHE125     -0.0200
     42  CD1        1.7150 -129.0620   25.2000 C.ar  125  PHE125     -0.0042
     43  CD2        3.4440 -127.8330   24.1140 C.ar  125  PHE125     -0.0042
     44  CE1        0.8540 -127.9920   25.0550 C.ar  125  PHE125     -0.0003
     45  CE2        2.5880 -126.7580   23.9650 C.ar  125  PHE125     -0.0003
     46  CZ         1.2910 -126.8370   24.4380 C.ar  125  PHE125     -0.0000
     47  N          5.7590 -132.5070   23.7440 N.am  126  ASP126     -0.1958
     48  CA         6.8050 -133.3990   24.2290 C.3   126  ASP126      0.1825
     49  C          7.5490 -132.6610   25.3560 C.2   126  ASP126      0.2464
     50  O          7.2120 -131.5150   25.6690 O.2   126  ASP126     -0.2730
     51  CB         7.7180 -133.8670   23.0750 C.3   126  ASP126      0.1450
     52  CG         8.7720 -132.8370   22.6690 C.2   126  ASP126      0.3671
     53  OD1        8.5940 -131.6290   22.9350 O.co2 126  ASP126     -0.2456
     54  OD2        9.7820 -133.2470   22.0530 O.co2 126  ASP126     -0.2456
     55  N          8.5360 -133.3140   25.9910 N.am  127  PRO127     -0.2715
     56  CA         9.2320 -132.6810   27.1170 C.3   127  PRO127      0.1536
     57  C         10.0270 -131.4080   26.7940 C.2   127  PRO127      0.2598
     58  O         10.2870 -130.6050   27.6990 O.2   127  PRO127     -0.2715
     59  CB        10.1770 -133.7880   27.5960 C.3   127  PRO127      0.0310
     60  CG         9.4790 -135.0460   27.2140 C.3   127  PRO127      0.0237
     61  CD         8.9010 -134.7350   25.8700 C.3   127  PRO127      0.0939
     62  N         10.3970 -131.2170   25.5300 N.am  128  VAL128     -0.1978
     63  CA        11.2420 -130.0770   25.1470 C.3   128  VAL128      0.1596
     64  C         10.5450 -129.0310   24.2700 C.2   128  VAL128      0.2287
     65  O         11.1910 -128.0940   23.8080 O.2   128  VAL128     -0.2864
     66  CB        12.5720 -130.5250   24.4880 C.3   128  VAL128      0.0276
     67  CG1       13.5600 -130.9710   25.5560 C.3   128  VAL128      0.0022
     68  CG2       12.3450 -131.6270   23.4610 C.3   128  VAL128      0.0022
     69  N          8.0350 -129.3810   21.4650 N.3   130  SER130     -0.1202
     70  CA         7.3670 -129.6340   20.1890 C.3   130  SER130      0.2020
     71  C          5.8930 -129.8880   20.4610 C.2   130  SER130      0.2619
     72  O          5.5570 -130.7220   21.2970 O.2   130  SER130     -0.2717
     73  CB         7.9810 -130.8260   19.4560 C.3   130  SER130      0.2103
     74  OG         7.5220 -132.0520   19.9910 O.3   130  SER130     -0.2182
     75  N          5.0210 -129.1570   19.7730 N.am  131  TYR131     -0.1961
     76  CA         3.5840 -129.2870   19.9960 C.3   131  TYR131      0.1771
     77  C          2.7920 -129.4490   18.7090 C.2   131  TYR131      0.2619
     78  O          3.2950 -129.2190   17.6090 O.2   131  TYR131     -0.2715
     79  CB         3.0450 -128.1070   20.8150 C.3   131  TYR131      0.0574
     80  CG         2.9790 -126.7770   20.0930 C.ar  131  TYR131     -0.0198
     81  CD1        4.0820 -125.9330   20.0490 C.ar  131  TYR131     -0.0009
     82  CD2        1.8040 -126.3490   19.4850 C.ar  131  TYR131     -0.0009
     83  CE1        4.0210 -124.7110   19.4040 C.ar  131  TYR131      0.0417
     84  CE2        1.7350 -125.1290   18.8380 C.ar  131  TYR131      0.0417
     85  CZ         2.8470 -124.3150   18.8030 C.ar  131  TYR131      0.1957
     86  OH         2.7940 -123.1000   18.1650 O.3   131  TYR131     -0.2866
     87  N          1.5410 -129.8550   18.8740 N.am  132  GLU132     -0.1977
     88  CA         0.6680 -130.1620   17.7570 C.3   132  GLU132      0.1602
     89  C         -0.7770 -130.1800   18.2380 C.2   132  GLU132      0.2287
     90  O         -1.0780 -130.7530   19.2880 O.2   132  GLU132     -0.2864
     91  CB         1.0370 -131.5320   17.1880 C.3   132  GLU132      0.0415
     92  CG         0.2910 -131.9200   15.9210 C.3   132  GLU132      0.1163
     93  CD         0.3590 -133.4100   15.6290 C.2   132  GLU132      0.3649
     94  OE1        1.1330 -134.1320   16.2970 O.co2 132  GLU132     -0.2457
     95  OE2       -0.3730 -133.8640   14.7250 O.co2 132  GLU132     -0.2457
     96  N         -5.5880 -137.2050   22.2320 N.3   137  ARG137     -0.1245
     97  CA        -4.2590 -137.5250   22.7480 C.3   137  ARG137      0.1563
     98  C         -4.2950 -138.1180   24.1530 C.2   137  ARG137      0.2260
     99  O         -4.9620 -137.5980   25.0470 O.2   137  ARG137     -0.2867
    100  CB        -3.3440 -136.2920   22.7260 C.3   137  ARG137      0.0307
    101  CG        -1.9800 -136.5020   23.3810 C.3   137  ARG137      0.0489
    102  CD        -1.1320 -137.5410   22.6590 C.3   137  ARG137      0.2205
    103  NE        -0.6130 -137.0620   21.3770 N.pl3 137  ARG137     -0.0865
    104  CZ         0.0060 -137.8270   20.4800 C.cat 137  ARG137      0.5346
    105  NH1        0.1890 -139.1250   20.7030 N.pl3 137  ARG137      0.1354
    106  NH2        0.4430 -137.2940   19.3450 N.pl3 137  ARG137      0.1354
@<TRIPOS>BOND
     1    95    93   ar
     2    93    92    1
     3    93    94   ar
     4    92    91    1
     5    91    88    1
     6    78    77    2
     7    88    89    1
     8    88    87    1
     9    86    85    1
    10    89    90    2
    11    77    87   am
    12    77    76    1
    13    85    84   ar
    14    85    83   ar
    15    84    82   ar
    16   106   104    1
    17    83    81   ar
    18    73    74    1
    19    73    70    1
    20    82    80   ar
    21    75    76    1
    22    75    71   am
    23    76    79    1
    24    81    80   ar
    25    80    79    1
    26    70    71    1
    27    70    69    1
    28    71    72    2
    29   104   105    1
    30   104   103    2
    31   103   102    1
    32    35    34    1
    33    33    32    2
    34    54    52   ar
    35    96    97    1
    36    30    31    1
    37   102   101    1
    38    52    53   ar
    39    52    51    1
    40   100    97    1
    41   100   101    1
    42    97    98    1
    43    34    31    1
    44    32    31    1
    45    32    36   am
    46    51    48    1
    47    68    66    1
    48    47    48    1
    49    47    38   am
    50    65    64    2
    51    37    36    1
    52    37    38    1
    53    37    40    1
    54    45    43   ar
    55    45    46   ar
    56    43    41   ar
    57    98    99    2
    58    48    49    1
    59    64    63    1
    60    38    39    2
    61    46    44   ar
    62    66    63    1
    63    66    67    1
    64    41    40    1
    65    41    42   ar
    66    44    42   ar
    67    63    62    1
    68    49    50    2
    69    49    55   am
    70    62    57   am
    71    61    55    1
    72    61    60    1
    73    55    56    1
    74    57    56    1
    75    57    58    2
    76    29    27   ar
    77    29    28   ar
    78    27    25   ar
    79    56    59    1
    80    60    59    1
    81    28    26   ar
    82    25    26   ar
    83    25    24    1
    84    24    21    1
    85    21    22    1
    86    21    20    1
    87     6     5    1
    88     6     7    1
    89    22    23    2
    90     5     2    1
    91     7     1    1
    92     2     1    1
    93     2     3    1
    94    19    18    1
    95    16    18   ar
    96    16    14   ar
    97    18    17   ar
    98    14    13   ar
    99     3     4    2
   100    17    15   ar
   101     9    10    1
   102     9     8    1
   103     9    12    1
   104    10    11    2
   105    13    15   ar
   106    13    12    1
