@<TRIPOS>MOLECULE
tmp/5jhsH00.pdb
 133 124 0 0 0
SMALL
GASTEIGER

@<TRIPOS>ATOM
      1  N         64.3540 -138.7470   44.4680 N.3     1  THR1       -0.1218
      2  CA        64.9530 -138.0730   45.6580 C.3     1  THR1        0.1862
      3  C         65.0770 -138.6910   47.0420 C.2     1  THR1        0.2287
      4  O         64.4130 -139.6700   47.3860 O.2     1  THR1       -0.2866
      5  CB        64.1340 -136.7780   45.8250 C.3     1  THR1        0.1770
      6  OG1       64.0410 -136.1860   44.5490 O.3     1  THR1       -0.2211
      7  CG2       64.8010 -135.7320   46.7140 C.3     1  THR1        0.0375
      8  N         70.4720 -136.6030   42.4240 N.3    19  ARG19      -0.1231
      9  CA        69.9670 -137.2810   41.2320 C.3    19  ARG19       0.1694
     10  C         68.6260 -136.7010   40.8040 C.2    19  ARG19       0.2593
     11  O         67.7750 -136.3990   41.6380 O.2    19  ARG19      -0.2718
     12  CB        69.8060 -138.7790   41.4780 C.3    19  ARG19       0.0321
     13  CG        69.2210 -139.5320   40.2900 C.3    19  ARG19       0.0489
     14  CD        69.1790 -141.0270   40.5430 C.3    19  ARG19       0.2205
     15  NE        70.5080 -141.6280   40.4820 N.pl3  19  ARG19      -0.0865
     16  CZ        70.7580 -142.9270   40.6280 C.cat  19  ARG19       0.5346
     17  NH1       69.7690 -143.7880   40.8530 N.pl3  19  ARG19       0.1354
     18  NH2       72.0060 -143.3710   40.5500 N.pl3  19  ARG19       0.1354
     19  N         68.4470 -136.5690   39.4950 N.am   20  SER20      -0.1938
     20  CA        67.1860 -136.1250   38.9200 C.3    20  SER20       0.2055
     21  C         66.7980 -137.1240   37.8430 C.2    20  SER20       0.2644
     22  O         67.5560 -137.3460   36.8990 O.2    20  SER20      -0.2714
     23  CB        67.3350 -134.7250   38.3260 C.3    20  SER20       0.2130
     24  OG        66.0780 -134.1920   37.9470 O.3    20  SER20      -0.2179
     25  N         65.6280 -137.7390   37.9930 N.am   21  THR21      -0.1936
     26  CA        65.2030 -138.7870   37.0750 C.3    21  THR21       0.2028
     27  C         64.1640 -138.3100   36.0750 C.2    21  THR21       0.2642
     28  O         63.5430 -137.2580   36.2360 O.2    21  THR21      -0.2714
     29  CB        64.6280 -140.0100   37.8160 C.3    21  THR21       0.1808
     30  OG1       63.5470 -139.6010   38.6640 O.3    21  THR21      -0.2208
     31  CG2       65.7030 -140.6850   38.6460 C.3    21  THR21       0.0379
     32  N         63.9990 -139.1240   35.0410 N.am   22  GLN22      -0.1963
     33  CA        63.0300 -138.9090   33.9870 C.3    22  GLN22       0.1733
     34  C         62.5580 -140.3110   33.6180 C.2    22  GLN22       0.2616
     35  O         62.9920 -140.8930   32.6200 O.2    22  GLN22      -0.2715
     36  CB        63.7090 -138.2200   32.8070 C.3    22  GLN22       0.0408
     37  CG        62.8930 -137.1420   32.1260 C.3    22  GLN22       0.0908
     38  CD        63.5510 -136.6950   30.8350 C.2    22  GLN22       0.2608
     39  OE1       63.4710 -137.3900   29.8200 O.2    22  GLN22      -0.2717
     40  NE2       64.2170 -135.5470   30.8660 N.am   22  GLN22      -0.0878
     41  N         61.6930 -140.8660   34.4600 N.am   23  GLY23      -0.1955
     42  CA        61.3470 -142.2800   34.3770 C.3    23  GLY23       0.1869
     43  C         62.4790 -143.0790   35.0040 C.2    23  GLY23       0.2309
     44  O         62.9190 -142.7580   36.1080 O.2    23  GLY23      -0.2863
     45  N         68.3620 -137.8990   34.3300 N.3    27  ALA27      -0.1231
     46  CA        68.4570 -136.6700   33.5430 C.3    27  ALA27       0.1694
     47  C         69.6360 -135.8160   33.9990 C.2    27  ALA27       0.2592
     48  O         70.4790 -135.4310   33.1900 O.2    27  ALA27      -0.2718
     49  CB        67.1590 -135.8760   33.6390 C.3    27  ALA27       0.0304
     50  N         69.6820 -135.5290   35.2980 N.am   28  ASP28      -0.1974
     51  CA        70.7550 -134.7300   35.8900 C.3    28  ASP28       0.1709
     52  C         71.4320 -135.5350   36.9930 C.2    28  ASP28       0.2293
     53  O         70.7740 -135.9930   37.9310 O.2    28  ASP28      -0.2864
     54  CB        70.2030 -133.4160   36.4570 C.3    28  ASP28       0.1436
     55  CG        71.2920 -132.3750   36.7200 C.2    28  ASP28       0.3671
     56  OD1       70.9410 -131.1810   36.8530 O.co2  28  ASP28      -0.2456
     57  OD2       72.4890 -132.7400   36.7980 O.co2  28  ASP28      -0.2456
     58  N         72.1080 -132.3120   40.2870 N.3    31  CYS31      -0.1235
     59  CA        71.1820 -131.1920   40.4220 C.3    31  CYS31       0.1677
     60  C         71.1550 -130.7220   41.8730 C.2    31  CYS31       0.2270
     61  O         71.5190 -131.4690   42.7860 O.2    31  CYS31      -0.2867
     62  CB        69.7770 -131.5640   39.9350 C.3    31  CYS31       0.0956
     63  SG        68.7260 -132.3730   41.1550 S.3    31  CYS31      -0.0801
     64  N         69.0450 -129.6270   44.9850 N.3    33  LYS33      -0.1245
     65  CA        67.7120 -129.7740   45.5700 C.3    33  LYS33       0.1561
     66  C         67.5220 -128.8940   46.7980 C.2    33  LYS33       0.2260
     67  O         66.4120 -128.7960   47.3300 O.2    33  LYS33      -0.2867
     68  CB        67.4730 -131.2340   45.9320 C.3    33  LYS33       0.0271
     69  CG        67.7260 -132.1640   44.7630 C.3    33  LYS33       0.0035
     70  CD        67.3610 -133.5930   45.0900 C.3    33  LYS33       0.0206
     71  CE        67.6960 -134.4970   43.9220 C.3    33  LYS33       0.1093
     72  NZ        67.1280 -135.8560   44.1060 N.3    33  LYS33      -0.1314
     73  N         67.2700 -125.2830   48.3190 N.3    35  HIS35      -0.1241
     74  CA        66.8380 -123.9850   47.8250 C.3    35  HIS35       0.1621
     75  C         66.8870 -122.9450   48.9190 C.2    35  HIS35       0.2264
     76  O         66.5980 -123.2310   50.0780 O.2    35  HIS35      -0.2867
     77  CB        65.4170 -124.0730   47.2790 C.3    35  HIS35       0.0745
     78  CG        65.2800 -125.0100   46.1230 C.ar   35  HIS35       0.0817
     79  ND1       65.7640 -124.7140   44.8670 N.ar   35  HIS35      -0.2268
     80  CD2       64.7200 -126.2400   46.0330 C.ar   35  HIS35       0.1154
     81  CE1       65.5060 -125.7210   44.0520 C.ar   35  HIS35       0.1986
     82  NE2       64.8730 -126.6590   44.7340 N.ar   35  HIS35      -0.2212
     83  N         63.6390 -129.9600   48.5990 N.3    45  GLY45      -0.1210
     84  CA        62.4320 -130.2950   47.8430 C.3    45  GLY45       0.1956
     85  C         62.4630 -131.6340   47.1280 C.2    45  GLY45       0.2612
     86  O         63.4720 -132.0160   46.5340 O.2    45  GLY45      -0.2717
     87  N         61.3370 -132.3390   47.1930 N.am   46  ALA46      -0.1965
     88  CA        61.1390 -133.5990   46.4810 C.3    46  ALA46       0.1728
     89  C         59.7950 -133.5620   45.7640 C.2    46  ALA46       0.2617
     90  O         58.9470 -132.7200   46.0630 O.2    46  ALA46      -0.2715
     91  CB        61.1810 -134.7670   47.4520 C.3    46  ALA46       0.0334
     92  N         59.6060 -134.4780   44.8200 N.am   47  GLY47      -0.1940
     93  CA        58.3750 -134.5400   44.0340 C.3    47  GLY47       0.2014
     94  C         58.5810 -133.9780   42.6400 C.2    47  GLY47       0.2640
     95  O         59.6140 -134.2270   42.0140 O.2    47  GLY47      -0.2714
     96  N         57.6000 -133.2210   42.1510 N.am   48  THR48      -0.1936
     97  CA        57.6760 -132.6130   40.8210 C.3    48  THR48       0.2028
     98  C         58.6940 -131.4710   40.8260 C.2    48  THR48       0.2642
     99  O         58.5070 -130.4630   41.5090 O.2    48  THR48      -0.2714
    100  CB        56.3060 -132.0840   40.3520 C.3    48  THR48       0.1808
    101  OG1       55.3170 -133.1140   40.4920 O.3    48  THR48      -0.2208
    102  CG2       56.3670 -131.6430   38.8930 C.3    48  THR48       0.0379
    103  N         59.7600 -131.6430   40.0450 N.am   49  ALA49      -0.1963
    104  CA        60.9260 -130.7510   40.0660 C.3    49  ALA49       0.1728
    105  C         60.6050 -129.2820   39.7880 C.2    49  ALA49       0.2616
    106  O         61.0700 -128.3940   40.5090 O.2    49  ALA49      -0.2715
    107  CB        61.9740 -131.2510   39.0840 C.3    49  ALA49       0.0334
    108  N         59.8200 -129.0320   38.7450 N.am   50  ALA50      -0.1977
    109  CA        59.4360 -127.6670   38.3820 C.3    50  ALA50       0.1597
    110  C         58.6070 -126.9980   39.4770 C.2    50  ALA50       0.2287
    111  O         58.7560 -125.8020   39.7260 O.2    50  ALA50      -0.2864
    112  CB        58.6660 -127.6640   37.0730 C.3    50  ALA50       0.0319
    113  N         58.6220 -127.6870   42.8420 N.3    52  THR52      -0.1218
    114  CA        59.4160 -127.4120   44.0450 C.3    52  THR52       0.1862
    115  C         60.2670 -126.1520   43.8840 C.2    52  THR52       0.2287
    116  O         60.4780 -125.4190   44.8470 O.2    52  THR52      -0.2866
    117  CB        60.3460 -128.5860   44.4150 C.3    52  THR52       0.1770
    118  OG1       61.2190 -128.8800   43.3160 O.3    52  THR52      -0.2211
    119  CG2       59.5370 -129.8250   44.7720 C.3    52  THR52       0.0375
    120  N         60.7450 -137.9290   50.2070 N.3   128  GLY128     -0.1210
    121  CA        61.2090 -138.4360   48.9170 C.3   128  GLY128      0.1956
    122  C         61.0700 -139.9400   48.7950 C.2   128  GLY128      0.2612
    123  O         60.5970 -140.6050   49.7150 O.2   128  GLY128     -0.2717
    124  N         61.4850 -140.4710   47.6480 N.am  129  SER129     -0.1952
    125  CA        61.4030 -141.9110   47.3750 C.3   129  SER129      0.1924
    126  C         62.3180 -142.7220   48.2910 C.2   129  SER129      0.2314
    127  O         62.0240 -143.8760   48.6080 O.2   129  SER129     -0.2863
    128  CB        61.7480 -142.2100   45.9100 C.3   129  SER129      0.2116
    129  OG        63.0310 -141.7090   45.5650 O.3   129  SER129     -0.2180
    130  N         65.8230 -144.2650   43.0500 N.3   168  GLY168     -0.1225
    131  CA        65.4060 -142.9020   42.7320 C.3   168  GLY168      0.1811
    132  C         66.4260 -141.8660   43.1680 C.2   168  GLY168      0.2280
    133  O         66.4040 -140.7260   42.6970 O.2   168  GLY168     -0.2866
@<TRIPOS>BOND
     1    39    38    2
     2    38    40   am
     3    38    37    1
     4    37    36    1
     5    35    34    2
     6    36    33    1
     7    48    47    2
     8    46    49    1
     9    46    47    1
    10    46    45    1
    11    34    33    1
    12    34    41   am
    13    33    32    1
    14    47    50   am
    15    42    41    1
    16    42    43    1
    17    43    44    2
    18    32    27   am
    19    50    51    1
    20    51    54    1
    21    51    52    1
    22    27    28    2
    23    27    26    1
    24    54    55    1
    25    55    57   ar
    26    55    56   ar
    27    22    21    2
    28    52    53    2
    29   112   109    1
    30    26    29    1
    31    26    25    1
    32    29    31    1
    33    29    30    1
    34    21    25   am
    35    21    20    1
    36    24    23    1
    37    23    20    1
    38   109   108    1
    39   109   110    1
    40   108   105   am
    41   102   100    1
    42    20    19    1
    43   107   104    1
    44   110   111    2
    45    19    10   am
    46   105   104    1
    47   105   106    2
    48    62    59    1
    49    62    63    1
    50   103   104    1
    51   103    98   am
    52    58    59    1
    53    13    14    1
    54    13    12    1
    55   100   101    1
    56   100    97    1
    57    59    60    1
    58    15    14    1
    59    15    16    2
    60    18    16    1
    61    16    17    1
    62    10     9    1
    63    10    11    2
    64    97    98    1
    65    97    96    1
    66    98    99    2
    67     9    12    1
    68     9     8    1
    69    60    61    2
    70    95    94    2
    71    96    94   am
    72    94    93    1
    73   133   132    2
    74   131   130    1
    75   131   132    1
    76   113   114    1
    77   118   117    1
    78   115   114    1
    79   115   116    2
    80    71    72    1
    81    71    70    1
    82    93    92    1
    83   114   117    1
    84    81    82   ar
    85    81    79   ar
    86   117   119    1
    87     1     2    1
    88     6     5    1
    89    82    80   ar
    90    69    70    1
    91    69    68    1
    92    92    89   am
    93    79    78   ar
    94    64    65    1
    95   129   128    1
    96    65    68    1
    97    65    66    1
    98     2     5    1
    99     2     3    1
   100    89    90    2
   101    89    88    1
   102     5     7    1
   103   128   125    1
   104    80    78   ar
   105    78    77    1
   106    88    87    1
   107    88    91    1
   108    86    85    2
   109    66    67    2
   110     3     4    2
   111    85    87   am
   112    85    84    1
   113    77    74    1
   114   125   124    1
   115   125   126    1
   116   124   122   am
   117    74    73    1
   118    74    75    1
   119    84    83    1
   120   126   127    2
   121   122   121    1
   122   122   123    2
   123   121   120    1
   124    75    76    2
