@<TRIPOS>MOLECULE
tmp/5jhsI00.pdb
 78 75 0 0 0
SMALL
GASTEIGER

@<TRIPOS>ATOM
      1  N         53.8150 -135.4250   22.6340 N.3     4  SER4       -0.1217
      2  CA        55.2730 -135.3960   22.5620 C.3     4  SER4        0.1889
      3  C         55.8810 -136.3410   21.5180 C.2     4  SER4        0.2288
      4  O         57.0720 -136.2370   21.2260 O.2     4  SER4       -0.2866
      5  CB        55.8570 -135.7220   23.9390 C.3     4  SER4        0.2089
      6  OG        55.3590 -136.9620   24.4140 O.3     4  SER4       -0.2183
      7  N         51.4480 -123.9280   33.5190 N.3    98  ARG98      -0.1245
      8  CA        51.6410 -125.1560   34.3010 C.3    98  ARG98       0.1563
      9  C         50.5360 -126.1980   34.0980 C.2    98  ARG98       0.2260
     10  O         50.8270 -127.3860   33.9620 O.2    98  ARG98      -0.2867
     11  CB        51.7760 -124.8200   35.7940 C.3    98  ARG98       0.0307
     12  CG        51.8010 -126.0190   36.7310 C.3    98  ARG98       0.0489
     13  CD        52.9770 -126.9410   36.4570 C.3    98  ARG98       0.2205
     14  NE        53.0440 -128.0120   37.4490 N.pl3  98  ARG98      -0.0865
     15  CZ        52.3600 -129.1550   37.3940 C.cat  98  ARG98       0.5346
     16  NH1       52.5000 -130.0530   38.3640 N.pl3  98  ARG98       0.1354
     17  NH2       51.5370 -129.4140   36.3810 N.pl3  98  ARG98       0.1354
     18  N         68.7910 -127.6080   29.7430 N.3   122  GLY122     -0.1210
     19  CA        67.6120 -128.3120   29.2510 C.3   122  GLY122      0.1956
     20  C         66.4310 -128.1010   30.1740 C.2   122  GLY122      0.2612
     21  O         66.5970 -127.7200   31.3330 O.2   122  GLY122     -0.2717
     22  N         65.2330 -128.3360   29.6500 N.am  123  PHE123     -0.1962
     23  CA        64.0100 -128.1890   30.4340 C.3   123  PHE123      0.1771
     24  C         63.0520 -129.3320   30.1620 C.2   123  PHE123      0.2620
     25  O         63.1390 -129.9970   29.1260 O.2   123  PHE123     -0.2715
     26  CB        63.2830 -126.8820   30.1010 C.3   123  PHE123      0.0574
     27  CG        64.1880 -125.6970   29.9460 C.ar  123  PHE123     -0.0200
     28  CD1       64.9100 -125.5120   28.7740 C.ar  123  PHE123     -0.0042
     29  CD2       64.3060 -124.7570   30.9600 C.ar  123  PHE123     -0.0042
     30  CE1       65.7440 -124.4250   28.6170 C.ar  123  PHE123     -0.0003
     31  CE2       65.1370 -123.6620   30.8090 C.ar  123  PHE123     -0.0003
     32  CZ        65.8570 -123.4960   29.6340 C.ar  123  PHE123     -0.0000
     33  N         62.1350 -129.5440   31.1010 N.am  124  ASP124     -0.1957
     34  CA        60.9420 -130.3450   30.8410 C.3   124  ASP124      0.1840
     35  C         59.8330 -129.3970   30.3600 C.2   124  ASP124      0.2622
     36  O         60.0310 -128.1780   30.2990 O.2   124  ASP124     -0.2715
     37  CB        60.5230 -131.1810   32.0710 C.3   124  ASP124      0.1450
     38  CG        60.1340 -130.3340   33.2850 C.2   124  ASP124      0.3671
     39  OD1       60.1120 -129.0880   33.1890 O.co2 124  ASP124     -0.2456
     40  OD2       59.8520 -130.9290   34.3510 O.co2 124  ASP124     -0.2456
     41  N         58.6800 -129.9580   30.0130 N.am  125  LEU125     -0.1963
     42  CA        57.5780 -129.1810   29.4220 C.3   125  LEU125      0.1728
     43  C         56.9780 -128.0800   30.3230 C.2   125  LEU125      0.2616
     44  O         56.3320 -127.1520   29.8190 O.2   125  LEU125     -0.2715
     45  CB        56.4700 -130.1190   28.9160 C.3   125  LEU125      0.0311
     46  CG        55.4870 -130.7450   29.9100 C.3   125  LEU125      0.0022
     47  CD1       54.3630 -131.4310   29.1520 C.3   125  LEU125      0.0001
     48  CD2       56.1700 -131.7290   30.8460 C.3   125  LEU125      0.0001
     49  N         57.1910 -128.1820   31.6360 N.am  126  ILE126     -0.1977
     50  CA        56.7060 -127.1650   32.5890 C.3   126  ILE126      0.1596
     51  C         57.8310 -126.2820   33.1570 C.2   126  ILE126      0.2287
     52  O         57.5950 -125.4600   34.0450 O.2   126  ILE126     -0.2864
     53  CB        55.8680 -127.7900   33.7310 C.3   126  ILE126      0.0276
     54  CG1       56.6240 -128.9420   34.4100 C.3   126  ILE126      0.0022
     55  CG2       54.5320 -128.2720   33.1810 C.3   126  ILE126      0.0022
     56  CD1       55.9460 -129.4850   35.6520 C.3   126  ILE126      0.0001
     57  N         61.2710 -127.0700   34.3570 N.3   128  CYS128     -0.1221
     58  CA        62.3400 -127.4580   35.2830 C.3   128  CYS128      0.1808
     59  C         63.6790 -127.3450   34.5770 C.2   128  CYS128      0.2601
     60  O         63.8790 -127.9550   33.5270 O.2   128  CYS128     -0.2717
     61  CB        62.1840 -128.8910   35.7870 C.3   128  CYS128      0.0970
     62  SG        63.5330 -129.3710   36.8930 S.3   128  CYS128     -0.0800
     63  N         64.6010 -126.5850   35.1600 N.am  129  ILE129     -0.1965
     64  CA        65.8950 -126.3560   34.5270 C.3   129  ILE129      0.1727
     65  C         66.8390 -127.5200   34.8210 C.2   129  ILE129      0.2616
     66  O         66.9150 -128.0060   35.9510 O.2   129  ILE129     -0.2715
     67  CB        66.5380 -125.0240   34.9670 C.3   129  ILE129      0.0290
     68  CG1       65.5440 -123.8730   34.7700 C.3   129  ILE129      0.0022
     69  CG2       67.8120 -124.7670   34.1650 C.3   129  ILE129      0.0023
     70  CD1       66.0420 -122.5200   35.2310 C.3   129  ILE129      0.0001
     71  N         67.5340 -127.9620   33.7750 N.am  130  ASP130     -0.1971
     72  CA        68.5720 -128.9830   33.8650 C.3   130  ASP130      0.1709
     73  C         69.8460 -128.3780   33.3120 C.2   130  ASP130      0.2293
     74  O         70.0500 -128.3400   32.0960 O.2   130  ASP130     -0.2864
     75  CB        68.1800 -130.2170   33.0510 C.3   130  ASP130      0.1436
     76  CG        69.2480 -131.3100   33.0490 C.2   130  ASP130      0.3671
     77  OD1       70.1680 -131.2800   33.8970 O.co2 130  ASP130     -0.2456
     78  OD2       69.1510 -132.2160   32.1910 O.co2 130  ASP130     -0.2456
@<TRIPOS>BOND
     1     4     3    2
     2     3     2    1
     3     2     1    1
     4     2     5    1
     5     5     6    1
     6    30    28   ar
     7    30    32   ar
     8    28    27   ar
     9    45    42    1
    10    45    46    1
    11    25    24    2
    12    47    46    1
    13    19    18    1
    14    19    20    1
    15    42    41    1
    16    42    43    1
    17    32    31   ar
    18    22    20   am
    19    22    23    1
    20    44    43    2
    21    46    48    1
    22    27    26    1
    23    27    29   ar
    24    41    35   am
    25    26    23    1
    26    24    23    1
    27    24    33   am
    28    20    21    2
    29    36    35    2
    30    43    49   am
    31    35    34    1
    32    31    29   ar
    33    34    33    1
    34    34    37    1
    35    49    50    1
    36    37    38    1
    37    74    73    2
    38    78    76   ar
    39    50    51    1
    40    50    53    1
    41    76    75    1
    42    76    77   ar
    43    75    72    1
    44    51    52    2
    45    55    53    1
    46    39    38   ar
    47    38    40   ar
    48    73    72    1
    49     7     8    1
    50    60    59    2
    51    53    54    1
    52    71    72    1
    53    71    65   am
    54    10     9    2
    55     9     8    1
    56    69    67    1
    57     8    11    1
    58    57    58    1
    59    54    56    1
    60    64    65    1
    61    64    67    1
    62    64    63    1
    63    59    63   am
    64    59    58    1
    65    68    67    1
    66    68    70    1
    67    65    66    2
    68    58    61    1
    69    61    62    1
    70    11    12    1
    71    17    15    1
    72    13    12    1
    73    13    14    1
    74    15    14    2
    75    15    16    1
