@<TRIPOS>MOLECULE
tmp/5jhsY00.pdb
 136 127 0 0 0
SMALL
GASTEIGER

@<TRIPOS>ATOM
      1  N         56.6210 -152.7850    8.5880 N.3     1  THR1       -0.1218
      2  CA        57.2700 -153.1750    7.3140 C.3     1  THR1        0.1862
      3  C         56.5930 -152.9670    5.9910 C.2     1  THR1        0.2287
      4  O         55.3990 -152.8400    5.9200 O.2     1  THR1       -0.2866
      5  CB        57.3750 -154.6590    7.2250 C.3     1  THR1        0.1770
      6  OG1       57.7520 -155.1520    8.4220 O.3     1  THR1       -0.2211
      7  CG2       58.5560 -154.9990    6.3190 C.3     1  THR1        0.0375
      8  N         63.4630 -153.8450    8.0780 N.3    19  ARG19      -0.1231
      9  CA        63.3490 -153.1990    9.3870 C.3    19  ARG19       0.1694
     10  C         62.4170 -153.9680   10.3200 C.2    19  ARG19       0.2592
     11  O         61.4400 -154.5700    9.8820 O.2    19  ARG19      -0.2718
     12  CB        62.8630 -151.7520    9.2560 C.3    19  ARG19       0.0321
     13  CG        62.7580 -151.0280   10.5940 C.3    19  ARG19       0.0489
     14  CD        62.5810 -149.5290   10.4340 C.3    19  ARG19       0.2205
     15  NE        63.7980 -148.8810    9.9480 N.pl3  19  ARG19      -0.0865
     16  CZ        63.9660 -147.5640    9.8460 C.cat  19  ARG19       0.5346
     17  NH1       62.9950 -146.7240   10.1980 N.pl3  19  ARG19       0.1354
     18  NH2       65.1150 -147.0800    9.3910 N.pl3  19  ARG19       0.1354
     19  N         62.7300 -153.9330   11.6110 N.am   20  ALA20      -0.1966
     20  CA        61.8790 -154.5160   12.6400 C.3    20  ALA20       0.1728
     21  C         61.7420 -153.5150   13.7720 C.2    20  ALA20       0.2617
     22  O         62.7390 -152.9460   14.2250 O.2    20  ALA20      -0.2715
     23  CB        62.4740 -155.8130   13.1530 C.3    20  ALA20       0.0334
     24  N         60.5110 -153.3040   14.2300 N.am   21  THR21      -0.1937
     25  CA        60.2400 -152.2920   15.2440 C.3    21  THR21       0.2028
     26  C         59.5720 -152.8750   16.4780 C.2    21  THR21       0.2642
     27  O         58.9560 -153.9390   16.4260 O.2    21  THR21      -0.2714
     28  CB        59.3460 -151.1650   14.6910 C.3    21  THR21       0.1808
     29  OG1       58.0810 -151.7040   14.2800 O.3    21  THR21      -0.2208
     30  CG2       60.0190 -150.4780   13.5100 C.3    21  THR21       0.0379
     31  N         59.7190 -152.1600   17.5880 N.am   22  ALA22      -0.1977
     32  CA        59.0110 -152.4550   18.8260 C.3    22  ALA22       0.1597
     33  C         58.4840 -151.1240   19.3440 C.2    22  ALA22       0.2287
     34  O         59.0460 -150.5280   20.2640 O.2    22  ALA22      -0.2864
     35  CB        59.9410 -153.1080   19.8320 C.3    22  ALA22       0.0319
     36  N         64.2430 -151.9820   16.2510 N.3    27  ALA27      -0.1231
     37  CA        64.8460 -153.1580   16.8740 C.3    27  ALA27       0.1694
     38  C         65.9060 -153.8070   15.9940 C.2    27  ALA27       0.2592
     39  O         66.8950 -154.3360   16.4990 O.2    27  ALA27      -0.2718
     40  CB        63.7720 -154.1730   17.2240 C.3    27  ALA27       0.0304
     41  N         65.6940 -153.7760   14.6830 N.am   28  SER28      -0.1952
     42  CA        66.6360 -154.3750   13.7440 C.3    28  SER28       0.1924
     43  C         66.4920 -153.7600   12.3580 C.2    28  SER28       0.2314
     44  O         65.4210 -153.2810   11.9920 O.2    28  SER28      -0.2863
     45  CB        66.4200 -155.8880   13.6720 C.3    28  SER28       0.2116
     46  OG        67.4200 -156.5130   12.8860 O.3    28  SER28      -0.2180
     47  N         66.6200 -157.8140    9.0130 N.3    31  VAL31      -0.1245
     48  CA        65.7130 -158.9550    9.1340 C.3    31  VAL31       0.1561
     49  C         65.3870 -159.5500    7.7700 C.2    31  VAL31       0.2260
     50  O         65.1480 -158.8230    6.8040 O.2    31  VAL31      -0.2867
     51  CB        64.4090 -158.5620    9.8600 C.3    31  VAL31       0.0252
     52  CG1       63.3630 -159.6650    9.7600 C.3    31  VAL31       0.0019
     53  CG2       64.7040 -158.2600   11.3190 C.3    31  VAL31       0.0019
     54  N         62.8000 -161.0610    5.6310 N.3    33  LYS33      -0.1245
     55  CA        61.3430 -161.0970    5.5490 C.3    33  LYS33       0.1561
     56  C         60.8420 -161.9980    4.4320 C.2    33  LYS33       0.2260
     57  O         59.6330 -162.1680    4.2610 O.2    33  LYS33      -0.2867
     58  CB        60.8050 -159.6850    5.3730 C.3    33  LYS33       0.0271
     59  CG        61.0170 -158.8560    6.6190 C.3    33  LYS33       0.0035
     60  CD        60.6750 -157.4050    6.3960 C.3    33  LYS33       0.0206
     61  CE        61.0880 -156.5820    7.6020 C.3    33  LYS33       0.1093
     62  NZ        60.3050 -155.3370    7.7910 N.3    33  LYS33      -0.1314
     63  N         56.8560 -161.8900    4.6860 N.3    45  MET45      -0.1230
     64  CA        56.4770 -161.7950    6.0920 C.3    45  MET45       0.1702
     65  C         56.2250 -160.3470    6.4910 C.2    45  MET45       0.2592
     66  O         57.0590 -159.4730    6.2530 O.2    45  MET45      -0.2718
     67  CB        57.5810 -162.3810    6.9690 C.3    45  MET45       0.0401
     68  CG        57.8230 -163.8650    6.7420 C.3    45  MET45       0.0596
     69  SD        59.3130 -164.5180    7.5190 S.3    45  MET45      -0.1393
     70  CE        59.4850 -163.4840    8.9690 C.3    45  MET45       0.0692
     71  N         55.0680 -160.1050    7.0980 N.am   46  ALA46      -0.1966
     72  CA        54.7130 -158.7820    7.6030 C.3    46  ALA46       0.1728
     73  C         53.7220 -158.9180    8.7490 C.2    46  ALA46       0.2617
     74  O         52.8130 -159.7450    8.6940 O.2    46  ALA46      -0.2715
     75  CB        54.1220 -157.9290    6.4930 C.3    46  ALA46       0.0334
     76  N         53.8990 -158.0960    9.7800 N.am   47  GLY47      -0.1940
     77  CA        53.0810 -158.1620   10.9910 C.3    47  GLY47       0.2014
     78  C         53.9270 -158.6040   12.1680 C.2    47  GLY47       0.2639
     79  O         55.0770 -158.1820   12.3080 O.2    47  GLY47      -0.2714
     80  N         53.3610 -159.4570   13.0160 N.am   48  GLY48      -0.1939
     81  CA        54.0980 -160.0220   14.1420 C.3    48  GLY48       0.2014
     82  C         55.2500 -160.8760   13.6450 C.2    48  GLY48       0.2639
     83  O         55.0450 -161.7920   12.8470 O.2    48  GLY48      -0.2714
     84  N         56.4600 -160.5650   14.1070 N.am   49  ALA49      -0.1963
     85  CA        57.6720 -161.2610   13.6630 C.3    49  ALA49       0.1728
     86  C         57.6110 -162.7400   13.9630 C.2    49  ALA49       0.2616
     87  O         57.7680 -163.5690   13.0720 O.2    49  ALA49      -0.2715
     88  CB        58.9040 -160.6600   14.3230 C.3    49  ALA49       0.0334
     89  N         57.3790 -163.0550   15.2310 N.am   50  ALA50      -0.1977
     90  CA        57.3160 -164.4330   15.6910 C.3    50  ALA50       0.1597
     91  C         56.2360 -165.2050   14.9510 C.2    50  ALA50       0.2287
     92  O         56.4850 -166.3010   14.4620 O.2    50  ALA50      -0.2864
     93  CB        57.0610 -164.4710   17.1860 C.3    50  ALA50       0.0319
     94  N         54.8040 -164.6450   11.9890 N.3    52  CYS52      -0.1221
     95  CA        55.2080 -164.8690   10.5990 C.3    52  CYS52       0.1808
     96  C         56.3470 -165.8810   10.5040 C.2    52  CYS52       0.2601
     97  O         56.2770 -166.8450    9.7420 O.2    52  CYS52      -0.2717
     98  CB        55.6530 -163.5580    9.9510 C.3    52  CYS52       0.0970
     99  SG        54.3220 -162.3780    9.6780 S.3    52  CYS52      -0.0800
    100  N         57.3900 -165.6450   11.2910 N.am   53  GLN53      -0.1979
    101  CA        58.6010 -166.4610   11.2650 C.3    53  GLN53       0.1601
    102  C         58.3190 -167.9170   11.6420 C.2    53  GLN53       0.2287
    103  O         58.8040 -168.8420   10.9890 O.2    53  GLN53      -0.2864
    104  CB        59.6370 -165.8690   12.2250 C.3    53  GLN53       0.0394
    105  CG        61.0810 -166.0820   11.8260 C.3    53  GLN53       0.0908
    106  CD        62.0240 -165.3760   12.7770 C.2    53  GLN53       0.2608
    107  OE1       62.3730 -165.9120   13.8290 O.2    53  GLN53      -0.2717
    108  NE2       62.4320 -164.1630   12.4200 N.am   53  GLN53      -0.0878
    109  N         48.9740 -161.8300   14.1870 N.3    96  SER96      -0.1217
    110  CA        49.1440 -160.6790   13.3050 C.3    96  SER96       0.1889
    111  C         50.1020 -161.0490   12.1790 C.2    96  SER96       0.2288
    112  O         51.3200 -161.0730   12.3670 O.2    96  SER96      -0.2866
    113  CB        49.6730 -159.4790   14.0930 C.3    96  SER96       0.2089
    114  OG        49.6840 -158.3100   13.2950 O.3    96  SER96      -0.2183
    115  N         51.9300 -154.3980    4.4080 N.3   130  GLY130     -0.1210
    116  CA        52.6960 -153.8030    5.4970 C.3   130  GLY130      0.1956
    117  C         52.2650 -152.3860    5.8150 C.2   130  GLY130      0.2612
    118  O         51.3940 -151.8240    5.1520 O.2   130  GLY130     -0.2717
    119  N         52.8920 -151.8100    6.8380 N.am  131  SER131     -0.1952
    120  CA        52.6160 -150.4370    7.2670 C.3   131  SER131      0.1924
    121  C         52.9120 -149.4120    6.1750 C.2   131  SER131      0.2314
    122  O         52.3050 -148.3440    6.1460 O.2   131  SER131     -0.2863
    123  CB        53.4340 -150.0980    8.5160 C.3   131  SER131      0.2116
    124  OG        54.8160 -150.3220    8.2980 O.3   131  SER131     -0.2180
    125  N         58.1460 -146.7760    9.8990 N.3   170  TYR170     -0.1241
    126  CA        58.2850 -148.1640   10.3480 C.3   170  TYR170      0.1605
    127  C         58.7080 -149.1020    9.2140 C.2   170  TYR170      0.2264
    128  O         58.3900 -150.2910    9.2300 O.2   170  TYR170     -0.2867
    129  CB        56.9710 -148.6430   10.9710 C.3   170  TYR170      0.0534
    130  CG        56.4850 -147.7490   12.0860 C.ar  170  TYR170     -0.0201
    131  CD1       57.2030 -147.6350   13.2710 C.ar  170  TYR170     -0.0009
    132  CD2       55.3160 -147.0100   11.9550 C.ar  170  TYR170     -0.0009
    133  CE1       56.7690 -146.8140   14.2950 C.ar  170  TYR170      0.0417
    134  CE2       54.8740 -146.1870   12.9760 C.ar  170  TYR170      0.0417
    135  CZ        55.6050 -146.0940   14.1420 C.ar  170  TYR170      0.1957
    136  OH        55.1720 -145.2790   15.1620 O.3   170  TYR170     -0.2866
@<TRIPOS>BOND
     1    57    56    2
     2   115   116    1
     3    56    55    1
     4    63    64    1
     5   118   117    2
     6    58    55    1
     7    58    59    1
     8   116   117    1
     9    55    54    1
    10   117   119   am
    11     4     3    2
    12     3     2    1
    13    64    65    1
    14    64    67    1
    15   122   121    2
    16   121   120    1
    17    66    65    2
    18     7     5    1
    19    60    59    1
    20    60    61    1
    21    65    71   am
    22    75    72    1
    23    68    67    1
    24    68    69    1
    25    50    49    2
    26   119   120    1
    27    71    72    1
    28     5     2    1
    29     5     6    1
    30   120   123    1
    31     2     1    1
    32    69    70    1
    33    61    62    1
    34    72    73    1
    35    49    48    1
    36     8     9    1
    37   124   123    1
    38    74    73    2
    39    73    76   am
    40    47    48    1
    41    48    51    1
    42   127   128    2
    43   127   126    1
    44    12     9    1
    45    12    13    1
    46     9    10    1
    47    18    16    1
    48    99    98    1
    49    97    96    2
    50    52    51    1
    51    76    77    1
    52    16    15    2
    53    16    17    1
    54    51    53    1
    55    11    10    2
    56   125   126    1
    57    15    14    1
    58    98    95    1
    59    10    19   am
    60   126   129    1
    61    14    13    1
    62    96    95    1
    63    96   100   am
    64    95    94    1
    65   129   130    1
    66   103   102    2
    67    77    78    1
    68   101   100    1
    69   101   102    1
    70   101   104    1
    71    19    20    1
    72   105   104    1
    73   105   106    1
    74   132   130   ar
    75   132   134   ar
    76    44    43    2
    77   130   131   ar
    78    78    79    2
    79    78    80   am
    80   111   112    2
    81   111   110    1
    82    43    42    1
    83   108   106   am
    84    20    23    1
    85    20    21    1
    86   106   107    2
    87    83    82    2
    88    46    45    1
    89   134   135   ar
    90    80    81    1
    91    87    86    2
    92   131   133   ar
    93   114   113    1
    94   110   113    1
    95   110   109    1
    96    30    28    1
    97    82    84   am
    98    82    81    1
    99    85    86    1
   100    85    84    1
   101    85    88    1
   102    45    42    1
   103    42    41    1
   104    21    22    2
   105    21    24   am
   106    86    89   am
   107   135   133   ar
   108   135   136    1
   109    24    25    1
   110    29    28    1
   111    92    91    2
   112    41    38   am
   113    28    25    1
   114    91    90    1
   115    89    90    1
   116    25    26    1
   117    90    93    1
   118    38    39    2
   119    38    37    1
   120    36    37    1
   121    27    26    2
   122    26    31   am
   123    37    40    1
   124    31    32    1
   125    32    33    1
   126    32    35    1
   127    33    34    2
