@<TRIPOS>MOLECULE
tmp/5jhsK00.pdb
 136 127 0 0 0
SMALL
GASTEIGER

@<TRIPOS>ATOM
      1  N         11.7520 -139.6340   10.1930 N.3     1  THR1       -0.1218
      2  CA        11.2900 -138.9760    8.9240 C.3     1  THR1        0.1862
      3  C         11.9160 -139.2100    7.5570 C.2     1  THR1        0.2287
      4  O         13.0510 -139.6630    7.4450 O.2     1  THR1       -0.2866
      5  CB        11.5010 -137.4660    9.1550 C.3     1  THR1        0.1770
      6  OG1       11.0140 -137.1360   10.4480 O.3     1  THR1       -0.2211
      7  CG2       10.7110 -136.6100    8.1890 C.3     1  THR1        0.0375
      8  N          5.1020 -138.5860    9.8630 N.3    19  ARG19      -0.1231
      9  CA         5.2300 -139.4500   11.0380 C.3    19  ARG19       0.1694
     10  C          6.1680 -138.8510   12.0760 C.2    19  ARG19       0.2592
     11  O          7.1380 -138.1810   11.7380 O.2    19  ARG19      -0.2718
     12  CB         5.7200 -140.8490   10.6510 C.3    19  ARG19       0.0321
     13  CG         5.8460 -141.7970   11.8400 C.3    19  ARG19       0.0489
     14  CD         6.0230 -143.2460   11.4210 C.3    19  ARG19       0.2205
     15  NE         4.8010 -143.8020   10.8470 N.pl3  19  ARG19      -0.0865
     16  CZ         4.6310 -145.0810   10.5200 C.cat  19  ARG19       0.5346
     17  NH1        5.6050 -145.9690   10.7070 N.pl3  19  ARG19       0.1354
     18  NH2        3.4720 -145.4770   10.0030 N.pl3  19  ARG19       0.1354
     19  N          5.8730 -139.1110   13.3430 N.am   20  ALA20      -0.1966
     20  CA         6.7460 -138.7190   14.4430 C.3    20  ALA20       0.1728
     21  C          6.9020 -139.9050   15.3790 C.2    20  ALA20       0.2617
     22  O          5.9140 -140.5500   15.7320 O.2    20  ALA20      -0.2715
     23  CB         6.1620 -137.5320   15.1850 C.3    20  ALA20       0.0334
     24  N          8.1380 -140.1890   15.7780 N.am   21  THR21      -0.1937
     25  CA         8.4260 -141.3610   16.6020 C.3    21  THR21       0.2028
     26  C          9.1160 -141.0040   17.9110 C.2    21  THR21       0.2642
     27  O          9.7470 -139.9550   18.0370 O.2    21  THR21      -0.2714
     28  CB         9.3110 -142.3780   15.8510 C.3    21  THR21       0.1808
     29  OG1       10.5740 -141.7820   15.5280 O.3    21  THR21      -0.2208
     30  CG2        8.6220 -142.8470   14.5750 C.3    21  THR21       0.0379
     31  N          8.9730 -141.8980   18.8820 N.am   22  ALA22      -0.1977
     32  CA         9.6980 -141.8220   20.1440 C.3    22  ALA22       0.1597
     33  C         10.2350 -143.2220   20.4200 C.2    22  ALA22       0.2287
     34  O          9.6950 -143.9660   21.2410 O.2    22  ALA22      -0.2864
     35  CB         8.7820 -141.3530   21.2610 C.3    22  ALA22       0.0319
     36  N          4.4250 -141.8480   17.5960 N.3    27  ALA27      -0.1231
     37  CA         3.8300 -140.7970   18.4230 C.3    27  ALA27       0.1694
     38  C          2.7620 -140.0020   17.6850 C.2    27  ALA27       0.2592
     39  O          1.7860 -139.5590   18.2900 O.2    27  ALA27      -0.2718
     40  CB         4.9110 -139.8580   18.9300 C.3    27  ALA27       0.0304
     41  N          2.9550 -139.8070   16.3850 N.am   28  SER28      -0.1952
     42  CA         2.0010 -139.0560   15.5780 C.3    28  SER28       0.1924
     43  C          2.1280 -139.4160   14.1040 C.2    28  SER28       0.2314
     44  O          3.2020 -139.8050   13.6440 O.2    28  SER28      -0.2863
     45  CB         2.2170 -137.5540   15.7680 C.3    28  SER28       0.2116
     46  OG         1.2030 -136.8090   15.1180 O.3    28  SER28      -0.2180
     47  N          1.9570 -134.8440   11.5190 N.3    31  VAL31      -0.1245
     48  CA         2.8670 -133.7410   11.8220 C.3    31  VAL31       0.1561
     49  C          3.1710 -132.9150   10.5760 C.2    31  VAL31       0.2260
     50  O          3.3880 -133.4600    9.4900 O.2    31  VAL31      -0.2867
     51  CB         4.1810 -134.2530   12.4500 C.3    31  VAL31       0.0252
     52  CG1        5.2280 -133.1480   12.5270 C.3    31  VAL31       0.0019
     53  CG2        3.9060 -134.8060   13.8380 C.3    31  VAL31       0.0019
     54  N          5.7400 -131.0550    8.7010 N.3    33  LYS33      -0.1245
     55  CA         7.1960 -131.0020    8.6060 C.3    33  LYS33       0.1561
     56  C          7.6780 -129.9230    7.6540 C.2    33  LYS33       0.2260
     57  O          8.8820 -129.7290    7.4910 O.2    33  LYS33      -0.2867
     58  CB         7.7330 -132.3590    8.1780 C.3    33  LYS33       0.0271
     59  CG         7.5430 -133.3930    9.2610 C.3    33  LYS33       0.0035
     60  CD         7.8740 -134.7830    8.7760 C.3    33  LYS33       0.0206
     61  CE         7.4730 -135.8040    9.8230 C.3    33  LYS33       0.1093
     62  NZ         8.2560 -137.0630    9.7890 N.3    33  LYS33      -0.1314
     63  N         11.6740 -130.0580    7.8290 N.3    45  MET45      -0.1230
     64  CA        12.0690 -130.4000    9.1900 C.3    45  MET45       0.1702
     65  C         12.3230 -131.9000    9.3280 C.2    45  MET45       0.2592
     66  O         11.4840 -132.7230    8.9550 O.2    45  MET45      -0.2718
     67  CB        10.9780 -129.9740   10.1710 C.3    45  MET45       0.0401
     68  CG        10.7320 -128.4730   10.2080 C.3    45  MET45       0.0596
     69  SD         9.2380 -127.9720   11.0880 S.3    45  MET45      -0.1393
     70  CE         9.0940 -129.2330   12.3530 C.3    45  MET45       0.0692
     71  N         13.4910 -132.2400    9.8650 N.am   46  ALA46      -0.1966
     72  CA        13.8520 -133.6290   10.1300 C.3    46  ALA46       0.1728
     73  C         14.8520 -133.6870   11.2770 C.2    46  ALA46       0.2617
     74  O         15.7460 -132.8490   11.3700 O.2    46  ALA46      -0.2715
     75  CB        14.4310 -134.2770    8.8840 C.3    46  ALA46       0.0334
     76  N         14.6900 -134.6820   12.1450 N.am   47  GLY47      -0.1940
     77  CA        15.5150 -134.8210   13.3420 C.3    47  GLY47       0.2014
     78  C         14.6890 -134.5860   14.5880 C.2    47  GLY47       0.2639
     79  O         13.5420 -135.0220   14.6710 O.2    47  GLY47      -0.2714
     80  N         15.2740 -133.9000   15.5640 N.am   48  GLY48      -0.1939
     81  CA        14.5540 -133.5410   16.7800 C.3    48  GLY48       0.2014
     82  C         13.3910 -132.6220   16.4540 C.2    48  GLY48       0.2639
     83  O         13.5750 -131.5850   15.8160 O.2    48  GLY48      -0.2714
     84  N         12.1910 -133.0120   16.8770 N.am   49  ALA49      -0.1963
     85  CA        10.9760 -132.2520   16.5770 C.3    49  ALA49       0.1728
     86  C         11.0440 -130.8430   17.1230 C.2    49  ALA49       0.2616
     87  O         10.8840 -129.8730   16.3880 O.2    49  ALA49      -0.2715
     88  CB         9.7500 -132.9630   17.1370 C.3    49  ALA49       0.0334
     89  N         11.2870 -130.7500   18.4250 N.am   50  ALA50      -0.1977
     90  CA        11.3580 -129.4720   19.1160 C.3    50  ALA50       0.1597
     91  C         12.4280 -128.5820   18.5000 C.2    50  ALA50       0.2287
     92  O         12.1680 -127.4210   18.1970 O.2    50  ALA50      -0.2864
     93  CB        11.6370 -129.6940   20.5930 C.3    50  ALA50       0.0319
     94  N         13.8170 -128.6250   15.4790 N.3    52  CYS52      -0.1221
     95  CA        13.3950 -128.1650   14.1530 C.3    52  CYS52       0.1808
     96  C         12.2570 -127.1510   14.2460 C.2    52  CYS52       0.2601
     97  O         12.3230 -126.0710   13.6610 O.2    52  CYS52      -0.2717
     98  CB        12.9460 -129.3470   13.2930 C.3    52  CYS52       0.0970
     99  SG        14.2770 -130.4780   12.8440 S.3    52  CYS52      -0.0800
    100  N         11.2240 -127.5180   14.9950 N.am   53  GLN53      -0.1979
    101  CA        10.0120 -126.7120   15.1270 C.3    53  GLN53       0.1601
    102  C         10.2980 -125.3470   15.7520 C.2    53  GLN53       0.2287
    103  O          9.7990 -124.3260   15.2830 O.2    53  GLN53      -0.2864
    104  CB         8.9930 -127.4630   15.9840 C.3    53  GLN53       0.0394
    105  CG         7.5450 -127.1860   15.6500 C.3    53  GLN53       0.0908
    106  CD         6.6140 -128.0500   16.4750 C.2    53  GLN53       0.2608
    107  OE1        6.2760 -127.7060   17.6060 O.2    53  GLN53      -0.2717
    108  NE2        6.2020 -129.1840   15.9180 N.am   53  GLN53      -0.0878
    109  N         19.6800 -131.7660   17.0630 N.3    96  SER96      -0.1217
    110  CA        19.4910 -132.7450   15.9970 C.3    96  SER96       0.1889
    111  C         18.5160 -132.1820   14.9690 C.2    96  SER96       0.2288
    112  O         17.3020 -132.1890   15.1770 O.2    96  SER96      -0.2866
    113  CB        18.9650 -134.0640   16.5680 C.3    96  SER96       0.2089
    114  OG        18.9110 -135.0680   15.5690 O.3    96  SER96      -0.2183
    115  N         16.5880 -137.3880    6.1870 N.3   130  GLY130     -0.1210
    116  CA        15.8330 -138.1640    7.1630 C.3   130  GLY130      0.1956
    117  C         16.2580 -139.6170    7.2150 C.2   130  GLY130      0.2612
    118  O         17.1000 -140.0560    6.4360 O.2   130  GLY130     -0.2717
    119  N         15.6540 -140.3610    8.1390 N.am  131  SER131     -0.1952
    120  CA        15.9350 -141.7850    8.3180 C.3   131  SER131      0.1924
    121  C         15.6240 -142.6040    7.0680 C.2   131  SER131      0.2314
    122  O         16.2350 -143.6450    6.8400 O.2   131  SER131     -0.2863
    123  CB        15.1320 -142.3350    9.4970 C.3   131  SER131      0.2116
    124  OG        13.7500 -142.0660    9.3340 O.3   131  SER131     -0.2180
    125  N         10.4300 -145.8550   10.3540 N.3   170  TYR170     -0.1241
    126  CA        10.2970 -144.5660   11.0410 C.3   170  TYR170      0.1605
    127  C          9.8670 -143.4450   10.0910 C.2   170  TYR170      0.2264
    128  O         10.1930 -142.2780   10.3080 O.2   170  TYR170     -0.2867
    129  CB        11.6170 -144.2020   11.7210 C.3   170  TYR170      0.0534
    130  CG        12.1200 -145.2780   12.6540 C.ar  170  TYR170     -0.0201
    131  CD1       11.4160 -145.6050   13.8050 C.ar  170  TYR170     -0.0009
    132  CD2       13.2950 -145.9760   12.3820 C.ar  170  TYR170     -0.0009
    133  CE1       11.8650 -146.5920   14.6630 C.ar  170  TYR170      0.0417
    134  CE2       13.7530 -146.9640   13.2370 C.ar  170  TYR170      0.0417
    135  CZ        13.0330 -147.2670   14.3750 C.ar  170  TYR170      0.1957
    136  OH        13.4790 -148.2480   15.2280 O.3   170  TYR170     -0.2866
@<TRIPOS>BOND
     1   115   116    1
     2   118   117    2
     3   122   121    2
     4   121   120    1
     5   116   117    1
     6   117   119   am
     7     4     3    2
     8    57    56    2
     9     3     2    1
    10    56    55    1
    11    63    64    1
    12   119   120    1
    13    58    55    1
    14    58    59    1
    15     7     5    1
    16   120   123    1
    17    55    54    1
    18    60    59    1
    19    60    61    1
    20    75    72    1
    21     2     5    1
    22     2     1    1
    23    66    65    2
    24     5     6    1
    25    64    65    1
    26    64    67    1
    27    65    71   am
    28   124   123    1
    29    50    49    2
    30    62    61    1
    31     8     9    1
    32    71    72    1
    33    18    16    1
    34   127   128    2
    35   127   126    1
    36    72    73    1
    37    67    68    1
    38    68    69    1
    39   125   126    1
    40    16    17    1
    41    16    15    2
    42    49    48    1
    43    12     9    1
    44    12    13    1
    45    15    14    1
    46     9    10    1
    47   126   129    1
    48    69    70    1
    49    73    74    2
    50    73    76   am
    51    14    13    1
    52    47    48    1
    53   129   130    1
    54    11    10    2
    55    48    51    1
    56    10    19   am
    57    76    77    1
    58   132   130   ar
    59   132   134   ar
    60    51    52    1
    61    51    53    1
    62   130   131   ar
    63    99    98    1
    64   134   135   ar
    65    98    95    1
    66    77    78    1
    67    19    20    1
    68    44    43    2
    69    97    96    2
    70   131   133   ar
    71    43    42    1
    72    95    96    1
    73    95    94    1
    74    96   100   am
    75   135   133   ar
    76   135   136    1
    77    20    23    1
    78    20    21    1
    79    30    28    1
    80    78    79    2
    81    78    80   am
    82   111   112    2
    83   111   110    1
    84   100   101    1
    85    46    45    1
    86   101   102    1
    87   101   104    1
    88   103   102    2
    89    21    22    2
    90    21    24   am
    91    29    28    1
    92    80    81    1
    93   114   113    1
    94    42    45    1
    95    42    41    1
    96   105   104    1
    97   105   106    1
    98    24    25    1
    99    83    82    2
   100    28    25    1
   101   108   106   am
   102   110   113    1
   103   110   109    1
   104    41    38   am
   105    87    86    2
   106    82    81    1
   107    82    84   am
   108   106   107    2
   109    85    84    1
   110    85    86    1
   111    85    88    1
   112    25    26    1
   113    86    89   am
   114    36    37    1
   115    38    39    2
   116    38    37    1
   117    26    27    2
   118    26    31   am
   119    92    91    2
   120    37    40    1
   121    89    90    1
   122    91    90    1
   123    31    32    1
   124    90    93    1
   125    32    33    1
   126    32    35    1
   127    33    34    2
