@<TRIPOS>MOLECULE
tmp/5jhsZ00.pdb
 106 106 0 0 0
SMALL
GASTEIGER

@<TRIPOS>ATOM
      1  N         52.9610 -165.2730   27.3660 N.3   104  PRO104     -0.2116
      2  CA        54.3970 -165.1810   27.0760 C.3   104  PRO104      0.1372
      3  C         55.3560 -165.1950   28.2620 C.2   104  PRO104      0.2244
      4  O         54.9810 -164.8530   29.3820 O.2   104  PRO104     -0.2868
      5  CB        54.5140 -163.8340   26.3520 C.3   104  PRO104      0.0268
      6  CG        53.1740 -163.6140   25.7550 C.3   104  PRO104      0.0207
      7  CD        52.2330 -164.1230   26.7990 C.3   104  PRO104      0.0892
      8  N         57.9410 -163.0320   29.6110 N.3   106  TYR106     -0.1241
      9  CA        58.3180 -161.6210   29.4460 C.3   106  TYR106      0.1605
     10  C         59.8260 -161.4510   29.5900 C.2   106  TYR106      0.2264
     11  O         60.3110 -160.9560   30.6050 O.2   106  TYR106     -0.2867
     12  CB        57.5680 -160.7180   30.4400 C.3   106  TYR106      0.0534
     13  CG        56.2890 -160.1030   29.9000 C.ar  106  TYR106     -0.0201
     14  CD1       55.4580 -160.8070   29.0250 C.ar  106  TYR106     -0.0009
     15  CD2       55.8990 -158.8210   30.2810 C.ar  106  TYR106     -0.0009
     16  CE1       54.2870 -160.2450   28.5380 C.ar  106  TYR106      0.0417
     17  CE2       54.7280 -158.2540   29.8010 C.ar  106  TYR106      0.0417
     18  CZ        53.9250 -158.9700   28.9290 C.ar  106  TYR106      0.1957
     19  OH        52.7610 -158.4160   28.4470 O.3   106  TYR106     -0.2866
     20  N         63.7520 -160.8100   27.2190 N.3   108  HIS108     -0.1241
     21  CA        64.5760 -160.6360   26.0350 C.3   108  HIS108      0.1621
     22  C         65.7400 -161.5970   26.1430 C.2   108  HIS108      0.2264
     23  O         66.6100 -161.4420   27.0040 O.2   108  HIS108     -0.2867
     24  CB        65.0840 -159.2030   25.9270 C.3   108  HIS108      0.0745
     25  CG        64.0220 -158.2220   25.5500 C.ar  108  HIS108      0.0817
     26  ND1       63.9580 -156.9500   26.0780 N.ar  108  HIS108     -0.2268
     27  CD2       62.9680 -158.3350   24.7080 C.ar  108  HIS108      0.1154
     28  CE1       62.9170 -156.3180   25.5660 C.ar  108  HIS108      0.1986
     29  NE2       62.2990 -157.1360   24.7340 N.ar  108  HIS108     -0.2212
     30  N         69.5520 -163.4100   19.0370 N.3   124  SER124     -0.1202
     31  CA        68.6740 -162.6420   19.9270 C.3   124  SER124      0.2020
     32  C         67.2020 -162.9170   19.6340 C.2   124  SER124      0.2619
     33  O         66.7990 -163.0190   18.4750 O.2   124  SER124     -0.2717
     34  CB        68.9560 -161.1440   19.8040 C.3   124  SER124      0.2103
     35  OG        68.5150 -160.6280   18.5590 O.3   124  SER124     -0.2182
     36  N         66.4070 -163.0130   20.6980 N.am  125  PHE125     -0.1961
     37  CA        64.9980 -163.3820   20.5950 C.3   125  PHE125      0.1771
     38  C         64.1180 -162.2970   21.1830 C.2   125  PHE125      0.2620
     39  O         64.5360 -161.5750   22.0900 O.2   125  PHE125     -0.2715
     40  CB        64.7250 -164.6870   21.3510 C.3   125  PHE125      0.0574
     41  CG        65.6490 -165.8090   20.9810 C.ar  125  PHE125     -0.0200
     42  CD1       66.9600 -165.8270   21.4380 C.ar  125  PHE125     -0.0042
     43  CD2       65.2090 -166.8500   20.1810 C.ar  125  PHE125     -0.0042
     44  CE1       67.8160 -166.8530   21.0940 C.ar  125  PHE125     -0.0003
     45  CE2       66.0610 -167.8820   19.8330 C.ar  125  PHE125     -0.0003
     46  CZ        67.3660 -167.8840   20.2930 C.ar  125  PHE125     -0.0000
     47  N         62.8990 -162.1890   20.6630 N.am  126  ASP126     -0.1958
     48  CA        61.8620 -161.3940   21.3120 C.3   126  ASP126      0.1825
     49  C         61.1310 -162.3190   22.3020 C.2   126  ASP126      0.2464
     50  O         61.4620 -163.5050   22.3960 O.2   126  ASP126     -0.2730
     51  CB        60.9350 -160.7300   20.2700 C.3   126  ASP126      0.1450
     52  CG        59.8870 -161.6770   19.6920 C.2   126  ASP126      0.3671
     53  OD1       60.0650 -162.9140   19.7580 O.co2 126  ASP126     -0.2456
     54  OD2       58.8830 -161.1700   19.1400 O.co2 126  ASP126     -0.2456
     55  N         60.1610 -161.7860   23.0630 N.am  127  PRO127     -0.2715
     56  CA        59.4750 -162.6040   24.0700 C.3   127  PRO127      0.1536
     57  C         58.6650 -163.7910   23.5410 C.2   127  PRO127      0.2598
     58  O         58.3990 -164.7290   24.2990 O.2   127  PRO127     -0.2715
     59  CB        58.5420 -161.5960   24.7490 C.3   127  PRO127      0.0310
     60  CG        59.2360 -160.2900   24.5820 C.3   127  PRO127      0.0237
     61  CD        59.7980 -160.3650   23.1950 C.3   127  PRO127      0.0939
     62  N         58.2830 -163.7620   22.2660 N.am  128  VAL128     -0.1978
     63  CA        57.4370 -164.8220   21.7030 C.3   128  VAL128      0.1596
     64  C         58.1260 -165.6970   20.6460 C.2   128  VAL128      0.2287
     65  O         57.4740 -166.5360   20.0280 O.2   128  VAL128     -0.2864
     66  CB        56.0970 -164.2720   21.1530 C.3   128  VAL128      0.0276
     67  CG1       55.1250 -164.0220   22.2990 C.3   128  VAL128      0.0022
     68  CG2       56.3090 -163.0080   20.3290 C.3   128  VAL128      0.0022
     69  N         60.5900 -164.8670   17.9160 N.3   130  SER130     -0.1202
     70  CA        61.2370 -164.3980   16.6910 C.3   130  SER130      0.2020
     71  C         62.7140 -164.1930   16.9870 C.2   130  SER130      0.2619
     72  O         63.0640 -163.5230   17.9560 O.2   130  SER130     -0.2717
     73  CB        60.6160 -163.0970   16.1790 C.3   130  SER130      0.2103
     74  OG        61.0950 -161.9800   16.8980 O.3   130  SER130     -0.2182
     75  N         63.5750 -164.7900   16.1670 N.am  131  TYR131     -0.1961
     76  CA        65.0150 -164.7010   16.3870 C.3   131  TYR131      0.1771
     77  C         65.7800 -164.3220   15.1340 C.2   131  TYR131      0.2619
     78  O         65.2530 -164.3610   14.0210 O.2   131  TYR131     -0.2715
     79  CB        65.5630 -166.0050   16.9750 C.3   131  TYR131      0.0574
     80  CG        65.6150 -167.1890   16.0320 C.ar  131  TYR131     -0.0198
     81  CD1       64.5070 -168.0140   15.8570 C.ar  131  TYR131     -0.0009
     82  CD2       66.7830 -167.5070   15.3450 C.ar  131  TYR131     -0.0009
     83  CE1       64.5560 -169.1080   15.0070 C.ar  131  TYR131      0.0417
     84  CE2       66.8400 -168.5960   14.4930 C.ar  131  TYR131      0.0417
     85  CZ        65.7240 -169.3930   14.3280 C.ar  131  TYR131      0.1957
     86  OH        65.7730 -170.4780   13.4850 O.3   131  TYR131     -0.2866
     87  N         67.0360 -163.9510   15.3440 N.am  132  GLU132     -0.1977
     88  CA        67.8930 -163.4510   14.2840 C.3   132  GLU132      0.1602
     89  C         69.3430 -163.5170   14.7440 C.2   132  GLU132      0.2287
     90  O         69.6560 -163.1430   15.8810 O.2   132  GLU132     -0.2864
     91  CB        67.5220 -162.0010   13.9690 C.3   132  GLU132      0.0415
     92  CG        68.2480 -161.3910   12.7790 C.3   132  GLU132      0.1163
     93  CD        68.1890 -159.8720   12.7690 C.2   132  GLU132      0.3649
     94  OE1       67.4300 -159.2840   13.5700 O.co2 132  GLU132     -0.2457
     95  OE2       68.9110 -159.2610   11.9570 O.co2 132  GLU132     -0.2457
     96  N         74.2340 -157.2930   19.8190 N.3   137  ARG137     -0.1245
     97  CA        72.9130 -157.0660   20.4010 C.3   137  ARG137      0.1563
     98  C         72.9670 -156.7290   21.8870 C.2   137  ARG137      0.2260
     99  O         73.6410 -157.4010   22.6690 O.2   137  ARG137     -0.2867
    100  CB        71.9930 -158.2740   20.1770 C.3   137  ARG137      0.0307
    101  CG        70.6390 -158.1800   20.8780 C.3   137  ARG137      0.0489
    102  CD        69.7850 -157.0310   20.3630 C.3   137  ARG137      0.2205
    103  NE        69.2460 -157.2820   19.0290 N.pl3 137  ARG137     -0.0865
    104  CZ        68.6110 -156.3760   18.2880 C.cat 137  ARG137      0.5346
    105  NH1       68.4310 -155.1360   18.7360 N.pl3 137  ARG137      0.1354
    106  NH2       68.1550 -156.7060   17.0850 N.pl3 137  ARG137      0.1354
@<TRIPOS>BOND
     1    95    93   ar
     2    93    92    1
     3    93    94   ar
     4    92    91    1
     5    86    85    1
     6    91    88    1
     7    78    77    2
     8    88    89    1
     9    88    87    1
    10    85    84   ar
    11    85    83   ar
    12    84    82   ar
    13    89    90    2
    14    83    81   ar
    15    77    87   am
    16    77    76    1
    17    82    80   ar
    18    81    80   ar
    19    80    79    1
    20    75    76    1
    21    75    71   am
    22    73    70    1
    23    73    74    1
    24    76    79    1
    25    70    71    1
    26    70    69    1
    27    71    72    2
    28   106   104    1
    29   104   105    1
    30   104   103    2
    31    33    32    2
    32    35    34    1
    33   103   102    1
    34    30    31    1
    35    54    52   ar
    36    32    31    1
    37    32    36   am
    38    52    53   ar
    39    52    51    1
    40    34    31    1
    41    96    97    1
    42    45    43   ar
    43    45    46   ar
    44    65    64    2
    45   100    97    1
    46   100   101    1
    47    43    41   ar
    48    51    48    1
    49    46    44   ar
    50    68    66    1
    51   102   101    1
    52    97    98    1
    53    37    36    1
    54    37    38    1
    55    37    40    1
    56    64    63    1
    57    47    38   am
    58    47    48    1
    59    41    40    1
    60    41    42   ar
    61    44    42   ar
    62    66    63    1
    63    66    67    1
    64    38    39    2
    65    48    49    1
    66    63    62    1
    67    98    99    2
    68    62    57   am
    69    49    50    2
    70    49    55   am
    71    55    61    1
    72    55    56    1
    73    61    60    1
    74    57    56    1
    75    57    58    2
    76    56    59    1
    77    60    59    1
    78    27    29   ar
    79    27    25   ar
    80    29    28   ar
    81    25    24    1
    82    25    26   ar
    83    28    26   ar
    84     6     5    1
    85     6     7    1
    86    24    21    1
    87    21    22    1
    88    21    20    1
    89    22    23    2
    90     5     2    1
    91     7     1    1
    92     2     1    1
    93     2     3    1
    94     3     4    2
    95    19    18    1
    96    16    18   ar
    97    16    14   ar
    98    18    17   ar
    99    14    13   ar
   100     9    10    1
   101     9     8    1
   102     9    12    1
   103    10    11    2
   104    17    15   ar
   105    13    15   ar
   106    13    12    1
