@<TRIPOS>MOLECULE
tmp/5jhtA00.pdb
 105 99 0 0 0
SMALL
GASTEIGER

@<TRIPOS>ATOM
      1  N         31.8830  -10.8050   11.2050 N.3    29  TYR29      -0.1241
      2  CA        32.0430  -10.9750   12.6580 C.3    29  TYR29       0.1605
      3  C         31.6680  -12.3670   13.1830 C.2    29  TYR29       0.2264
      4  O         31.7180  -12.6060   14.3880 O.2    29  TYR29      -0.2867
      5  CB        31.1920   -9.9500   13.4160 C.3    29  TYR29       0.0534
      6  CG        31.8700   -8.6370   13.7410 C.ar   29  TYR29      -0.0201
      7  CD1       32.3030   -8.3610   15.0330 C.ar   29  TYR29      -0.0009
      8  CD2       32.0430   -7.6580   12.7680 C.ar   29  TYR29      -0.0009
      9  CE1       32.9070   -7.1520   15.3440 C.ar   29  TYR29       0.0417
     10  CE2       32.6510   -6.4460   13.0680 C.ar   29  TYR29       0.0417
     11  CZ        33.0800   -6.1990   14.3580 C.ar   29  TYR29       0.1957
     12  OH        33.6840   -4.9970   14.6630 O.3    29  TYR29      -0.2866
     13  N         22.7760    1.9510   11.9700 N.3    46  HIS46      -0.1241
     14  CA        24.0140    2.7060   12.1650 C.3    46  HIS46       0.1621
     15  C         24.5970    2.9730   10.7620 C.2    46  HIS46       0.2264
     16  O         25.0890    4.0720   10.4700 O.2    46  HIS46      -0.2867
     17  CB        24.9810    1.8980   13.0140 C.3    46  HIS46       0.0745
     18  CG        26.3700    2.4520   13.0580 C.ar   46  HIS46       0.0817
     19  ND1       27.3600    2.0180   12.2030 N.ar   46  HIS46      -0.2268
     20  CD2       26.9530    3.3640   13.8680 C.ar   46  HIS46       0.1154
     21  CE1       28.4850    2.6590   12.4580 C.ar   46  HIS46       0.1986
     22  NE2       28.2750    3.4720   13.4840 N.ar   46  HIS46      -0.2212
     23  N         32.8860    3.2290    7.1700 N.3    65  GLU65      -0.1245
     24  CA        31.9360    2.1650    7.5600 C.3    65  GLU65       0.1567
     25  C         31.2970    1.5050    6.3470 C.2    65  GLU65       0.2260
     26  O         30.9730    2.1590    5.3420 O.2    65  GLU65      -0.2867
     27  CB        30.8180    2.7690    8.4470 C.3    65  GLU65       0.0388
     28  CG        29.8390    1.6970    9.0990 C.3    65  GLU65       0.1160
     29  CD        30.5620    0.6920    9.9930 C.2    65  GLU65       0.3649
     30  OE1       30.8210    0.9690   11.2190 O.co2  65  GLU65      -0.2457
     31  OE2       30.9230   -0.3880    9.4690 O.co2  65  GLU65      -0.2457
     32  N         38.9060    1.2810   13.6370 N.3    91  LEU91      -0.1245
     33  CA        38.2970    1.8280   12.4020 C.3    91  LEU91       0.1561
     34  C         37.2230    2.8550   12.7760 C.2    91  LEU91       0.2260
     35  O         36.2470    2.5340   13.5070 O.2    91  LEU91      -0.2867
     36  CB        37.6460    0.7450   11.5530 C.3    91  LEU91       0.0270
     37  CG        38.5500   -0.0850   10.6570 C.3    91  LEU91       0.0019
     38  CD1       37.7040   -1.1290    9.8910 C.3    91  LEU91       0.0001
     39  CD2       39.3490    0.8600    9.7220 C.3    91  LEU91       0.0001
     40  N         34.2510    5.8080   11.3770 N.3    93  ASP93      -0.1239
     41  CA        33.1320    5.6540   10.4460 C.3    93  ASP93       0.1674
     42  C         33.3230    6.5820    9.2320 C.2    93  ASP93       0.2266
     43  O         32.9210    6.2130    8.1610 O.2    93  ASP93      -0.2867
     44  CB        31.8270    6.0150   11.1720 C.3    93  ASP93       0.1410
     45  CG        31.4240    4.9400   12.1620 C.2    93  ASP93       0.3668
     46  OD1       31.5600    3.7600   11.7550 O.co2  93  ASP93      -0.2456
     47  OD2       30.9780    5.2840   13.2650 O.co2  93  ASP93      -0.2456
     48  N         33.7610    9.1380   14.6030 N.3   104  GLU104     -0.1231
     49  CA        33.0420    7.9440   15.0210 C.3   104  GLU104      0.1699
     50  C         31.5930    8.3470   15.2620 C.2   104  GLU104      0.2592
     51  O         31.3260    9.2350   16.0600 O.2   104  GLU104     -0.2718
     52  CB        33.6820    7.4560   16.3430 C.3   104  GLU104      0.0402
     53  CG        32.8970    6.2960   16.9640 C.3   104  GLU104      0.1161
     54  CD        32.8160    5.0900   16.0560 C.2   104  GLU104      0.3649
     55  OE1       33.7900    4.8760   15.3020 O.co2 104  GLU104     -0.2457
     56  OE2       31.7470    4.3810   16.0660 O.co2 104  GLU104     -0.2457
     57  N         30.6660    7.6990   14.5800 N.am  105  ILE105     -0.1966
     58  CA        29.2410    7.9340   14.7040 C.3   105  ILE105      0.1727
     59  C         28.6720    6.8600   15.6340 C.2   105  ILE105      0.2617
     60  O         28.9460    5.6780   15.4660 O.2   105  ILE105     -0.2715
     61  CB        28.5990    7.7520   13.3380 C.3   105  ILE105      0.0290
     62  CG1       29.1120    8.8300   12.3670 C.3   105  ILE105      0.0022
     63  CG2       27.0830    7.8450   13.4320 C.3   105  ILE105      0.0023
     64  CD1       28.7230   10.1830   12.8100 C.3   105  ILE105      0.0001
     65  N         27.8890    7.2490   16.6190 N.am  106  GLY106     -0.1940
     66  CA        27.2890    6.2110   17.4590 C.3   106  GLY106      0.2014
     67  C         25.7860    6.4170   17.4290 C.2   106  GLY106      0.2638
     68  O         25.3000    7.5560   17.2460 O.2   106  GLY106     -0.2714
     69  N         25.0250    5.3190   17.5030 N.am  107  VAL107     -0.1977
     70  CA        23.5740    5.4290   17.5350 C.3   107  VAL107      0.1596
     71  C         23.2060    4.5760   18.7530 C.2   107  VAL107      0.2287
     72  O         23.7060    3.4570   18.8630 O.2   107  VAL107     -0.2864
     73  CB        22.9380    4.8530   16.2910 C.3   107  VAL107      0.0276
     74  CG1       21.3970    4.8180   16.4060 C.3   107  VAL107      0.0022
     75  CG2       23.3330    5.7720   15.0420 C.3   107  VAL107      0.0022
     76  N         26.6250    6.8390   26.8660 N.3   115  TYR115     -0.1241
     77  CA        27.1490    6.1560   25.6790 C.3   115  TYR115      0.1605
     78  C         28.3240    6.9570   25.0700 C.2   115  TYR115      0.2264
     79  O         29.3380    6.3770   24.6700 O.2   115  TYR115     -0.2867
     80  CB        26.0170    5.9190   24.6720 C.3   115  TYR115      0.0534
     81  CG        26.4190    5.1350   23.4610 C.ar  115  TYR115     -0.0201
     82  CD1       26.3860    3.7570   23.4620 C.ar  115  TYR115     -0.0009
     83  CD2       26.7970    5.7730   22.2860 C.ar  115  TYR115     -0.0009
     84  CE1       26.7710    3.0210   22.3540 C.ar  115  TYR115      0.0417
     85  CE2       27.1840    5.0280   21.1620 C.ar  115  TYR115      0.0417
     86  CZ        27.1700    3.6800   21.2000 C.ar  115  TYR115      0.1957
     87  OH        27.5490    2.9330   20.0940 O.3   115  TYR115     -0.2866
     88  N         32.1090    5.6310   24.5960 N.3   119  LYS119     -0.1245
     89  CA        32.7770    5.6520   23.2800 C.3   119  LYS119      0.1561
     90  C         34.1300    6.3800   23.3480 C.2   119  LYS119      0.2260
     91  O         35.1330    5.8950   22.7920 O.2   119  LYS119     -0.2867
     92  CB        31.8570    6.2840   22.2330 C.3   119  LYS119      0.0271
     93  CG        30.6160    5.4410   21.9590 C.3   119  LYS119      0.0035
     94  CD        30.9600    4.2150   21.1160 C.3   119  LYS119      0.0206
     95  CE        30.9380    4.5620   19.6170 C.3   119  LYS119      0.1093
     96  NZ        31.3310    3.3450   18.8080 N.3   119  LYS119     -0.1314
     97  N         36.7550    4.4170   25.0730 N.3   122  LYS122     -0.1245
     98  CA        37.2440    3.3110   24.2610 C.3   122  LYS122      0.1561
     99  C         38.2690    3.7390   23.2220 C.2   122  LYS122      0.2260
    100  O         39.3440    3.1330   23.0890 O.2   122  LYS122     -0.2867
    101  CB        36.1150    2.6060   23.5300 C.3   122  LYS122      0.0271
    102  CG        36.6480    1.6440   22.4790 C.3   122  LYS122      0.0035
    103  CD        35.5470    0.8800   21.8240 C.3   122  LYS122      0.0206
    104  CE        36.0610    0.1320   20.6070 C.3   122  LYS122      0.1093
    105  NZ        34.9610   -0.5840   19.8970 N.3   122  LYS122     -0.1314
@<TRIPOS>BOND
     1    26    25    2
     2    25    24    1
     3    23    24    1
     4    24    27    1
     5    43    42    2
     6    27    28    1
     7    28    29    1
     8    42    41    1
     9    31    29   ar
    10    39    37    1
    11    38    37    1
    12    29    30   ar
    13    41    44    1
    14    41    40    1
    15    16    15    2
    16    37    36    1
    17    15    14    1
    18    44    45    1
    19     1     2    1
    20    36    33    1
    21    46    45   ar
    22    13    14    1
    23    45    47   ar
    24    14    17    1
    25    19    21   ar
    26    19    18   ar
    27    62    64    1
    28    62    61    1
    29    33    34    1
    30    33    32    1
    31    21    22   ar
    32     2     3    1
    33     2     5    1
    34     8    10   ar
    35     8     6   ar
    36    34    35    2
    37    17    18    1
    38    18    20   ar
    39    10    11   ar
    40     3     4    2
    41    61    63    1
    42    61    58    1
    43     5     6    1
    44    22    20   ar
    45     6     7   ar
    46    11    12    1
    47    11     9   ar
    48    57    58    1
    49    57    50   am
    50    48    49    1
    51    58    59    1
    52    49    50    1
    53    49    52    1
    54     7     9   ar
    55    75    73    1
    56    50    51    2
    57    55    54   ar
    58    60    59    2
    59    59    65   am
    60    54    56   ar
    61    54    53    1
    62    73    74    1
    63    73    70    1
    64    52    53    1
    65    65    66    1
    66    68    67    2
    67    67    66    1
    68    67    69   am
    69    69    70    1
    70    70    71    1
    71    71    72    2
    72    96    95    1
    73    95    94    1
    74   105   104    1
    75    87    86    1
    76   104   103    1
    77    94    93    1
    78    85    86   ar
    79    85    83   ar
    80    86    84   ar
    81   103   102    1
    82    93    92    1
    83    92    89    1
    84    83    81   ar
    85    84    82   ar
    86   102   101    1
    87    91    90    2
    88   100    99    2
    89    99    98    1
    90    89    90    1
    91    89    88    1
    92    81    82   ar
    93    81    80    1
    94   101    98    1
    95    98    97    1
    96    79    78    2
    97    80    77    1
    98    78    77    1
    99    77    76    1
