@<TRIPOS>MOLECULE
tmp/5jhuA00.pdb
 135 132 0 0 0
SMALL
GASTEIGER

@<TRIPOS>ATOM
      1  N        -20.9970  -18.7490    9.0230 N.3   110  PHE110     -0.1228
      2  CA       -20.9950  -18.0070   10.2910 C.3   110  PHE110      0.1721
      3  C        -19.5910  -18.0620   10.8950 C.2   110  PHE110      0.2437
      4  O        -18.7710  -18.8810   10.4680 O.2   110  PHE110     -0.2733
      5  CB       -22.0740  -18.5280   11.2770 C.3   110  PHE110      0.0547
      6  CG       -22.0060  -20.0220   11.5500 C.ar  110  PHE110     -0.0202
      7  CD1      -21.0760  -20.5520   12.4490 C.ar  110  PHE110     -0.0042
      8  CD2      -22.8870  -20.8920   10.9080 C.ar  110  PHE110     -0.0042
      9  CE1      -21.0370  -21.9320   12.7000 C.ar  110  PHE110     -0.0003
     10  CE2      -22.8490  -22.2630   11.1430 C.ar  110  PHE110     -0.0003
     11  CZ       -21.9250  -22.7880   12.0430 C.ar  110  PHE110     -0.0000
     12  N        -19.2860  -17.1660   11.8570 N.am  111  PRO111     -0.2729
     13  CA       -17.9500  -17.1090   12.4410 C.3   111  PRO111      0.1401
     14  C        -17.5500  -18.3930   13.1700 C.2   111  PRO111      0.2269
     15  O        -18.4120  -19.1310   13.6460 O.2   111  PRO111     -0.2865
     16  CB       -18.0530  -15.9320   13.4380 C.3   111  PRO111      0.0296
     17  CG       -19.1970  -15.1040   12.9220 C.3   111  PRO111      0.0237
     18  CD       -20.1690  -16.1290   12.4350 C.3   111  PRO111      0.0939
     19  N        -20.8840  -19.1210   20.8320 N.3   122  HIS122     -0.1241
     20  CA       -20.8560  -17.7300   20.3470 C.3   122  HIS122      0.1621
     21  C        -19.7000  -16.8770   20.8370 C.2   122  HIS122      0.2264
     22  O        -19.7680  -15.6460   20.7700 O.2   122  HIS122     -0.2867
     23  CB       -22.2040  -17.0080   20.5700 C.3   122  HIS122      0.0745
     24  CG       -23.3760  -17.7410   19.9940 C.ar  122  HIS122      0.0817
     25  ND1      -24.6760  -17.4520   20.3410 N.ar  122  HIS122     -0.2268
     26  CD2      -23.4390  -18.7750   19.1200 C.ar  122  HIS122      0.1154
     27  CE1      -25.4950  -18.2600   19.6900 C.ar  122  HIS122      0.1986
     28  NE2      -24.7700  -19.0800   18.9510 N.ar  122  HIS122     -0.2212
     29  N        -17.0300  -24.7020   16.4580 N.3   142  ASP142     -0.1239
     30  CA       -18.3180  -24.7110   15.7790 C.3   142  ASP142      0.1674
     31  C        -18.1540  -23.7520   14.6110 C.2   142  ASP142      0.2266
     32  O        -18.0510  -22.5330   14.8000 O.2   142  ASP142     -0.2867
     33  CB       -19.4240  -24.2840   16.7700 C.3   142  ASP142      0.1410
     34  CG       -20.8380  -24.3840   16.1900 C.2   142  ASP142      0.3668
     35  OD1      -21.0010  -24.5170   14.9710 O.co2 142  ASP142     -0.2456
     36  OD2      -21.8120  -24.3040   16.9670 O.co2 142  ASP142     -0.2456
     37  N        -23.9530  -26.7130    9.4870 N.3   153  ASP153     -0.1239
     38  CA       -23.7450  -26.2990   10.8780 C.3   153  ASP153      0.1674
     39  C        -23.2840  -27.5480   11.6190 C.2   153  ASP153      0.2266
     40  O        -24.0670  -28.4940   11.8170 O.2   153  ASP153     -0.2867
     41  CB       -25.0710  -25.7760   11.4490 C.3   153  ASP153      0.1410
     42  CG       -24.9320  -25.1480   12.8380 C.2   153  ASP153      0.3668
     43  OD1      -23.7980  -24.9880   13.3570 O.co2 153  ASP153     -0.2456
     44  OD2      -25.9860  -24.8100   13.4140 O.co2 153  ASP153     -0.2456
     45  N        -32.1220  -26.9610   15.8220 N.3   222  HIS222     -0.1241
     46  CA       -32.9770  -26.0000   15.1220 C.3   222  HIS222      0.1621
     47  C        -33.0780  -26.3530   13.6610 C.2   222  HIS222      0.2264
     48  O        -32.1820  -26.9930   13.1130 O.2   222  HIS222     -0.2867
     49  CB       -32.3740  -24.5920   15.2500 C.3   222  HIS222      0.0745
     50  CG       -30.9110  -24.5410   14.9300 C.ar  222  HIS222      0.0817
     51  ND1      -30.4330  -24.2320   13.6720 N.ar  222  HIS222     -0.2268
     52  CD2      -29.8220  -24.7720   15.7030 C.ar  222  HIS222      0.1154
     53  CE1      -29.1080  -24.2750   13.6870 C.ar  222  HIS222      0.1986
     54  NE2      -28.7140  -24.6030   14.9060 N.ar  222  HIS222     -0.2212
     55  N        -29.5910  -19.5860    9.3090 N.3   229  ILE229     -0.1231
     56  CA       -29.0370  -20.5850   10.2470 C.3   229  ILE229      0.1692
     57  C        -30.1040  -21.1190   11.2140 C.2   229  ILE229      0.2592
     58  O        -30.1410  -22.3210   11.5050 O.2   229  ILE229     -0.2718
     59  CB       -27.7840  -20.0530   10.9980 C.3   229  ILE229      0.0266
     60  CG1      -27.1470  -21.1280   11.8950 C.3   229  ILE229      0.0019
     61  CG2      -28.1150  -18.8280   11.8480 C.3   229  ILE229      0.0020
     62  CD1      -26.5910  -22.3220   11.1580 C.3   229  ILE229      0.0001
     63  N        -30.9810  -20.2270   11.6720 N.am  230  HIS230     -0.1976
     64  CA       -32.0950  -20.6220   12.5320 C.3   230  HIS230      0.1656
     65  C        -33.4060  -20.3130   11.8210 C.2   230  HIS230      0.2291
     66  O        -33.8590  -19.1670   11.7870 O.2   230  HIS230     -0.2864
     67  CB       -32.0150  -19.8990   13.8810 C.3   230  HIS230      0.0771
     68  CG       -32.8210  -20.5450   14.9660 C.ar  230  HIS230      0.0820
     69  ND1      -34.1980  -20.6160   14.9320 N.ar  230  HIS230     -0.2267
     70  CD2      -32.4430  -21.1340   16.1260 C.ar  230  HIS230      0.1154
     71  CE1      -34.6320  -21.2320   16.0180 C.ar  230  HIS230      0.1986
     72  NE2      -33.5880  -21.5540   16.7610 N.ar  230  HIS230     -0.2212
     73  N        -37.3860  -25.1900   16.7380 N.3   234  THR234     -0.1218
     74  CA       -36.3470  -25.5480   17.7100 C.3   234  THR234      0.1862
     75  C        -36.5660  -26.9650   18.2270 C.2   234  THR234      0.2287
     76  O        -37.7060  -27.4170   18.3400 O.2   234  THR234     -0.2866
     77  CB       -36.2990  -24.5790   18.9150 C.3   234  THR234      0.1770
     78  OG1      -37.5000  -24.7040   19.6820 O.3   234  THR234     -0.2211
     79  CG2      -36.1450  -23.1360   18.4590 C.3   234  THR234      0.0375
     80  N        -28.0100  -30.7750   17.7190 N.3   248  GLU248     -0.1245
     81  CA       -26.8690  -30.4830   18.5740 C.3   248  GLU248      0.1567
     82  C        -27.2630  -30.6420   20.0110 C.2   248  GLU248      0.2260
     83  O        -28.4290  -30.4660   20.3690 O.2   248  GLU248     -0.2867
     84  CB       -26.3160  -29.0810   18.3260 C.3   248  GLU248      0.0388
     85  CG       -27.2810  -27.9270   18.5040 C.3   248  GLU248      0.1160
     86  CD       -26.6530  -26.6100   18.0990 C.2   248  GLU248      0.3649
     87  OE1      -27.3470  -25.8000   17.4450 O.co2 248  GLU248     -0.2457
     88  OE2      -25.4500  -26.4000   18.4090 O.co2 248  GLU248     -0.2457
     89  N        -20.2790  -11.7280   17.7530 N.3   266  HIS266     -0.1226
     90  CA       -21.1490  -12.2600   16.6870 C.3   266  HIS266      0.1752
     91  C        -22.3770  -11.3750   16.4940 C.2   266  HIS266      0.2596
     92  O        -22.9740  -10.9210   17.4690 O.2   266  HIS266     -0.2718
     93  CB       -21.7120  -13.6380   17.0870 C.3   266  HIS266      0.0759
     94  CG       -20.7430  -14.7750   17.0220 C.ar  266  HIS266      0.0818
     95  ND1      -19.5530  -14.8030   17.7240 N.ar  266  HIS266     -0.2268
     96  CD2      -20.8380  -15.9750   16.3980 C.ar  266  HIS266      0.1154
     97  CE1      -18.9440  -15.9560   17.5070 C.ar  266  HIS266      0.1986
     98  NE2      -19.6970  -16.6810   16.6970 N.ar  266  HIS266     -0.2212
     99  N        -22.7690  -11.1730   15.2410 N.am  267  TYR267     -0.1962
    100  CA       -23.9080  -10.3320   14.8600 C.3   267  TYR267      0.1771
    101  C        -24.5630  -10.9450   13.6380 C.2   267  TYR267      0.2619
    102  O        -23.9120  -11.6720   12.8850 O.2   267  TYR267     -0.2715
    103  CB       -23.4340   -8.9150   14.5110 C.3   267  TYR267      0.0574
    104  CG       -22.7070   -8.2510   15.6490 C.ar  267  TYR267     -0.0198
    105  CD1      -21.3410   -8.4850   15.8530 C.ar  267  TYR267     -0.0009
    106  CD2      -23.3820   -7.4200   16.5460 C.ar  267  TYR267     -0.0009
    107  CE1      -20.6670   -7.9050   16.9220 C.ar  267  TYR267      0.0417
    108  CE2      -22.7130   -6.8300   17.6200 C.ar  267  TYR267      0.0417
    109  CZ       -21.3560   -7.0810   17.7940 C.ar  267  TYR267      0.1957
    110  OH       -20.6610   -6.5120   18.8290 O.3   267  TYR267     -0.2866
    111  N        -25.8440  -10.6480   13.4210 N.am  268  MET268     -0.1977
    112  CA       -26.5210  -11.1750   12.2490 C.3   268  MET268      0.1605
    113  C        -27.7430  -10.3150   11.9680 C.2   268  MET268      0.2287
    114  O        -28.4920   -9.9830   12.8950 O.2   268  MET268     -0.2864
    115  CB       -26.9240  -12.6410   12.4870 C.3   268  MET268      0.0413
    116  CG       -27.4770  -13.3390   11.2460 C.3   268  MET268      0.0598
    117  SD       -27.7260  -15.1210   11.4700 S.3   268  MET268     -0.1393
    118  CE       -29.1380  -15.1470   12.5580 C.3   268  MET268      0.0692
    119  N        -24.6050  -14.8260    9.5890 N.3   298  ALA298     -0.1245
    120  CA       -23.9060  -14.2340   10.7420 C.3   298  ALA298      0.1562
    121  C        -22.4790  -13.8120   10.3780 C.2   298  ALA298      0.2260
    122  O        -21.8490  -14.4150    9.5040 O.2   298  ALA298     -0.2867
    123  CB       -23.8810  -15.2140   11.9110 C.3   298  ALA298      0.0290
    124  N        -25.2400  -11.3640   19.1450 N.3   328  TYR328     -0.1241
    125  CA       -25.2760  -12.7250   19.7320 C.3   328  TYR328      0.1605
    126  C        -24.0740  -12.9210   20.6530 C.2   328  TYR328      0.2264
    127  O        -23.0650  -13.5000   20.2380 O.2   328  TYR328     -0.2867
    128  CB       -25.3350  -13.8060   18.6300 C.3   328  TYR328      0.0534
    129  CG       -26.6530  -13.7690   17.8870 C.ar  328  TYR328     -0.0201
    130  CD1      -27.7420  -14.5030   18.3420 C.ar  328  TYR328     -0.0009
    131  CD2      -26.8200  -12.9590   16.7590 C.ar  328  TYR328     -0.0009
    132  CE1      -28.9620  -14.4500   17.6890 C.ar  328  TYR328      0.0417
    133  CE2      -28.0420  -12.8940   16.0970 C.ar  328  TYR328      0.0417
    134  CZ       -29.1070  -13.6450   16.5700 C.ar  328  TYR328      0.1957
    135  OH       -30.3210  -13.6100   15.9280 O.3   328  TYR328     -0.2866
@<TRIPOS>BOND
     1     1     2    1
     2    55    56    1
     3    37    38    1
     4   122   121    2
     5   119   120    1
     6    56    59    1
     7    56    57    1
     8     2     3    1
     9     2     5    1
    10   121   120    1
    11     4     3    2
    12   120   123    1
    13    38    41    1
    14    38    39    1
    15     3    12   am
    16     8    10   ar
    17     8     6   ar
    18    59    61    1
    19    59    60    1
    20    10    11   ar
    21    62    60    1
    22    57    58    2
    23    57    63   am
    24   116   117    1
    25   116   115    1
    26     5     6    1
    27    41    42    1
    28   117   118    1
    29     6     7   ar
    30    39    40    2
    31    63    64    1
    32    66    65    2
    33    65    64    1
    34    12    18    1
    35    12    13    1
    36   113   112    1
    37   113   114    2
    38    11     9   ar
    39   112   115    1
    40   112   111    1
    41    18    17    1
    42    13    14    1
    43    13    16    1
    44     7     9   ar
    45    64    67    1
    46    42    43   ar
    47    42    44   ar
    48   102   101    2
    49    17    16    1
    50    48    47    2
    51    14    15    2
    52   111   101   am
    53   101   100    1
    54    47    46    1
    55    51    53   ar
    56    51    50   ar
    57    53    54   ar
    58    67    68    1
    59   103   100    1
    60   103   104    1
    61    31    32    2
    62    31    30    1
    63   100    99    1
    64    54    52   ar
    65    50    49    1
    66    50    52   ar
    67    69    68   ar
    68    69    71   ar
    69    68    70   ar
    70    35    34   ar
    71    46    49    1
    72    46    45    1
    73    99    91   am
    74   104   105   ar
    75   104   106   ar
    76    30    29    1
    77    30    33    1
    78   105   107   ar
    79   135   134    1
    80    71    72   ar
    81   133   134   ar
    82   133   131   ar
    83    70    72   ar
    84    34    33    1
    85    34    36   ar
    86    96    98   ar
    87    96    94   ar
    88    91    90    1
    89    91    92    2
    90   106   108   ar
    91   134   132   ar
    92    90    93    1
    93    90    89    1
    94    98    97   ar
    95    73    74    1
    96   131   129   ar
    97   107   109   ar
    98    94    93    1
    99    94    95   ar
   100    87    86   ar
   101    97    95   ar
   102   108   109   ar
   103   132   130   ar
   104    74    75    1
   105    74    77    1
   106    80    81    1
   107   109   110    1
   108   129   130   ar
   109   129   128    1
   110    86    88   ar
   111    86    85    1
   112    75    76    2
   113    84    85    1
   114    84    81    1
   115    79    77    1
   116    81    82    1
   117   128   125    1
   118    77    78    1
   119    28    26   ar
   120    28    27   ar
   121    26    24   ar
   122   124   125    1
   123    27    25   ar
   124   125   126    1
   125    24    25   ar
   126    24    23    1
   127    82    83    2
   128   127   126    2
   129    20    23    1
   130    20    19    1
   131    20    21    1
   132    22    21    2
