@<TRIPOS>MOLECULE
tmp/5jhwD00.pdb
 99 91 0 0 0
SMALL
GASTEIGER

@<TRIPOS>ATOM
      1  N         13.8120  -19.1440  -76.3240 N.3   178  ASN178     -0.1240
      2  CA        13.1780  -20.3910  -76.7340 C.3   178  ASN178      0.1653
      3  C         12.0830  -20.1630  -77.7620 C.2   178  ASN178      0.2266
      4  O         11.5560  -21.1150  -78.3370 O.2   178  ASN178     -0.2867
      5  CB        12.6140  -21.1260  -75.5230 C.3   178  ASN178      0.1155
      6  CG        13.6890  -21.8040  -74.7150 C.2   178  ASN178      0.2627
      7  OD1       14.6440  -22.3430  -75.2730 O.2   178  ASN178     -0.2716
      8  ND2       13.5520  -21.7740  -73.3940 N.am  178  ASN178     -0.0877
      9  N         15.7190  -18.8270  -71.9580 N.3   202  LEU202     -0.1245
     10  CA        16.9430  -18.6940  -72.7290 C.3   202  LEU202      0.1561
     11  C         17.3530  -20.0300  -73.3390 C.2   202  LEU202      0.2260
     12  O         17.5860  -21.0000  -72.6190 O.2   202  LEU202     -0.2867
     13  CB        18.0660  -18.1470  -71.8450 C.3   202  LEU202      0.0270
     14  CG        19.4680  -18.0570  -72.4490 C.3   202  LEU202      0.0019
     15  CD1       19.5120  -16.9910  -73.5230 C.3   202  LEU202      0.0001
     16  CD2       20.5020  -17.7670  -71.3660 C.3   202  LEU202      0.0001
     17  N         20.0510  -29.7020  -75.8380 N.3   226  LEU226     -0.1245
     18  CA        18.8560  -30.5300  -75.7630 C.3   226  LEU226      0.1561
     19  C         17.9050  -30.1270  -76.8690 C.2   226  LEU226      0.2260
     20  O         17.6510  -28.9390  -77.0700 O.2   226  LEU226     -0.2867
     21  CB        18.1690  -30.3970  -74.4040 C.3   226  LEU226      0.0270
     22  CG        19.0000  -30.7070  -73.1640 C.3   226  LEU226      0.0019
     23  CD1       18.1250  -30.5910  -71.9240 C.3   226  LEU226      0.0001
     24  CD2       19.6260  -32.0850  -73.2660 C.3   226  LEU226      0.0001
     25  N         18.2000  -26.0490  -77.3540 N.3   235  ARG235     -0.1245
     26  CA        18.5100  -25.1630  -76.2450 C.3   235  ARG235      0.1563
     27  C         19.7230  -25.7130  -75.4980 C.2   235  ARG235      0.2260
     28  O         19.9750  -26.9180  -75.5180 O.2   235  ARG235     -0.2867
     29  CB        17.3040  -24.9970  -75.3110 C.3   235  ARG235      0.0307
     30  CG        17.0170  -26.1760  -74.3950 C.3   235  ARG235      0.0489
     31  CD        15.8230  -25.8710  -73.4910 C.3   235  ARG235      0.2205
     32  NE        14.5910  -25.7160  -74.2620 N.pl3 235  ARG235     -0.0865
     33  CZ        13.4330  -25.2910  -73.7630 C.cat 235  ARG235      0.5346
     34  NH1       13.3320  -24.9700  -72.4810 N.pl3 235  ARG235      0.1354
     35  NH2       12.3700  -25.1840  -74.5510 N.pl3 235  ARG235      0.1354
     36  N         21.3260  -26.4700  -72.0080 N.3   237  SER237     -0.1217
     37  CA        20.9630  -26.6520  -70.6080 C.3   237  SER237      0.1889
     38  C         22.1480  -27.1400  -69.7850 C.2   237  SER237      0.2288
     39  O         23.0180  -27.8410  -70.2950 O.2   237  SER237     -0.2866
     40  CB        19.7990  -27.6320  -70.4790 C.3   237  SER237      0.2089
     41  OG        18.6920  -27.1970  -71.2470 O.3   237  SER237     -0.2183
     42  N         10.7060  -35.5140  -61.2900 N.3   261  GLU261     -0.1245
     43  CA        11.0360  -34.5500  -62.3330 C.3   261  GLU261      0.1567
     44  C         12.5440  -34.4680  -62.5450 C.2   261  GLU261      0.2260
     45  O         13.0190  -34.2630  -63.6640 O.2   261  GLU261     -0.2867
     46  CB        10.4900  -33.1650  -61.9850 C.3   261  GLU261      0.0388
     47  CG        10.7800  -32.1140  -63.0470 C.3   261  GLU261      0.1160
     48  CD        10.2750  -30.7370  -62.6690 C.2   261  GLU261      0.3649
     49  OE1       10.6840  -30.2260  -61.6040 O.co2 261  GLU261     -0.2457
     50  OE2        9.4810  -30.1590  -63.4410 O.co2 261  GLU261     -0.2457
     51  N         13.6990  -37.2140  -64.6220 N.3   264  MET264     -0.1230
     52  CA        13.3170  -36.8950  -65.9920 C.3   264  MET264      0.1702
     53  C         14.3760  -36.0160  -66.6440 C.2   264  MET264      0.2592
     54  O         14.7660  -36.2410  -67.7920 O.2   264  MET264     -0.2718
     55  CB        11.9590  -36.1950  -66.0300 C.3   264  MET264      0.0401
     56  CG        11.5210  -35.7810  -67.4260 C.3   264  MET264      0.0596
     57  SD        10.2700  -34.4860  -67.3930 S.3   264  MET264     -0.1393
     58  CE        11.2170  -33.1280  -66.7060 C.3   264  MET264      0.0692
     59  N         14.8160  -35.0000  -65.9080 N.am  265  LYS265     -0.1980
     60  CA        15.8550  -34.0950  -66.3800 C.3   265  LYS265      0.1596
     61  C         17.1440  -34.8380  -66.7250 C.2   265  LYS265      0.2287
     62  O         17.7750  -34.5430  -67.7380 O.2   265  LYS265     -0.2864
     63  CB        16.1340  -33.0110  -65.3380 C.3   265  LYS265      0.0298
     64  CG        14.9760  -32.0410  -65.1230 C.3   265  LYS265      0.0038
     65  CD        15.3270  -30.9710  -64.0950 C.3   265  LYS265      0.0206
     66  CE        14.1510  -30.0390  -63.8360 C.3   265  LYS265      0.1093
     67  NZ        14.4410  -29.0460  -62.7610 N.3   265  LYS265     -0.1314
     68  N         14.9580  -32.8150  -75.1380 N.3   274  LEU274     -0.1231
     69  CA        14.2620  -31.9850  -74.1640 C.3   274  LEU274      0.1693
     70  C         13.0240  -32.7000  -73.6430 C.2   274  LEU274      0.2592
     71  O         12.1880  -33.1500  -74.4200 O.2   274  LEU274     -0.2718
     72  CB        13.8710  -30.6370  -74.7710 C.3   274  LEU274      0.0284
     73  CG        13.1980  -29.6920  -73.7750 C.3   274  LEU274      0.0019
     74  CD1       14.2170  -29.1980  -72.7590 C.3   274  LEU274      0.0001
     75  CD2       12.5480  -28.5300  -74.4880 C.3   274  LEU274      0.0001
     76  N         12.9190  -32.8110  -72.3260 N.am  275  LEU275     -0.1966
     77  CA        11.7670  -33.4460  -71.7070 C.3   275  LEU275      0.1728
     78  C         11.1240  -32.4890  -70.7300 C.2   275  LEU275      0.2616
     79  O         11.8100  -31.8300  -69.9520 O.2   275  LEU275     -0.2715
     80  CB        12.1690  -34.7340  -70.9840 C.3   275  LEU275      0.0311
     81  CG        12.8210  -35.8470  -71.8080 C.3   275  LEU275      0.0022
     82  CD1       13.1690  -37.0290  -70.9150 C.3   275  LEU275      0.0001
     83  CD2       11.9220  -36.2780  -72.9530 C.3   275  LEU275      0.0001
     84  N          9.8010  -32.4040  -70.7740 N.am  276  GLU276     -0.1963
     85  CA         9.0850  -31.5710  -69.8250 C.3   276  GLU276      0.1733
     86  C          7.9240  -32.3450  -69.2230 C.2   276  GLU276      0.2616
     87  O          7.4040  -33.2800  -69.8340 O.2   276  GLU276     -0.2715
     88  CB         8.5980  -30.2860  -70.4970 C.3   276  GLU276      0.0429
     89  CG         9.7360  -29.4500  -71.0670 C.3   276  GLU276      0.1163
     90  CD         9.5530  -27.9670  -70.8450 C.2   276  GLU276      0.3649
     91  OE1       10.5380  -27.2170  -71.0210 O.co2 276  GLU276     -0.2457
     92  OE2        8.4320  -27.5490  -70.4910 O.co2 276  GLU276     -0.2457
     93  N          7.5290  -31.9580  -68.0170 N.am  277  VAL277     -0.1977
     94  CA         6.4420  -32.6320  -67.3230 C.3   277  VAL277      0.1596
     95  C          5.1180  -32.4190  -68.0480 C.2   277  VAL277      0.2287
     96  O          4.6940  -31.2840  -68.2740 O.2   277  VAL277     -0.2864
     97  CB         6.3050  -32.1560  -65.8670 C.3   277  VAL277      0.0276
     98  CG1        5.2370  -32.9740  -65.1450 C.3   277  VAL277      0.0022
     99  CG2        7.6420  -32.2570  -65.1440 C.3   277  VAL277      0.0022
@<TRIPOS>BOND
     1     4     3    2
     2     3     2    1
     3    25    26    1
     4    20    19    2
     5    19    18    1
     6     2     1    1
     7     2     5    1
     8    26    27    1
     9    26    29    1
    10    17    18    1
    11    18    21    1
    12     5     6    1
    13    28    27    2
    14    29    30    1
    15     7     6    2
    16    68    69    1
    17    72    69    1
    18    72    73    1
    19     6     8   am
    20    35    33    1
    21    75    73    1
    22    71    70    2
    23    21    22    1
    24    30    31    1
    25    32    33    2
    26    32    31    1
    27    69    70    1
    28    73    74    1
    29    33    34    1
    30    70    76   am
    31    15    14    1
    32    11    10    1
    33    11    12    2
    34    24    22    1
    35    22    23    1
    36    83    81    1
    37    10     9    1
    38    10    13    1
    39    14    13    1
    40    14    16    1
    41    76    77    1
    42    36    37    1
    43    81    80    1
    44    81    82    1
    45    77    80    1
    46    77    78    1
    47    41    40    1
    48    89    90    1
    49    89    88    1
    50    91    90   ar
    51    90    92   ar
    52    84    78   am
    53    84    85    1
    54    78    79    2
    55    37    40    1
    56    37    38    1
    57    88    85    1
    58    39    38    2
    59    87    86    2
    60    85    86    1
    61    86    93   am
    62    96    95    2
    63    95    94    1
    64    93    94    1
    65    54    53    2
    66    62    61    2
    67    56    57    1
    68    56    55    1
    69    57    58    1
    70    94    97    1
    71    61    60    1
    72    53    52    1
    73    53    59   am
    74    60    59    1
    75    60    63    1
    76    55    52    1
    77    52    51    1
    78    97    98    1
    79    97    99    1
    80    63    64    1
    81    64    65    1
    82    65    66    1
    83    66    67    1
    84    45    44    2
    85    50    48   ar
    86    47    48    1
    87    47    46    1
    88    48    49   ar
    89    44    43    1
    90    43    46    1
    91    43    42    1
