@<TRIPOS>MOLECULE
tmp/5jhxA02.pdb
 91 87 0 0 0
SMALL
GASTEIGER

@<TRIPOS>ATOM
      1  N          5.9450   66.2310  -48.6190 N.3   120  PRO120     -0.2102
      2  CA         4.9630   67.2970  -48.5410 C.3   120  PRO120      0.1504
      3  C          5.4380   68.6670  -48.8940 C.2   120  PRO120      0.2575
      4  O          4.7440   69.3830  -49.6060 O.2   120  PRO120     -0.2718
      5  CB         4.4770   67.1740  -47.0870 C.3   120  PRO120      0.0282
      6  CG         4.6610   65.7900  -46.7640 C.3   120  PRO120      0.0208
      7  CD         5.9200   65.3670  -47.4330 C.3   120  PRO120      0.0893
      8  N          6.6660   69.0120  -48.5220 N.am  121  ASP121     -0.1974
      9  CA         7.1750   70.3380  -48.8610 C.3   121  ASP121      0.1708
     10  C          7.4250   70.5340  -50.3270 C.2   121  ASP121      0.2293
     11  O          7.6330   71.6680  -50.7900 O.2   121  ASP121     -0.2864
     12  CB         8.4230   70.7240  -48.0600 C.3   121  ASP121      0.1436
     13  CG         8.3610   72.0110  -47.3370 C.2   121  ASP121      0.3671
     14  OD1        7.3280   72.6760  -47.2440 O.co2 121  ASP121     -0.2456
     15  OD2        9.3970   72.4200  -46.7530 O.co2 121  ASP121     -0.2456
     16  N          5.2090   69.5540  -52.6280 N.3   123  GLN123     -0.1245
     17  CA         3.9080   69.4990  -53.2670 C.3   123  GLN123      0.1566
     18  C          3.8660   70.4710  -54.4230 C.2   123  GLN123      0.2260
     19  O          4.2590   71.6500  -54.2930 O.2   123  GLN123     -0.2867
     20  CB         2.7900   69.7450  -52.2450 C.3   123  GLN123      0.0367
     21  CG         1.3980   69.6710  -52.8400 C.3   123  GLN123      0.0905
     22  CD         0.3120   69.3980  -51.8130 C.2   123  GLN123      0.2608
     23  OE1        0.5870   68.7650  -50.7790 O.2   123  GLN123     -0.2717
     24  NE2       -0.9120   69.8310  -52.0690 N.am  123  GLN123     -0.0878
     25  N          5.7320   65.3180  -41.7380 N.3   190  VAL190     -0.1231
     26  CA         5.0860   66.5280  -41.3800 C.3   190  VAL190      0.1678
     27  C          3.5720   66.3940  -41.7450 C.2   190  VAL190      0.2434
     28  O          3.2640   65.9590  -42.8930 O.2   190  VAL190     -0.2733
     29  CB         5.7420   67.7520  -42.0900 C.3   190  VAL190      0.0265
     30  CG1        5.6760   67.7210  -43.6100 C.3   190  VAL190      0.0020
     31  CG2        5.2950   69.0670  -41.5220 C.3   190  VAL190      0.0020
     32  N          2.6780   66.8540  -40.8880 N.am  191  PRO191     -0.2729
     33  CA         2.8120   67.5180  -39.6280 C.3   191  PRO191      0.1401
     34  C          3.3790   66.7800  -38.4640 C.2   191  PRO191      0.2269
     35  O          3.6740   67.3570  -37.4220 O.2   191  PRO191     -0.2865
     36  CB         1.3810   68.0400  -39.3480 C.3   191  PRO191      0.0296
     37  CG         0.5420   66.8770  -39.9660 C.3   191  PRO191      0.0237
     38  CD         1.2190   66.6710  -41.2490 C.3   191  PRO191      0.0939
     39  N         10.0670   68.1460  -44.6860 N.3   222  LEU222     -0.1245
     40  CA        10.2810   69.5780  -44.8690 C.3   222  LEU222      0.1561
     41  C         11.6890   69.9060  -45.3120 C.2   222  LEU222      0.2260
     42  O         12.6200   69.1210  -45.1450 O.2   222  LEU222     -0.2867
     43  CB        10.0730   70.3140  -43.5470 C.3   222  LEU222      0.0270
     44  CG         8.6830   70.3840  -42.9650 C.3   222  LEU222      0.0019
     45  CD1        8.6370   71.2320  -41.6790 C.3   222  LEU222      0.0001
     46  CD2        7.7330   70.9950  -43.9540 C.3   222  LEU222      0.0001
     47  N          8.8580   74.4860  -40.2040 N.3   226  ASN226     -0.1226
     48  CA         7.3850   74.4640  -40.4030 C.3   226  ASN226      0.1770
     49  C          6.9170   75.9060  -40.5790 C.2   226  ASN226      0.2439
     50  O          7.0760   76.7190  -39.6740 O.2   226  ASN226     -0.2733
     51  CB         6.8030   73.8110  -39.2020 C.3   226  ASN226      0.1168
     52  CG         5.3990   73.5160  -39.3380 C.2   226  ASN226      0.2627
     53  OD1        4.6110   74.2340  -39.9700 O.2   226  ASN226     -0.2716
     54  ND2        4.9630   72.4790  -38.6910 N.am  226  ASN226     -0.0877
     55  N          6.2740   76.2260  -41.6870 N.am  227  PRO227     -0.2718
     56  CA         5.8200   77.6120  -41.9130 C.3   227  PRO227      0.1535
     57  C          4.7270   78.0720  -41.0290 C.2   227  PRO227      0.2598
     58  O          4.4140   79.2540  -40.9190 O.2   227  PRO227     -0.2715
     59  CB         5.3580   77.5520  -43.3710 C.3   227  PRO227      0.0310
     60  CG         4.9300   76.1350  -43.5720 C.3   227  PRO227      0.0237
     61  CD         5.9430   75.3260  -42.8060 C.3   227  PRO227      0.0939
     62  N          4.0690   77.1570  -40.3180 N.am  228  GLU228     -0.1978
     63  CA         3.0620   77.4940  -39.3030 C.3   228  GLU228      0.1602
     64  C          3.5730   77.5300  -37.8900 C.2   228  GLU228      0.2287
     65  O          2.8010   77.5180  -36.9120 O.2   228  GLU228     -0.2864
     66  CB         1.8870   76.4760  -39.2830 C.3   228  GLU228      0.0415
     67  CG         0.9210   76.5440  -40.4130 C.3   228  GLU228      0.1163
     68  CD        -0.3140   75.6670  -40.0990 C.2   228  GLU228      0.3649
     69  OE1       -0.1340   74.5600  -40.6860 O.co2 228  GLU228     -0.2457
     70  OE2       -1.3310   76.0770  -39.3590 O.co2 228  GLU228     -0.2457
     71  N         -1.2700   73.8860  -52.1710 N.3   309  THR309     -0.1203
     72  CA         0.0970   73.3900  -52.0450 C.3   309  THR309      0.1994
     73  C          0.4430   73.2050  -50.6080 C.2   309  THR309      0.2618
     74  O          0.5080   72.0740  -50.1440 O.2   309  THR309     -0.2717
     75  CB         1.0800   74.3020  -52.7560 C.3   309  THR309      0.1784
     76  OG1        0.6950   74.3510  -54.1550 O.3   309  THR309     -0.2211
     77  CG2        2.4760   73.7890  -52.6080 C.3   309  THR309      0.0376
     78  N          0.5970   74.2570  -49.8280 N.am  310  SER310     -0.1951
     79  CA         0.9400   74.1670  -48.3990 C.3   310  SER310      0.1924
     80  C         -0.2370   74.2980  -47.4710 C.2   310  SER310      0.2314
     81  O         -0.0630   74.0580  -46.2960 O.2   310  SER310     -0.2863
     82  CB         1.9550   75.2770  -48.0810 C.3   310  SER310      0.2116
     83  OG         1.3510   76.5830  -48.2650 O.3   310  SER310     -0.2180
     84  N         -1.4190   77.3410  -46.8830 N.3   312  LEU312     -0.1245
     85  CA        -1.3570   78.7670  -46.5540 C.3   312  LEU312      0.1561
     86  C         -1.7650   79.5820  -47.8020 C.2   312  LEU312      0.2260
     87  O         -1.4840   79.1370  -48.8970 O.2   312  LEU312     -0.2867
     88  CB         0.0570   79.1160  -46.0840 C.3   312  LEU312      0.0270
     89  CG         0.3210   78.3260  -44.7950 C.3   312  LEU312      0.0019
     90  CD1        1.6570   77.7150  -44.8150 C.3   312  LEU312      0.0001
     91  CD2       -0.0770   78.9460  -43.5230 C.3   312  LEU312      0.0001
@<TRIPOS>BOND
     1    18    19    2
     2    18    17    1
     3    76    75    1
     4    17    16    1
     5    17    20    1
     6    21    20    1
     7    21    22    1
     8    75    77    1
     9    75    72    1
    10    71    72    1
    11    24    22   am
    12    72    73    1
    13    22    23    2
    14    11    10    2
    15    73    74    2
    16    73    78   am
    17    10     9    1
    18    78    79    1
    19     4     3    2
    20    87    86    2
    21     3     2    1
    22     3     8   am
    23     9     8    1
    24     9    12    1
    25     1     2    1
    26     1     7    1
    27     2     5    1
    28    79    82    1
    29    79    80    1
    30    83    82    1
    31    12    13    1
    32    86    85    1
    33    80    81    2
    34     7     6    1
    35    13    14   ar
    36    13    15   ar
    37     5     6    1
    38    84    85    1
    39    85    88    1
    40    88    89    1
    41    41    42    2
    42    41    40    1
    43    40    39    1
    44    40    43    1
    45    90    89    1
    46    89    91    1
    47    46    44    1
    48    30    29    1
    49    60    59    1
    50    60    61    1
    51    43    44    1
    52    59    56    1
    53    44    45    1
    54    28    27    2
    55    61    55    1
    56    29    31    1
    57    29    26    1
    58    56    55    1
    59    56    57    1
    60    27    26    1
    61    27    32   am
    62    25    26    1
    63    55    49   am
    64    38    32    1
    65    38    37    1
    66    57    58    2
    67    57    62   am
    68    32    33    1
    69    69    68   ar
    70    49    48    1
    71    49    50    2
    72    67    68    1
    73    67    66    1
    74    48    47    1
    75    48    51    1
    76    62    63    1
    77    68    70   ar
    78    53    52    2
    79    37    36    1
    80    33    36    1
    81    33    34    1
    82    52    51    1
    83    52    54   am
    84    63    66    1
    85    63    64    1
    86    34    35    2
    87    64    65    2
