@<TRIPOS>MOLECULE
tmp/5ji3E00.pdb
 159 152 0 0 0
SMALL
GASTEIGER

@<TRIPOS>ATOM
      1  N         23.5150   59.9390   28.6090 N.3    16  HIS16      -0.1226
      2  CA        23.6940   61.3030   29.0990 C.3    16  HIS16       0.1752
      3  C         23.4220   61.4120   30.5930 C.2    16  HIS16       0.2596
      4  O         24.3080   61.8280   31.3450 O.2    16  HIS16      -0.2718
      5  CB        22.7870   62.2630   28.3200 C.3    16  HIS16       0.0759
      6  CG        23.1820   62.4390   26.8880 C.ar   16  HIS16       0.0818
      7  ND1       24.1690   63.3160   26.4900 N.ar   16  HIS16      -0.2268
      8  CD2       22.7220   61.8520   25.7570 C.ar   16  HIS16       0.1154
      9  CE1       24.3000   63.2620   25.1770 C.ar   16  HIS16       0.1986
     10  NE2       23.4330   62.3820   24.7080 N.ar   16  HIS16      -0.2212
     11  N         22.2210   61.0850   31.0430 N.am   17  ILE17      -0.1966
     12  CA        21.9070   61.1220   32.4650 C.3    17  ILE17       0.1727
     13  C         22.5070   59.8990   33.1480 C.2    17  ILE17       0.2616
     14  O         22.6330   58.8240   32.5520 O.2    17  ILE17      -0.2715
     15  CB        20.3800   61.2090   32.6730 C.3    17  ILE17       0.0290
     16  CG1       19.8410   62.5350   32.1230 C.3    17  ILE17       0.0022
     17  CG2       20.0160   61.0900   34.1450 C.3    17  ILE17       0.0023
     18  CD1       19.4250   62.4880   30.6630 C.3    17  ILE17       0.0001
     19  N         22.8880   60.0660   34.4130 N.am   18  ILE18      -0.1977
     20  CA        23.3810   58.9780   35.2530 C.3    18  ILE18       0.1596
     21  C         22.3260   58.6750   36.3090 C.2    18  ILE18       0.2287
     22  O         21.8830   59.5780   37.0280 O.2    18  ILE18      -0.2864
     23  CB        24.7250   59.3380   35.9110 C.3    18  ILE18       0.0276
     24  CG1       25.7780   59.6770   34.8500 C.3    18  ILE18       0.0022
     25  CG2       25.2110   58.2010   36.8080 C.3    18  ILE18       0.0022
     26  CD1       26.1040   58.5350   33.9000 C.3    18  ILE18       0.0001
     27  N         18.8120   57.7970   38.2150 N.3    20  GLN20      -0.1245
     28  CA        17.4550   58.3350   38.1030 C.3    20  GLN20       0.1566
     29  C         16.6220   57.5050   37.1330 C.2    20  GLN20       0.2260
     30  O         15.8310   58.0360   36.3510 O.2    20  GLN20      -0.2867
     31  CB        17.4710   59.8010   37.6670 C.3    20  GLN20       0.0367
     32  CG        18.3540   60.7040   38.5070 C.3    20  GLN20       0.0905
     33  CD        17.8070   60.9310   39.8980 C.2    20  GLN20       0.2608
     34  OE1       16.9150   60.2170   40.3530 O.2    20  GLN20      -0.2717
     35  NE2       18.3380   61.9340   40.5820 N.am   20  GLN20      -0.0878
     36  N         17.2150   70.1490   43.7190 N.3    59  THR59      -0.1203
     37  CA        17.6750   70.7920   42.4950 C.3    59  THR59       0.1994
     38  C         18.9510   70.1410   41.9730 C.2    59  THR59       0.2618
     39  O         19.7830   69.6450   42.7360 O.2    59  THR59      -0.2717
     40  CB        17.9270   72.2810   42.7360 C.3    59  THR59       0.1784
     41  OG1       18.0460   72.9610   41.4800 O.3    59  THR59      -0.2211
     42  CG2       19.2060   72.5010   43.5510 C.3    59  THR59       0.0376
     43  N         19.0980   70.1530   40.6480 N.am   60  GLY60      -0.1942
     44  CA        20.3350   69.7540   40.0110 C.3    60  GLY60       0.2014
     45  C         20.5530   68.2670   39.8840 C.2    60  GLY60       0.2639
     46  O         21.6770   67.8500   39.5840 O.2    60  GLY60      -0.2714
     47  N         19.5260   67.4500   40.1060 N.am   61  VAL61      -0.1963
     48  CA        19.6770   66.0000   40.0390 C.3    61  VAL61       0.1727
     49  C         19.3150   65.4890   38.6500 C.2    61  VAL61       0.2617
     50  O         19.2230   64.2760   38.4340 O.2    61  VAL61      -0.2715
     51  CB        18.8320   65.3010   41.1180 C.3    61  VAL61       0.0290
     52  CG1       19.3140   65.7080   42.4990 C.3    61  VAL61       0.0023
     53  CG2       17.3500   65.6080   40.9310 C.3    61  VAL61       0.0023
     54  N         19.1020   66.3990   37.7030 N.am   62  GLY62      -0.1940
     55  CA        18.8670   66.0180   36.3270 C.3    62  GLY62       0.2014
     56  C         17.4220   65.9740   35.8760 C.2    62  GLY62       0.2639
     57  O         17.1500   65.4250   34.8020 O.2    62  GLY62      -0.2714
     58  N         16.4870   66.5240   36.6530 N.am   63  LYS63      -0.1963
     59  CA        15.1020   66.5770   36.1960 C.3    63  LYS63       0.1728
     60  C         15.0160   67.2350   34.8280 C.2    63  LYS63       0.2617
     61  O         14.3970   66.7010   33.9010 O.2    63  LYS63      -0.2715
     62  CB        14.2400   67.3460   37.2000 C.3    63  LYS63       0.0311
     63  CG        14.1570   66.7200   38.5780 C.3    63  LYS63       0.0038
     64  CD        13.2380   67.4980   39.5100 C.3    63  LYS63       0.0206
     65  CE        13.7590   68.8960   39.8030 C.3    63  LYS63       0.1093
     66  NZ        15.1100   68.8720   40.4200 N.3    63  LYS63      -0.1314
     67  N         15.6540   68.3960   34.6800 N.am   64  THR64      -0.1937
     68  CA        15.5810   69.1320   33.4240 C.3    64  THR64       0.2028
     69  C         16.3220   68.4080   32.3090 C.2    64  THR64       0.2642
     70  O         15.8810   68.4220   31.1540 O.2    64  THR64      -0.2714
     71  CB        16.1520   70.5370   33.6140 C.3    64  THR64       0.1808
     72  OG1       15.4640   71.1920   34.6890 O.3    64  THR64      -0.2208
     73  CG2       15.9990   71.3590   32.3400 C.3    64  THR64       0.0379
     74  N         17.4490   67.7690   32.6280 N.am   65  GLU65      -0.1976
     75  CA        18.2330   67.1190   31.5860 C.3    65  GLU65       0.1602
     76  C         17.4650   65.9660   30.9610 C.2    65  GLU65       0.2287
     77  O         17.5600   65.7290   29.7510 O.2    65  GLU65      -0.2864
     78  CB        19.5570   66.6230   32.1570 C.3    65  GLU65       0.0415
     79  CG        20.6270   67.6810   32.1900 C.3    65  GLU65       0.1163
     80  CD        21.1450   68.0290   30.8080 C.2    65  GLU65       0.3649
     81  OE1       21.3140   67.1040   29.9850 O.co2  65  GLU65      -0.2457
     82  OE2       21.3750   69.2270   30.5400 O.co2  65  GLU65      -0.2457
     83  N         11.5790   75.4160   28.4850 N.3    80  LYS80      -0.1245
     84  CA        11.5660   75.4080   29.9410 C.3    80  LYS80       0.1561
     85  C         11.0500   76.7520   30.4290 C.2    80  LYS80       0.2260
     86  O         11.5620   77.8020   30.0230 O.2    80  LYS80      -0.2867
     87  CB        12.9620   75.1370   30.5110 C.3    80  LYS80       0.0271
     88  CG        13.0170   75.1380   32.0370 C.3    80  LYS80       0.0035
     89  CD        14.4200   74.8570   32.5610 C.3    80  LYS80       0.0206
     90  CE        14.4460   74.8120   34.0870 C.3    80  LYS80       0.1093
     91  NZ        15.8100   74.5960   34.6430 N.3    80  LYS80      -0.1314
     92  N          8.5030   72.0290   29.8260 N.3   190  PHE190     -0.1241
     93  CA         8.9930   71.7400   31.1670 C.3   190  PHE190      0.1605
     94  C          8.7160   72.9490   32.0490 C.2   190  PHE190      0.2264
     95  O          9.2070   74.0490   31.7730 O.2   190  PHE190     -0.2867
     96  CB        10.4840   71.4120   31.1470 C.3   190  PHE190      0.0534
     97  CG        11.0140   70.9220   32.4650 C.ar  190  PHE190     -0.0203
     98  CD1       11.4600   71.8160   33.4220 C.ar  190  PHE190     -0.0042
     99  CD2       11.0710   69.5670   32.7430 C.ar  190  PHE190     -0.0042
    100  CE1       11.9500   71.3680   34.6320 C.ar  190  PHE190     -0.0003
    101  CE2       11.5600   69.1150   33.9520 C.ar  190  PHE190     -0.0003
    102  CZ        12.0010   70.0160   34.8960 C.ar  190  PHE190     -0.0000
    103  N          9.4280   74.3630   35.4490 N.3   192  ASP192     -0.1239
    104  CA        10.2950   74.2130   36.6060 C.3   192  ASP192      0.1674
    105  C          9.6480   74.8050   37.8510 C.2   192  ASP192      0.2266
    106  O          8.8280   75.7240   37.7770 O.2   192  ASP192     -0.2867
    107  CB        11.6460   74.8820   36.3560 C.3   192  ASP192      0.1410
    108  CG        12.6590   74.5660   37.4400 C.2   192  ASP192      0.3668
    109  OD1       12.5050   73.5270   38.1140 O.co2 192  ASP192     -0.2456
    110  OD2       13.6120   75.3540   37.6160 O.co2 192  ASP192     -0.2456
    111  N         21.8330   62.7900   44.1810 N.3   267  LEU267     -0.1245
    112  CA        23.0730   62.2290   43.6660 C.3   267  LEU267      0.1561
    113  C         24.0900   62.0350   44.7870 C.2   267  LEU267      0.2260
    114  O         24.1700   62.8250   45.7320 O.2   267  LEU267     -0.2867
    115  CB        23.6560   63.1320   42.5800 C.3   267  LEU267      0.0270
    116  CG        22.7480   63.3780   41.3720 C.3   267  LEU267      0.0019
    117  CD1       23.3220   64.4590   40.4720 C.3   267  LEU267      0.0001
    118  CD2       22.5310   62.0940   40.5880 C.3   267  LEU267      0.0001
    119  N         29.1580   61.0550   36.4050 N.3   275  ILE275     -0.1245
    120  CA        28.7360   62.1880   35.5900 C.3   275  ILE275      0.1561
    121  C         29.9370   62.8540   34.9420 C.2   275  ILE275      0.2260
    122  O         29.8310   63.4230   33.8490 O.2   275  ILE275     -0.2867
    123  CB        27.9310   63.1890   36.4470 C.3   275  ILE275      0.0252
    124  CG1       26.6050   62.5630   36.8790 C.3   275  ILE275      0.0019
    125  CG2       27.6720   64.4840   35.6770 C.3   275  ILE275      0.0019
    126  CD1       25.8500   63.3730   37.9090 C.3   275  ILE275      0.0001
    127  N         28.8950   59.9590   30.8470 N.3   279  PRO279     -0.2116
    128  CA        27.9570   60.5150   29.8690 C.3   279  PRO279      0.1372
    129  C         28.6630   60.9160   28.5840 C.2   279  PRO279      0.2244
    130  O         29.8060   61.3840   28.6000 O.2   279  PRO279     -0.2868
    131  CB        27.3730   61.7330   30.5870 C.3   279  PRO279      0.0268
    132  CG        27.5340   61.4360   32.0240 C.3   279  PRO279      0.0207
    133  CD        28.7960   60.6470   32.1450 C.3   279  PRO279      0.0892
    134  N         24.5550   68.5100   41.0270 N.3   324  ALA324     -0.1231
    135  CA        25.6600   68.2540   40.1110 C.3   324  ALA324      0.1694
    136  C         26.1940   69.5250   39.4700 C.2   324  ALA324      0.2591
    137  O         27.2770   69.4910   38.8750 O.2   324  ALA324     -0.2718
    138  CB        25.2250   67.2730   39.0230 C.3   324  ALA324      0.0304
    139  N         25.4610   70.6350   39.5610 N.am  325  ARG325     -0.1980
    140  CA        25.9690   71.8980   39.0430 C.3   325  ARG325      0.1597
    141  C         27.2900   72.2730   39.6980 C.2   325  ARG325      0.2287
    142  O         28.1020   72.9840   39.0950 O.2   325  ARG325     -0.2864
    143  CB        24.9410   73.0070   39.2730 C.3   325  ARG325      0.0334
    144  CG        23.7420   72.9560   38.3460 C.3   325  ARG325      0.0492
    145  CD        22.7660   74.0750   38.6710 C.3   325  ARG325      0.2205
    146  NE        21.6290   73.6030   39.4580 N.pl3 325  ARG325     -0.0865
    147  CZ        20.4390   73.2780   38.9580 C.cat 325  ARG325      0.5346
    148  NH1       20.2020   73.3720   37.6560 N.pl3 325  ARG325      0.1354
    149  NH2       19.4760   72.8590   39.7680 N.pl3 325  ARG325      0.1354
    150  N         30.6080   71.7160   37.7490 N.3   328  HIS328     -0.1241
    151  CA        31.0700   72.6520   36.7310 C.3   328  HIS328      0.1621
    152  C         31.9600   73.7280   37.3370 C.2   328  HIS328      0.2264
    153  O         33.0080   74.0650   36.7750 O.2   328  HIS328     -0.2867
    154  CB        29.8720   73.2910   36.0280 C.3   328  HIS328      0.0745
    155  CG        28.9110   72.3000   35.4470 C.ar  328  HIS328      0.0817
    156  ND1       29.3000   71.0540   35.0060 N.ar  328  HIS328     -0.2268
    157  CD2       27.5750   72.3730   35.2380 C.ar  328  HIS328      0.1154
    158  CE1       28.2460   70.4030   34.5480 C.ar  328  HIS328      0.1986
    159  NE2       27.1870   71.1810   34.6770 N.ar  328  HIS328     -0.2212
@<TRIPOS>BOND
     1    10     9   ar
     2    10     8   ar
     3     9     7   ar
     4     8     6   ar
     5     7     6   ar
     6     6     5    1
     7     5     2    1
     8    83    84    1
     9   129   130    2
    10   129   128    1
    11     1     2    1
    12     2     3    1
    13    77    76    2
    14    92    93    1
    15   128   131    1
    16   128   127    1
    17    84    85    1
    18    84    87    1
    19    81    80   ar
    20    86    85    2
    21    87    88    1
    22    82    80   ar
    23   131   132    1
    24     3    11   am
    25     3     4    2
    26    18    16    1
    27    80    79    1
    28   127   133    1
    29    76    75    1
    30    11    12    1
    31    96    93    1
    32    96    97    1
    33    70    69    2
    34    93    94    1
    35    75    78    1
    36    75    74    1
    37    95    94    2
    38   132   133    1
    39    88    89    1
    40    16    15    1
    41    78    79    1
    42    69    74   am
    43    69    68    1
    44    73    71    1
    45    97    99   ar
    46    97    98   ar
    47    12    15    1
    48    12    13    1
    49    14    13    2
    50    89    90    1
    51    15    17    1
    52    99   101   ar
    53    13    19   am
    54    98   100   ar
    55    68    71    1
    56    68    67    1
    57    71    72    1
    58   122   121    2
    59    26    24    1
    60    61    60    2
    61   101   102   ar
    62    90    91    1
    63    19    20    1
    64   158   159   ar
    65   158   156   ar
    66   100   102   ar
    67   159   157   ar
    68    67    60   am
    69    57    56    2
    70    60    59    1
    71    24    23    1
    72   121   120    1
    73   156   155   ar
    74   157   155   ar
    75    20    23    1
    76    20    21    1
    77   155   154    1
    78   103   104    1
    79   120   119    1
    80   120   123    1
    81   125   123    1
    82    56    55    1
    83    56    58   am
    84    23    25    1
    85   154   151    1
    86    59    58    1
    87    59    62    1
    88    21    22    2
    89    55    54    1
    90    30    29    2
    91   107   104    1
    92   107   108    1
    93   123   124    1
    94   104   105    1
    95   151   152    1
    96   151   150    1
    97   153   152    2
    98   124   126    1
    99    29    28    1
   100    62    63    1
   101   108   110   ar
   102   108   109   ar
   103   148   147    1
   104    31    28    1
   105    31    32    1
   106    54    49   am
   107   106   105    2
   108    28    27    1
   109   144   145    1
   110   144   143    1
   111    50    49    2
   112    32    33    1
   113    63    64    1
   114    49    48    1
   115   145   146    1
   116   137   136    2
   117   147   146    2
   118   147   149    1
   119   138   135    1
   120   140   143    1
   121   140   139    1
   122   140   141    1
   123   142   141    2
   124   136   139   am
   125   136   135    1
   126    64    65    1
   127    46    45    2
   128    65    66    1
   129    45    44    1
   130    45    47   am
   131    33    34    2
   132    33    35   am
   133    44    43    1
   134    48    47    1
   135    48    51    1
   136   135   134    1
   137   117   116    1
   138   118   116    1
   139    43    38   am
   140    53    51    1
   141    51    52    1
   142   116   115    1
   143    41    40    1
   144    38    37    1
   145    38    39    2
   146    37    40    1
   147    37    36    1
   148   115   112    1
   149    40    42    1
   150   112   111    1
   151   112   113    1
   152   113   114    2
