@<TRIPOS>MOLECULE
tmp/5ji6A00.pdb
 146 141 0 0 0
SMALL
GASTEIGER

@<TRIPOS>ATOM
      1  N         23.4820   31.3670    9.0200 N.3   110  PHE110     -0.1241
      2  CA        23.4700   32.1120   10.2710 C.3   110  PHE110      0.1605
      3  C         24.8730   32.0410   10.8610 C.2   110  PHE110      0.2264
      4  O         25.6790   31.2400   10.3910 O.2   110  PHE110     -0.2867
      5  CB        22.4180   31.5640   11.2390 C.3   110  PHE110      0.0534
      6  CG        22.5270   30.0860   11.4960 C.ar  110  PHE110     -0.0203
      7  CD1       21.6860   29.1930   10.8350 C.ar  110  PHE110     -0.0042
      8  CD2       23.4510   29.5830   12.4250 C.ar  110  PHE110     -0.0042
      9  CE1       21.7640   27.8220   11.0850 C.ar  110  PHE110     -0.0003
     10  CE2       23.5310   28.2200   12.6760 C.ar  110  PHE110     -0.0003
     11  CZ        22.6850   27.3380   12.0030 C.ar  110  PHE110     -0.0000
     12  N         23.6550   30.9760   20.7670 N.3   122  HIS122     -0.1241
     13  CA        23.6510   32.3530   20.2720 C.3   122  HIS122      0.1621
     14  C         24.8610   33.1850   20.7360 C.2   122  HIS122      0.2264
     15  O         24.8060   34.4170   20.7230 O.2   122  HIS122     -0.2867
     16  CB        22.3160   33.0740   20.5720 C.3   122  HIS122      0.0745
     17  CG        21.1110   32.4120   19.9690 C.ar  122  HIS122      0.0817
     18  ND1       19.8200   32.7680   20.2990 N.ar  122  HIS122     -0.2268
     19  CD2       21.0010   31.4220   19.0460 C.ar  122  HIS122      0.1154
     20  CE1       18.9690   32.0330   19.6040 C.ar  122  HIS122      0.1986
     21  NE2       19.6600   31.2060   18.8380 N.ar  122  HIS122     -0.2212
     22  N         27.6220   25.4400   16.3190 N.3   142  ASP142     -0.1239
     23  CA        26.2860   25.3880   15.6700 C.3   142  ASP142      0.1674
     24  C         26.3440   26.3270   14.4890 C.2   142  ASP142      0.2266
     25  O         26.3820   27.5460   14.6700 O.2   142  ASP142     -0.2867
     26  CB        25.1990   25.8160   16.6640 C.3   142  ASP142      0.1410
     27  CG        23.7710   25.7140   16.0870 C.2   142  ASP142      0.3668
     28  OD1       23.5730   25.5370   14.8730 O.co2 142  ASP142     -0.2456
     29  OD2       22.8400   25.7950   16.8830 O.co2 142  ASP142     -0.2456
     30  N         20.4720   23.5380    9.5590 N.3   153  ASP153     -0.1239
     31  CA        20.8070   23.9330   10.9310 C.3   153  ASP153      0.1674
     32  C         21.3010   22.6730   11.6500 C.2   153  ASP153      0.2266
     33  O         20.5300   21.7430   11.8880 O.2   153  ASP153     -0.2867
     34  CB        19.5720   24.5240   11.6250 C.3   153  ASP153      0.1410
     35  CG        19.8550   25.0180   13.0400 C.2   153  ASP153      0.3668
     36  OD1       18.8660   25.4430   13.6770 O.co2 153  ASP153     -0.2456
     37  OD2       21.0360   24.9960   13.5410 O.co2 153  ASP153     -0.2456
     38  N         14.5010   26.0900   25.6730 N.3   219  LEU219     -0.1231
     39  CA        15.1010   26.0030   24.3400 C.3   219  LEU219      0.1693
     40  C         14.4150   24.8730   23.5860 C.2   219  LEU219      0.2592
     41  O         13.8870   23.9470   24.2200 O.2   219  LEU219     -0.2718
     42  CB        16.6110   25.7640   24.4160 C.3   219  LEU219      0.0284
     43  CG        17.5270   26.9560   24.7120 C.3   219  LEU219      0.0019
     44  CD1       18.9610   26.4960   24.9260 C.3   219  LEU219      0.0001
     45  CD2       17.4700   27.9730   23.5870 C.3   219  LEU219      0.0001
     46  N         14.4120   24.9480   22.2490 N.am  220  ASN220     -0.1974
     47  CA        13.5950   24.0480   21.4240 C.3   220  ASN220      0.1688
     48  C         14.0340   23.8830   19.9930 C.2   220  ASN220      0.2292
     49  O         14.5870   24.8020   19.3990 O.2   220  ASN220     -0.2864
     50  CB        12.1580   24.5620   21.3380 C.3   220  ASN220      0.1181
     51  CG        11.6640   25.0970   22.6400 C.2   220  ASN220      0.2629
     52  OD1       11.7290   26.2990   22.8760 O.2   220  ASN220     -0.2716
     53  ND2       11.2160   24.2060   23.5230 N.am  220  ASN220     -0.0877
     54  N         12.4710   23.3990   16.0460 N.3   222  HIS222     -0.1241
     55  CA        11.6980   24.3990   15.3000 C.3   222  HIS222      0.1621
     56  C         11.4820   23.9980   13.8490 C.2   222  HIS222      0.2264
     57  O         12.3010   23.2840   13.2790 O.2   222  HIS222     -0.2867
     58  CB        12.3850   25.7730   15.3540 C.3   222  HIS222      0.0745
     59  CG        13.8580   25.7400   15.0380 C.ar  222  HIS222      0.0817
     60  ND1       14.3670   26.0990   13.8090 N.ar  222  HIS222     -0.2268
     61  CD2       14.9250   25.4030   15.7990 C.ar  222  HIS222      0.1154
     62  CE1       15.6850   25.9800   13.8240 C.ar  222  HIS222      0.1986
     63  NE2       16.0510   25.5580   15.0200 N.ar  222  HIS222     -0.2212
     64  N         14.8340   30.6220    9.4590 N.3   229  ILE229     -0.1231
     65  CA        15.4020   29.6150   10.3470 C.3   229  ILE229      0.1692
     66  C         14.3760   29.0220   11.3180 C.2   229  ILE229      0.2592
     67  O         14.4110   27.8240   11.6170 O.2   229  ILE229     -0.2718
     68  CB        16.6330   30.1650   11.1100 C.3   229  ILE229      0.0266
     69  CG1       17.2030   29.1000   12.0430 C.3   229  ILE229      0.0019
     70  CG2       16.2850   31.3960   11.9260 C.3   229  ILE229      0.0020
     71  CD1       17.7670   27.9140   11.3010 C.3   229  ILE229      0.0001
     72  N         13.4780   29.8710   11.8060 N.am  230  HIS230     -0.1976
     73  CA        12.3950   29.4440   12.6580 C.3   230  HIS230      0.1656
     74  C         11.0880   29.8170   11.9740 C.2   230  HIS230      0.2291
     75  O         10.7360   30.9960   11.8780 O.2   230  HIS230     -0.2864
     76  CB        12.4900   30.1080   14.0340 C.3   230  HIS230      0.0771
     77  CG        11.6160   29.4700   15.0760 C.ar  230  HIS230      0.0820
     78  ND1       10.2450   29.3750   14.9470 N.ar  230  HIS230     -0.2267
     79  CD2       11.9190   28.9000   16.2670 C.ar  230  HIS230      0.1154
     80  CE1        9.7430   28.7710   16.0090 C.ar  230  HIS230      0.1986
     81  NE2       10.7370   28.4740   16.8260 N.ar  230  HIS230     -0.2212
     82  N         16.7480   19.7460   17.7660 N.3   254  GLU254     -0.1245
     83  CA        17.8420   20.0500   18.6860 C.3   254  GLU254      0.1567
     84  C         17.4390   19.8450   20.1360 C.2   254  GLU254      0.2260
     85  O         16.2980   20.1510   20.5340 O.2   254  GLU254     -0.2867
     86  CB        18.3770   21.4810   18.5000 C.3   254  GLU254      0.0388
     87  CG        17.3620   22.6190   18.5360 C.3   254  GLU254      0.1160
     88  CD        17.9910   23.9560   18.1470 C.2   254  GLU254      0.3649
     89  OE1       17.3320   24.7580   17.4390 O.co2 254  GLU254     -0.2457
     90  OE2       19.1530   24.2110   18.5420 O.co2 254  GLU254     -0.2457
     91  N         24.2320   38.2840   17.6450 N.3   272  HIS272     -0.1226
     92  CA        23.3450   37.7070   16.6420 C.3   272  HIS272      0.1752
     93  C         22.1660   38.6350   16.3860 C.2   272  HIS272      0.2596
     94  O         21.4790   39.0380   17.3220 O.2   272  HIS272     -0.2718
     95  CB        22.7900   36.3590   17.1410 C.3   272  HIS272      0.0759
     96  CG        23.7470   35.2120   17.0290 C.ar  272  HIS272      0.0818
     97  ND1       25.0270   35.2480   17.5520 N.ar  272  HIS272     -0.2268
     98  CD2       23.5970   33.9830   16.4800 C.ar  272  HIS272      0.1154
     99  CE1       25.6270   34.0950   17.3140 C.ar  272  HIS272      0.1986
    100  NE2       24.7800   33.3090   16.6660 N.ar  272  HIS272     -0.2212
    101  N         21.9290   38.9830   15.1270 N.am  273  TYR273     -0.1962
    102  CA        20.7210   39.7460   14.7810 C.3   273  TYR273      0.1771
    103  C         20.0860   39.1430   13.5410 C.2   273  TYR273      0.2619
    104  O         20.7430   38.4310   12.7770 O.2   273  TYR273     -0.2715
    105  CB        21.0670   41.2220   14.5360 C.3   273  TYR273      0.0574
    106  CG        21.8100   41.8760   15.6920 C.ar  273  TYR273     -0.0198
    107  CD1       21.1370   42.6930   16.6010 C.ar  273  TYR273     -0.0009
    108  CD2       23.1850   41.6640   15.8760 C.ar  273  TYR273     -0.0009
    109  CE1       21.8070   43.2990   17.6570 C.ar  273  TYR273      0.0417
    110  CE2       23.8590   42.2520   16.9310 C.ar  273  TYR273      0.0417
    111  CZ        23.1660   43.0700   17.8130 C.ar  273  TYR273      0.1957
    112  OH        23.8320   43.6590   18.8470 O.3   273  TYR273     -0.2866
    113  N         18.8110   39.4300   13.3340 N.am  274  MET274     -0.1977
    114  CA        18.1260   38.9240   12.1730 C.3   274  MET274      0.1605
    115  C         16.8770   39.7380   11.9280 C.2   274  MET274      0.2287
    116  O         16.1650   40.0980   12.8550 O.2   274  MET274     -0.2864
    117  CB        17.7440   37.4640   12.3790 C.3   274  MET274      0.0413
    118  CG        17.1360   36.7930   11.1530 C.3   274  MET274      0.0598
    119  SD        16.7670   35.0330   11.3860 S.3   274  MET274     -0.1393
    120  CE        15.3970   35.1000   12.5430 C.3   274  MET274      0.0692
    121  N         19.8200   35.3170    9.4940 N.3   304  ALA304     -0.1245
    122  CA        20.5460   35.9070   10.6100 C.3   304  ALA304      0.1562
    123  C         21.9690   36.3050   10.2300 C.2   304  ALA304      0.2260
    124  O         22.5740   35.7300    9.3380 O.2   304  ALA304     -0.2867
    125  CB        20.5630   34.9720   11.7950 C.3   304  ALA304      0.0290
    126  N         19.4000   38.6570   19.0320 N.3   334  TYR334     -0.1241
    127  CA        19.3500   37.3350   19.6760 C.3   334  TYR334      0.1605
    128  C         20.5590   37.1130   20.5910 C.2   334  TYR334      0.2264
    129  O         21.5240   36.4630   20.1980 O.2   334  TYR334     -0.2867
    130  CB        19.2220   36.2110   18.6350 C.3   334  TYR334      0.0534
    131  CG        17.9140   36.2480   17.9000 C.ar  334  TYR334     -0.0201
    132  CD1       16.8050   35.5600   18.3880 C.ar  334  TYR334     -0.0009
    133  CD2       17.7660   37.0040   16.7250 C.ar  334  TYR334     -0.0009
    134  CE1       15.5890   35.5960   17.7190 C.ar  334  TYR334      0.0417
    135  CE2       16.5530   37.0510   16.0540 C.ar  334  TYR334      0.0417
    136  CZ        15.4700   36.3430   16.5500 C.ar  334  TYR334      0.1957
    137  OH        14.2550   36.3810   15.8890 O.3   334  TYR334     -0.2866
    138  N         22.2090   18.7110   17.1650 N.3   349  GLU349     -0.1245
    139  CA        21.1250   19.2050   16.2960 C.3   349  GLU349      0.1567
    140  C         21.2500   18.6700   14.8720 C.2   349  GLU349      0.2260
    141  O         22.3420   18.6450   14.3120 O.2   349  GLU349     -0.2867
    142  CB        21.1040   20.7480   16.2760 C.3   349  GLU349      0.0388
    143  CG        19.9720   21.3540   15.4460 C.3   349  GLU349      0.1160
    144  CD        19.9580   22.8810   15.4700 C.2   349  GLU349      0.3649
    145  OE1       18.8680   23.4820   15.2980 O.co2 349  GLU349     -0.2457
    146  OE2       21.0310   23.5020   15.6480 O.co2 349  GLU349     -0.2457
@<TRIPOS>BOND
     1     1     2    1
     2   124   123    2
     3    64    65    1
     4   121   122    1
     5    30    31    1
     6   123   122    1
     7     2     3    1
     8     2     5    1
     9    65    68    1
    10    65    66    1
    11     4     3    2
    12   122   125    1
    13     7     9   ar
    14     7     6   ar
    15    31    34    1
    16    31    32    1
    17     9    11   ar
    18    68    70    1
    19    68    69    1
    20   118   119    1
    21   118   117    1
    22     5     6    1
    23    71    69    1
    24    66    67    2
    25    66    72   am
    26   119   120    1
    27     6     8   ar
    28    34    35    1
    29    32    33    2
    30    72    73    1
    31    75    74    2
    32   115   114    1
    33   115   116    2
    34    74    73    1
    35    11    10   ar
    36   114   117    1
    37   114   113    1
    38     8    10   ar
    39    73    76    1
    40   104   103    2
    41    35    37   ar
    42    35    36   ar
    43    57    56    2
    44   113   103   am
    45   103   102    1
    46    60    62   ar
    47    60    59   ar
    48    62    63   ar
    49    56    55    1
    50    76    77    1
    51   141   140    2
    52    24    25    2
    53    24    23    1
    54   105   102    1
    55   105   106    1
    56   102   101    1
    57   140   139    1
    58    28    27   ar
    59    78    77   ar
    60    78    80   ar
    61    63    61   ar
    62    59    58    1
    63    59    61   ar
    64    77    79   ar
    65   101    93   am
    66   145   144   ar
    67    55    58    1
    68    55    54    1
    69   143   144    1
    70   143   142    1
    71   144   146   ar
    72    23    22    1
    73    23    26    1
    74   106   108   ar
    75   106   107   ar
    76   108   110   ar
    77   137   136    1
    78    80    81   ar
    79   135   136   ar
    80   135   133   ar
    81    27    26    1
    82    27    29   ar
    83    79    81   ar
    84   142   139    1
    85   139   138    1
    86    93    92    1
    87    93    94    2
    88    98   100   ar
    89    98    96   ar
    90   136   134   ar
    91   107   109   ar
    92    92    95    1
    93    92    91    1
    94   100    99   ar
    95   133   131   ar
    96   110   111   ar
    97    96    95    1
    98    96    97   ar
    99    99    97   ar
   100    89    88   ar
   101   109   111   ar
   102   134   132   ar
   103    82    83    1
   104   111   112    1
   105   131   132   ar
   106   131   130    1
   107    88    87    1
   108    88    90   ar
   109    86    87    1
   110    86    83    1
   111   130   127    1
   112    83    84    1
   113    21    19   ar
   114    21    20   ar
   115   126   127    1
   116    19    17   ar
   117    49    48    2
   118    20    18   ar
   119   127   128    1
   120    17    18   ar
   121    17    16    1
   122    48    47    1
   123    84    85    2
   124   129   128    2
   125    13    16    1
   126    13    14    1
   127    13    12    1
   128    15    14    2
   129    50    47    1
   130    50    51    1
   131    47    46    1
   132    46    40   am
   133    51    52    2
   134    51    53   am
   135    40    41    2
   136    40    39    1
   137    45    43    1
   138    39    42    1
   139    39    38    1
   140    42    43    1
   141    43    44    1
