@<TRIPOS>MOLECULE
tmp/5ji8A00.pdb
 99 96 0 0 0
SMALL
GASTEIGER

@<TRIPOS>ATOM
      1  N          7.2500    8.3160    1.5720 N.3    22  PHE22      -0.1227
      2  CA         6.8110    8.1360    2.9540 C.3    22  PHE22       0.1736
      3  C          6.4540    6.6810    3.2330 C.2    22  PHE22       0.2595
      4  O          6.5950    6.2230    4.3760 O.2    22  PHE22      -0.2718
      5  CB         5.5790    9.0210    3.2300 C.3    22  PHE22       0.0547
      6  CG         5.8330   10.5220    3.1300 C.ar   22  PHE22      -0.0202
      7  CD1        7.0360   11.0880    3.4990 C.ar   22  PHE22      -0.0042
      8  CD2        4.8170   11.3630    2.6840 C.ar   22  PHE22      -0.0042
      9  CE1        7.2550   12.4830    3.4030 C.ar   22  PHE22      -0.0003
     10  CE2        5.0360   12.7540    2.6000 C.ar   22  PHE22      -0.0003
     11  CZ         6.2370   13.2900    2.9500 C.ar   22  PHE22      -0.0000
     12  N          5.9940    5.9430    2.2210 N.am   23  PHE23      -0.1976
     13  CA         5.5160    4.5750    2.3720 C.3    23  PHE23       0.1639
     14  C          6.4110    3.5830    1.6410 C.2    23  PHE23       0.2290
     15  O          6.0270    2.4300    1.4420 O.2    23  PHE23      -0.2864
     16  CB         4.0590    4.4960    1.8930 C.3    23  PHE23       0.0560
     17  CG         3.1590    5.4840    2.5960 C.ar   23  PHE23      -0.0200
     18  CD1        3.2000    5.5990    3.9830 C.ar   23  PHE23      -0.0042
     19  CD2        2.3920    6.3920    1.8910 C.ar   23  PHE23      -0.0042
     20  CE1        2.4160    6.5340    4.6440 C.ar   23  PHE23      -0.0003
     21  CE2        1.6010    7.3210    2.5630 C.ar   23  PHE23      -0.0003
     22  CZ         1.6130    7.3900    3.9200 C.ar   23  PHE23      -0.0000
     23  N          8.3600    1.6600    8.4490 N.3    27  VAL27      -0.1245
     24  CA         8.5140    2.7990    9.3410 C.3    27  VAL27       0.1561
     25  C          9.3730    2.3950   10.5230 C.2    27  VAL27       0.2260
     26  O          9.1170    1.3670   11.1570 O.2    27  VAL27      -0.2867
     27  CB         7.1280    3.2420    9.8300 C.3    27  VAL27       0.0252
     28  CG1        7.2440    4.4100   10.8030 C.3    27  VAL27       0.0019
     29  CG2        6.2170    3.5650    8.6570 C.3    27  VAL27       0.0019
     30  N         12.0100    7.2180   13.4520 N.3    31  ILE31      -0.1231
     31  CA        11.2590    8.2300   12.7180 C.3    31  ILE31       0.1692
     32  C          9.9180    8.4820   13.3970 C.2    31  ILE31       0.2591
     33  O          9.4310    9.6210   13.4550 O.2    31  ILE31      -0.2718
     34  CB        11.0920    7.7850   11.2520 C.3    31  ILE31       0.0266
     35  CG1       12.4510    7.7890   10.5380 C.3    31  ILE31       0.0019
     36  CG2       10.0810    8.6680   10.5160 C.3    31  ILE31       0.0020
     37  CD1       12.4340    7.0320    9.2080 C.3    31  ILE31       0.0001
     38  N          9.3090    7.4290   13.9380 N.am   32  ALA32      -0.1980
     39  CA         7.9290    7.4710   14.4170 C.3    32  ALA32       0.1597
     40  C          7.8910    6.8320   15.7940 C.2    32  ALA32       0.2287
     41  O          7.6610    5.6230   15.9220 O.2    32  ALA32      -0.2864
     42  CB         7.0100    6.7290   13.4500 C.3    32  ALA32       0.0319
     43  N          6.0310    3.4710   17.2210 N.3    35  TYR35      -0.1241
     44  CA         5.2810    2.9080   16.0970 C.3    35  TYR35       0.1605
     45  C          5.0540    1.4170   16.2880 C.2    35  TYR35       0.2264
     46  O          3.9300    0.9220   16.1260 O.2    35  TYR35      -0.2867
     47  CB         6.0040    3.1530   14.7690 C.3    35  TYR35       0.0534
     48  CG         5.1370    2.8490   13.5560 C.ar   35  TYR35      -0.0201
     49  CD1        4.3040    3.8090   13.0370 C.ar   35  TYR35      -0.0009
     50  CD2        5.1550    1.5960   12.9480 C.ar   35  TYR35      -0.0009
     51  CE1        3.5070    3.5490   11.9360 C.ar   35  TYR35       0.0417
     52  CE2        4.3670    1.3290   11.8440 C.ar   35  TYR35       0.0417
     53  CZ         3.5420    2.3110   11.3520 C.ar   35  TYR35       0.1957
     54  OH         2.7290    2.0720   10.2600 O.3    35  TYR35      -0.2866
     55  N         -1.5040   -0.8300    4.7800 N.3    70  MET70      -0.1245
     56  CA        -0.4930    0.2210    4.8340 C.3    70  MET70       0.1570
     57  C         -1.1390    1.5730    5.1070 C.2    70  MET70       0.2261
     58  O         -0.6910    2.3400    5.9560 O.2    70  MET70      -0.2867
     59  CB         0.2250    0.2410    3.4790 C.3    70  MET70       0.0387
     60  CG         1.3910    1.1680    3.3650 C.3    70  MET70       0.0595
     61  SD         2.0070    1.1590    1.6850 S.3    70  MET70      -0.1393
     62  CE         0.9030    2.3620    0.9920 C.3    70  MET70       0.0692
     63  N         -1.1590    4.0460    8.6320 N.3    74  ALA74      -0.1245
     64  CA        -0.7540    5.4480    8.6330 C.3    74  ALA74       0.1562
     65  C         -1.8500    6.3250    9.2010 C.2    74  ALA74       0.2260
     66  O         -1.5700    7.3060    9.8960 O.2    74  ALA74      -0.2867
     67  CB        -0.4150    5.8800    7.2110 C.3    74  ALA74       0.0290
     68  N         -1.7740    5.7060   13.1570 N.3    77  TYR77      -0.1227
     69  CA        -0.6330    6.2140   13.9090 C.3    77  TYR77       0.1736
     70  C         -0.5300    7.7350   13.8440 C.2    77  TYR77       0.2595
     71  O         -0.2670    8.3840   14.8600 O.2    77  TYR77      -0.2718
     72  CB         0.6740    5.5740   13.4200 C.3    77  TYR77       0.0548
     73  CG         1.8650    6.1950   14.0950 C.ar   77  TYR77      -0.0200
     74  CD1        2.2950    5.7340   15.3270 C.ar   77  TYR77      -0.0009
     75  CD2        2.5490    7.2450   13.5070 C.ar   77  TYR77      -0.0009
     76  CE1        3.3680    6.3200   15.9850 C.ar   77  TYR77       0.0417
     77  CE2        3.6240    7.8430   14.1590 C.ar   77  TYR77       0.0417
     78  CZ         4.0310    7.3660   15.3830 C.ar   77  TYR77       0.1957
     79  OH         5.1050    7.9440   16.0190 O.3    77  TYR77      -0.2866
     80  N         -0.6720    8.3150   12.6590 N.am   78  ASN78      -0.1974
     81  CA        -0.4700    9.7460   12.5040 C.3    78  ASN78       0.1688
     82  C         -1.7670   10.4940   12.7600 C.2    78  ASN78       0.2292
     83  O         -2.8500   10.0070   12.4410 O.2    78  ASN78      -0.2864
     84  CB         0.0130   10.0400   11.0950 C.3    78  ASN78       0.1181
     85  CG         1.2870    9.3000   10.7630 C.2    78  ASN78       0.2629
     86  OD1        2.3800    9.6900   11.1770 O.2    78  ASN78      -0.2716
     87  ND2        1.1530    8.2140   10.0190 N.am   78  ASN78      -0.0877
     88  N          1.3450   12.8420    6.5730 N.3    84  TYR84      -0.1241
     89  CA         1.3140   11.3980    6.3760 C.3    84  TYR84       0.1605
     90  C         -0.1100   10.8610    6.3760 C.2    84  TYR84       0.2264
     91  O         -0.4690   10.0360    5.5320 O.2    84  TYR84      -0.2867
     92  CB         2.1540   10.7330    7.4560 C.3    84  TYR84       0.0534
     93  CG         3.4700   11.4460    7.5970 C.ar   84  TYR84      -0.0201
     94  CD1        4.4280   11.3470    6.5990 C.ar   84  TYR84      -0.0009
     95  CD2        3.7320   12.2680    8.6780 C.ar   84  TYR84      -0.0009
     96  CE1        5.6210   12.0160    6.6990 C.ar   84  TYR84       0.0417
     97  CE2        4.9400   12.9410    8.7890 C.ar   84  TYR84       0.0417
     98  CZ         5.8690   12.8200    7.7850 C.ar   84  TYR84       0.1957
     99  OH         7.0700   13.4910    7.8810 O.3    84  TYR84      -0.2866
@<TRIPOS>BOND
     1    62    61    1
     2    15    14    2
     3     1     2    1
     4    14    13    1
     5    61    60    1
     6    19    21   ar
     7    19    17   ar
     8    16    13    1
     9    16    17    1
    10    12    13    1
    11    12     3   am
    12    21    22   ar
    13    17    18   ar
    14    10     8   ar
    15    10    11   ar
    16     8     6   ar
    17    11     9   ar
    18     2     5    1
    19     2     3    1
    20     6     5    1
    21     6     7   ar
    22     3     4    2
    23    60    59    1
    24     9     7   ar
    25    59    56    1
    26    22    20   ar
    27    18    20   ar
    28    55    56    1
    29    56    57    1
    30    57    58    2
    31    91    90    2
    32    90    89    1
    33    89    88    1
    34    89    92    1
    35    94    96   ar
    36    94    93   ar
    37    96    98   ar
    38    67    64    1
    39    92    93    1
    40    93    95   ar
    41    98    99    1
    42    98    97   ar
    43    23    24    1
    44    63    64    1
    45    64    65    1
    46    29    27    1
    47    95    97   ar
    48    65    66    2
    49    37    35    1
    50    24    27    1
    51    24    25    1
    52    27    28    1
    53    87    85   am
    54    54    53    1
    55    36    34    1
    56    25    26    2
    57    35    34    1
    58    85    84    1
    59    85    86    2
    60    84    81    1
    61    34    31    1
    62    53    52   ar
    63    53    51   ar
    64    52    50   ar
    65    51    49   ar
    66    83    82    2
    67    81    80    1
    68    81    82    1
    69    80    70   am
    70    31    32    1
    71    31    30    1
    72    50    48   ar
    73    49    48   ar
    74    68    69    1
    75    32    33    2
    76    32    38   am
    77    72    69    1
    78    72    73    1
    79    42    39    1
    80    75    73   ar
    81    75    77   ar
    82    48    47    1
    83    70    69    1
    84    70    71    2
    85    38    39    1
    86    73    74   ar
    87    77    78   ar
    88    39    40    1
    89    47    44    1
    90    74    76   ar
    91    78    76   ar
    92    78    79    1
    93    40    41    2
    94    44    45    1
    95    44    43    1
    96    46    45    2
