@<TRIPOS>MOLECULE
tmp/5jibC00.pdb
 99 99 0 0 0
SMALL
GASTEIGER

@<TRIPOS>ATOM
      1  N        -34.9220  -28.6610  -39.8330 N.3    88  GLY88      -0.1210
      2  CA       -33.7600  -27.8950  -39.3770 C.3    88  GLY88       0.1956
      3  C        -32.4240  -28.2490  -40.0220 C.2    88  GLY88       0.2612
      4  O        -32.2520  -29.3150  -40.6210 O.2    88  GLY88      -0.2717
      5  N        -31.5090  -27.3220  -39.9560 N.am   89  TYR89      -0.1962
      6  CA       -30.1940  -27.4120  -40.5860 C.3    89  TYR89       0.1771
      7  C        -29.4340  -28.6660  -40.1010 C.2    89  TYR89       0.2619
      8  O        -29.4330  -28.9840  -38.8710 O.2    89  TYR89      -0.2715
      9  CB       -29.3850  -26.1440  -40.2470 C.3    89  TYR89       0.0574
     10  CG       -28.1600  -25.8830  -41.0780 C.ar   89  TYR89      -0.0198
     11  CD1      -28.2400  -25.1390  -42.2860 C.ar   89  TYR89      -0.0009
     12  CD2      -26.8810  -26.2960  -40.6730 C.ar   89  TYR89      -0.0009
     13  CE1      -27.1070  -24.8970  -43.0290 C.ar   89  TYR89       0.0417
     14  CE2      -25.7340  -26.0460  -41.4400 C.ar   89  TYR89       0.0417
     15  CZ       -25.8640  -25.3280  -42.6110 C.ar   89  TYR89       0.1957
     16  OH       -24.7360  -25.0400  -43.3900 O.3    89  TYR89      -0.2866
     17  N        -28.8290  -29.3540  -41.0570 N.am   90  ASN90      -0.1972
     18  CA       -28.0770  -30.6080  -40.8550 C.3    90  ASN90       0.1688
     19  C        -28.9510  -31.7890  -40.5710 C.2    90  ASN90       0.2292
     20  O        -28.4320  -32.8860  -40.2760 O.2    90  ASN90      -0.2864
     21  CB       -27.0120  -30.4960  -39.7760 C.3    90  ASN90       0.1181
     22  CG       -25.6940  -29.9670  -40.3150 C.2    90  ASN90       0.2629
     23  OD1      -25.3670  -30.1410  -41.4990 O.2    90  ASN90      -0.2716
     24  ND2      -24.9680  -29.2480  -39.4660 N.am   90  ASN90      -0.0877
     25  N        -27.7630  -34.2350  -37.2230 N.3   121  TRP121     -0.1241
     26  CA       -28.4830  -34.7260  -36.0360 C.3   121  TRP121      0.1605
     27  C        -29.5560  -35.7330  -36.3560 C.2   121  TRP121      0.2264
     28  O        -30.0770  -36.3730  -35.4590 O.2   121  TRP121     -0.2867
     29  CB       -29.0540  -33.5580  -35.2100 C.3   121  TRP121      0.0550
     30  CG       -29.8770  -32.6670  -35.9930 C.ar  121  TRP121      0.0003
     31  CD1      -29.4460  -31.6420  -36.7760 C.ar  121  TRP121      0.0946
     32  CD2      -31.2950  -32.6890  -36.0890 C.ar  121  TRP121      0.0152
     33  NE1      -30.5130  -31.0330  -37.3690 N.ar  121  TRP121     -0.2442
     34  CE2      -31.6660  -31.6400  -36.9610 C.ar  121  TRP121      0.0810
     35  CE3      -32.2980  -33.5080  -35.5490 C.ar  121  TRP121      0.0012
     36  CZ2      -33.0050  -31.3760  -37.3060 C.ar  121  TRP121      0.0191
     37  CZ3      -33.6420  -33.2380  -35.8850 C.ar  121  TRP121      0.0001
     38  CH2      -33.9710  -32.1790  -36.7610 C.ar  121  TRP121      0.0015
     39  N        -36.4890  -22.9340  -37.4180 N.3   185  SER185     -0.1202
     40  CA       -35.1280  -22.5370  -37.8020 C.3   185  SER185      0.2020
     41  C        -34.9570  -22.6650  -39.3050 C.2   185  SER185      0.2618
     42  O        -35.6510  -21.9660  -40.0070 O.2   185  SER185     -0.2717
     43  CB       -34.0970  -23.2800  -36.9530 C.3   185  SER185      0.2103
     44  OG       -32.8210  -22.6760  -37.1170 O.3   185  SER185     -0.2182
     45  N        -34.0540  -23.4840  -39.8310 N.am  186  GLN186     -0.1979
     46  CA       -33.9920  -23.6230  -41.2990 C.3   186  GLN186      0.1601
     47  C        -35.3860  -23.9760  -41.8360 C.2   186  GLN186      0.2287
     48  O        -35.7770  -23.5050  -42.8960 O.2   186  GLN186     -0.2864
     49  CB       -32.9270  -24.6220  -41.7290 C.3   186  GLN186      0.0394
     50  CG       -33.0450  -24.9880  -43.1730 C.3   186  GLN186      0.0908
     51  CD       -32.0910  -26.0190  -43.6670 C.2   186  GLN186      0.2608
     52  OE1      -31.0520  -25.6800  -44.2410 O.2   186  GLN186     -0.2717
     53  NE2      -32.3930  -27.2960  -43.4090 N.am  186  GLN186     -0.0878
     54  N        -34.7870  -19.1530  -39.3070 N.3   210  PHE210     -0.1241
     55  CA       -33.4560  -18.9470  -39.8770 C.3   210  PHE210      0.1605
     56  C        -33.6510  -18.4240  -41.2930 C.2   210  PHE210      0.2264
     57  O        -34.8140  -18.3620  -41.7820 O.2   210  PHE210     -0.2867
     58  CB       -32.7530  -20.2930  -39.8600 C.3   210  PHE210      0.0534
     59  CG       -31.2960  -20.3040  -40.2350 C.ar  210  PHE210     -0.0203
     60  CD1      -30.3770  -19.5110  -39.5680 C.ar  210  PHE210     -0.0042
     61  CD2      -30.8420  -21.1660  -41.2180 C.ar  210  PHE210     -0.0042
     62  CE1      -29.0380  -19.5340  -39.9000 C.ar  210  PHE210     -0.0003
     63  CE2      -29.5210  -21.1750  -41.5880 C.ar  210  PHE210     -0.0003
     64  CZ       -28.6210  -20.3560  -40.9160 C.ar  210  PHE210     -0.0000
     65  N        -22.8560  -20.6180  -35.5360 N.3   224  HIS224     -0.1227
     66  CA       -23.2770  -21.3050  -36.7490 C.3   224  HIS224      0.1737
     67  C        -24.7810  -21.5400  -36.7170 C.2   224  HIS224      0.2438
     68  O        -25.2990  -21.7370  -35.5910 O.2   224  HIS224     -0.2733
     69  CB       -22.5310  -22.6130  -36.8300 C.3   224  HIS224      0.0758
     70  CG       -21.1140  -22.4390  -37.1880 C.ar  224  HIS224      0.0818
     71  ND1      -20.6200  -22.8310  -38.4010 N.ar  224  HIS224     -0.2268
     72  CD2      -20.0920  -21.8340  -36.5320 C.ar  224  HIS224      0.1154
     73  CE1      -19.3390  -22.5280  -38.4670 C.ar  224  HIS224      0.1986
     74  NE2      -19.0090  -21.8800  -37.3700 N.ar  224  HIS224     -0.2212
     75  N        -25.4640  -21.5620  -37.8880 N.am  225  PRO225     -0.2729
     76  CA       -24.7490  -21.6170  -39.1760 C.3   225  PRO225      0.1401
     77  C        -24.5390  -20.2220  -39.8300 C.2   225  PRO225      0.2269
     78  O        -23.8690  -20.1500  -40.8710 O.2   225  PRO225     -0.2865
     79  CB       -25.6430  -22.5270  -40.0560 C.3   225  PRO225      0.0296
     80  CG       -26.7620  -23.0220  -39.1420 C.3   225  PRO225      0.0237
     81  CD       -26.8740  -22.0220  -38.0350 C.3   225  PRO225      0.0939
     82  N        -28.8750  -18.2720  -32.1080 N.3   273  ILE273     -0.1245
     83  CA       -28.6800  -18.8430  -33.4130 C.3   273  ILE273      0.1561
     84  C        -29.4850  -18.0180  -34.4690 C.2   273  ILE273      0.2260
     85  O        -28.9300  -17.6430  -35.4980 O.2   273  ILE273     -0.2867
     86  CB       -29.1850  -20.2830  -33.4390 C.3   273  ILE273      0.0252
     87  CG1      -28.5480  -21.1720  -32.3030 C.3   273  ILE273      0.0019
     88  CG2      -29.0130  -20.9020  -34.8340 C.3   273  ILE273      0.0019
     89  CD1      -27.0550  -21.2410  -32.3480 C.3   273  ILE273      0.0001
     90  N        -32.8160  -20.9150  -28.5580 N.3   300  HIS300     -0.1241
     91  CA       -33.2540  -21.4340  -29.8300 C.3   300  HIS300      0.1621
     92  C        -34.2820  -22.5560  -29.7740 C.2   300  HIS300      0.2264
     93  O        -34.9400  -22.8130  -30.7780 O.2   300  HIS300     -0.2867
     94  CB       -32.0080  -21.8600  -30.5960 C.3   300  HIS300      0.0745
     95  CG       -32.2260  -22.1460  -32.0390 C.ar  300  HIS300      0.0817
     96  ND1      -32.8340  -21.2700  -32.9030 N.ar  300  HIS300     -0.2268
     97  CD2      -31.9090  -23.2360  -32.7630 C.ar  300  HIS300      0.1154
     98  CE1      -32.8330  -21.7870  -34.1100 C.ar  300  HIS300      0.1986
     99  NE2      -32.2920  -22.9870  -34.0560 N.ar  300  HIS300     -0.2212
@<TRIPOS>BOND
     1    52    51    2
     2    51    53   am
     3    51    50    1
     4    16    15    1
     5    50    49    1
     6    13    15   ar
     7    13    11   ar
     8    48    47    2
     9    15    14   ar
    10    11    10   ar
    11    47    46    1
    12    57    56    2
    13    49    46    1
    14    63    61   ar
    15    63    64   ar
    16    23    22    2
    17    14    12   ar
    18    46    45    1
    19    56    55    1
    20    61    59   ar
    21    10    12   ar
    22    10     9    1
    23    17    18    1
    24    17     7   am
    25    64    62   ar
    26    78    77    2
    27    18    19    1
    28    18    21    1
    29     4     3    2
    30     6     9    1
    31     6     7    1
    32     6     5    1
    33    19    20    2
    34    22    21    1
    35    22    24   am
    36    59    58    1
    37    59    60   ar
    38     7     8    2
    39    79    76    1
    40    79    80    1
    41     3     5   am
    42     3     2    1
    43    42    41    2
    44    62    60   ar
    45    55    58    1
    46    55    54    1
    47     1     2    1
    48    45    41   am
    49    77    76    1
    50    41    40    1
    51    76    75    1
    52    80    81    1
    53    73    71   ar
    54    73    74   ar
    55    71    70   ar
    56    81    75    1
    57    75    67   am
    58    40    39    1
    59    40    43    1
    60    74    72   ar
    61    33    34   ar
    62    33    31   ar
    63    36    34   ar
    64    36    38   ar
    65    25    26    1
    66    70    69    1
    67    70    72   ar
    68    44    43    1
    69    34    32   ar
    70    69    66    1
    71    31    30   ar
    72    38    37   ar
    73    66    67    1
    74    66    65    1
    75    67    68    2
    76    27    26    1
    77    27    28    2
    78    32    30   ar
    79    32    35   ar
    80    26    29    1
    81    30    29    1
    82    37    35   ar
    83    85    84    2
    84    88    86    1
    85    84    83    1
    86    98    99   ar
    87    98    96   ar
    88    99    97   ar
    89    86    83    1
    90    86    87    1
    91    83    82    1
    92    96    95   ar
    93    97    95   ar
    94    89    87    1
    95    95    94    1
    96    93    92    2
    97    94    91    1
    98    91    92    1
    99    91    90    1
