@<TRIPOS>MOLECULE
tmp/5jidB00.pdb
 69 63 0 0 0
SMALL
GASTEIGER

@<TRIPOS>ATOM
      1  N          1.1150    7.6910   29.1100 N.3     6  LYS6       -0.1245
      2  CA         2.1420    6.6560   29.1940 C.3     6  LYS6        0.1561
      3  C          2.7870    6.5400   27.8220 C.2     6  LYS6        0.2260
      4  O          2.1060    6.6100   26.8010 O.2     6  LYS6       -0.2867
      5  CB         1.5590    5.3150   29.6400 C.3     6  LYS6        0.0271
      6  CG         2.6290    4.2680   29.9450 C.3     6  LYS6        0.0035
      7  CD         2.0350    2.9950   30.5250 C.3     6  LYS6        0.0206
      8  CE         3.0830    1.8930   30.6470 C.3     6  LYS6        0.1093
      9  NZ         4.1490    2.2030   31.6450 N.3     6  LYS6       -0.1314
     10  N          5.8580    4.3330   25.5740 N.3     8  LEU8       -0.1245
     11  CA         6.7790    3.1980   25.4470 C.3     8  LEU8        0.1561
     12  C          7.6390    3.3500   24.1920 C.2     8  LEU8        0.2260
     13  O          7.2350    4.0100   23.2230 O.2     8  LEU8       -0.2867
     14  CB         5.9810    1.8980   25.3420 C.3     8  LEU8        0.0270
     15  CG         5.0850    1.5350   26.5230 C.3     8  LEU8        0.0019
     16  CD1        4.3480    0.2220   26.2330 C.3     8  LEU8        0.0001
     17  CD2        5.8670    1.4450   27.8190 C.3     8  LEU8        0.0001
     18  N         -6.5390    7.8100   30.0260 N.3    97  THR97      -0.1218
     19  CA        -5.1490    7.4120   29.8530 C.3    97  THR97       0.1862
     20  C         -4.8510    7.4840   28.3670 C.2    97  THR97       0.2287
     21  O         -5.5260    6.8590   27.5630 O.2    97  THR97      -0.2866
     22  CB        -4.8930    5.9930   30.3450 C.3    97  THR97       0.1770
     23  OG1       -5.1460    5.9480   31.7420 O.3    97  THR97      -0.2211
     24  CG2       -3.4570    5.5920   30.1190 C.3    97  THR97       0.0375
     25  N         -2.0120    6.6060   25.7600 N.3    99  ALA99      -0.1231
     26  CA        -0.8170    5.7890   25.6280 C.3    99  ALA99       0.1694
     27  C         -0.2390    5.9580   24.2400 C.2    99  ALA99       0.2592
     28  O         -0.9840    6.1030   23.2640 O.2    99  ALA99      -0.2718
     29  CB        -1.1370    4.3210   25.8870 C.3    99  ALA99       0.0304
     30  N          1.0860    5.9410   24.1400 N.am  100  ALA100     -0.1966
     31  CA         1.7650    6.0250   22.8540 C.3   100  ALA100      0.1728
     32  C          2.9310    5.0570   22.8110 C.2   100  ALA100      0.2616
     33  O          3.6250    4.8800   23.8050 O.2   100  ALA100     -0.2715
     34  CB         2.2480    7.4350   22.5910 C.3   100  ALA100      0.0334
     35  N          3.1390    4.4740   21.6340 N.am  101  LEU101     -0.1977
     36  CA         4.2530    3.5640   21.3790 C.3   101  LEU101      0.1596
     37  C          5.0910    4.1600   20.2610 C.2   101  LEU101      0.2287
     38  O          4.5610    4.4220   19.1800 O.2   101  LEU101     -0.2864
     39  CB         3.7020    2.2140   20.9340 C.3   101  LEU101      0.0297
     40  CG         4.7480    1.1830   20.5390 C.3   101  LEU101      0.0022
     41  CD1        5.6230    0.7740   21.7110 C.3   101  LEU101      0.0001
     42  CD2        4.0750   -0.0240   19.9200 C.3   101  LEU101      0.0001
     43  N          2.0300    4.7320   17.4530 N.3   108  SER108     -0.1202
     44  CA         0.6610    4.3090   17.6920 C.3   108  SER108      0.2020
     45  C          0.1990    4.9530   18.9710 C.2   108  SER108      0.2619
     46  O          0.9770    5.1010   19.9140 O.2   108  SER108     -0.2717
     47  CB         0.5820    2.7900   17.8450 C.3   108  SER108      0.2103
     48  OG         0.9380    2.1270   16.6410 O.3   108  SER108     -0.2182
     49  N         -1.0780    5.2920   19.0270 N.am  109  THR109     -0.1938
     50  CA        -1.6520    5.8460   20.2250 C.3   109  THR109      0.2028
     51  C         -3.0230    5.2770   20.4670 C.2   109  THR109      0.2642
     52  O         -3.7600    4.9790   19.5050 O.2   109  THR109     -0.2714
     53  CB        -1.7040    7.3740   20.1280 C.3   109  THR109      0.1808
     54  OG1       -2.1360    7.9650   21.3340 O.3   109  THR109     -0.2208
     55  CG2       -2.6600    7.8360   19.0810 C.3   109  THR109      0.0379
     56  N         -3.3700    5.0900   21.7360 N.am  110  THR110     -0.1950
     57  CA        -4.6990    4.6620   22.1060 C.3   110  THR110      0.1897
     58  C         -5.1340    5.4220   23.3570 C.2   110  THR110      0.2313
     59  O         -4.3350    5.9950   24.0700 O.2   110  THR110     -0.2863
     60  CB        -4.8510    3.1270   22.2500 C.3   110  THR110      0.1794
     61  OG1       -6.2410    2.7900   22.1960 O.3   110  THR110     -0.2208
     62  CG2       -4.2390    2.6240   23.5300 C.3   110  THR110      0.0378
     63  N         -7.6540    4.9950   26.8600 N.3   112  VAL112     -0.1245
     64  CA        -8.5080    4.2430   27.7680 C.3   112  VAL112      0.1561
     65  C         -9.2930    5.2680   28.5640 C.2   112  VAL112      0.2260
     66  O         -8.7060    6.1120   29.2600 O.2   112  VAL112     -0.2867
     67  CB        -7.6860    3.3110   28.6830 C.3   112  VAL112      0.0252
     68  CG1       -8.6010    2.5830   29.6870 C.3   112  VAL112      0.0019
     69  CG2       -6.9400    2.3080   27.8350 C.3   112  VAL112      0.0019
@<TRIPOS>BOND
     1    48    47    1
     2    43    44    1
     3    44    47    1
     4    44    45    1
     5    45    49   am
     6    45    46    2
     7    49    50    1
     8    55    53    1
     9    38    37    2
    10    52    51    2
    11    42    40    1
    12    53    50    1
    13    53    54    1
    14    50    51    1
    15    37    36    1
    16    51    56   am
    17    40    39    1
    18    40    41    1
    19    39    36    1
    20    36    35    1
    21    35    32   am
    22    56    57    1
    23    57    60    1
    24    57    58    1
    25    61    60    1
    26    60    62    1
    27    34    31    1
    28    32    31    1
    29    32    33    2
    30    31    30    1
    31    13    12    2
    32    28    27    2
    33    58    59    2
    34    30    27   am
    35    12    11    1
    36    27    26    1
    37    14    11    1
    38    14    15    1
    39    11    10    1
    40    26    25    1
    41    26    29    1
    42    16    15    1
    43    15    17    1
    44     4     3    2
    45    63    64    1
    46    21    20    2
    47    64    65    1
    48    64    67    1
    49     3     2    1
    50    69    67    1
    51    20    19    1
    52    65    66    2
    53    67    68    1
    54     1     2    1
    55     2     5    1
    56     5     6    1
    57    19    18    1
    58    19    22    1
    59     6     7    1
    60    24    22    1
    61    22    23    1
    62     7     8    1
    63     8     9    1
