@<TRIPOS>MOLECULE
tmp/5jifA04.pdb
 87 82 0 0 0
SMALL
GASTEIGER

@<TRIPOS>ATOM
      1  N        -19.7250    0.9330  -20.8190 N.3   275  ASP275     -0.1239
      2  CA       -19.0630    0.4530  -22.0620 C.3   275  ASP275      0.1674
      3  C        -19.3590    1.4280  -23.1850 C.2   275  ASP275      0.2266
      4  O        -20.5010    1.7450  -23.4110 O.2   275  ASP275     -0.2867
      5  CB       -19.5670   -0.9330  -22.4420 C.3   275  ASP275      0.1410
      6  CG       -18.7170   -1.6090  -23.5340 C.2   275  ASP275      0.3668
      7  OD1      -17.5650   -1.1750  -23.7570 O.co2 275  ASP275     -0.2456
      8  OD2      -19.2060   -2.6140  -24.1500 O.co2 275  ASP275     -0.2456
      9  N        -19.0080    1.9840  -27.0460 N.3   277  ARG277     -0.1245
     10  CA       -18.7550    1.2640  -28.3010 C.3   277  ARG277      0.1563
     11  C        -19.6570    1.7170  -29.4180 C.2   277  ARG277      0.2260
     12  O        -20.7370    2.3020  -29.1940 O.2   277  ARG277     -0.2867
     13  CB       -18.8890   -0.2510  -28.0740 C.3   277  ARG277      0.0307
     14  CG       -20.1840   -0.6920  -27.4250 C.3   277  ARG277      0.0489
     15  CD       -20.2120   -2.2220  -27.3360 C.3   277  ARG277      0.2205
     16  NE       -21.1770   -2.6680  -26.3460 N.pl3 277  ARG277     -0.0865
     17  CZ       -22.4320   -3.0370  -26.5830 C.cat 277  ARG277      0.5346
     18  NH1      -22.9390   -3.0010  -27.8020 N.pl3 277  ARG277      0.1354
     19  NH2      -23.1840   -3.4640  -25.5790 N.pl3 277  ARG277      0.1354
     20  N        -13.4840   -1.8520  -29.0320 N.3   285  ASP285     -0.1225
     21  CA       -12.4970   -2.5690  -28.2380 C.3   285  ASP285      0.1805
     22  C        -13.0030   -2.6400  -26.8020 C.2   285  ASP285      0.2597
     23  O        -13.9460   -1.9160  -26.4260 O.2   285  ASP285     -0.2718
     24  CB       -11.1610   -1.8310  -28.2850 C.3   285  ASP285      0.1424
     25  CG       -11.2210   -0.4600  -27.5720 C.2   285  ASP285      0.3668
     26  OD1      -11.2690   -0.4330  -26.3270 O.co2 285  ASP285     -0.2456
     27  OD2      -11.1980    0.6000  -28.2510 O.co2 285  ASP285     -0.2456
     28  N        -12.3800   -3.4910  -25.9950 N.am  286  ASN286     -0.1974
     29  CA       -12.7530   -3.5850  -24.5820 C.3   286  ASN286      0.1688
     30  C        -11.6970   -3.0430  -23.6100 C.2   286  ASN286      0.2292
     31  O        -11.5430   -3.5330  -22.4800 O.2   286  ASN286     -0.2864
     32  CB       -13.1160   -5.0300  -24.2430 C.3   286  ASN286      0.1181
     33  CG       -11.9400   -5.9560  -24.2950 C.2   286  ASN286      0.2629
     34  OD1      -10.8620   -5.6280  -24.7810 O.2   286  ASN286     -0.2716
     35  ND2      -12.1480   -7.1450  -23.7720 N.am  286  ASN286     -0.0877
     36  N        -12.8820   -1.8310  -20.3130 N.3   289  ALA289     -0.1245
     37  CA       -13.2540   -2.9540  -19.4410 C.3   289  ALA289      0.1562
     38  C        -12.0250   -3.6610  -18.8270 C.2   289  ALA289      0.2260
     39  O        -12.0650   -4.1560  -17.7050 O.2   289  ALA289     -0.2867
     40  CB       -14.0570   -3.9730  -20.2280 C.3   289  ALA289      0.0290
     41  N        -18.2190   -1.6970  -13.8180 N.3   299  PHE299     -0.1241
     42  CA       -18.3810   -1.6310  -15.2620 C.3   299  PHE299      0.1605
     43  C        -19.8020   -1.9610  -15.6220 C.2   299  PHE299      0.2264
     44  O        -20.3560   -2.9610  -15.1350 O.2   299  PHE299     -0.2867
     45  CB       -17.4600   -2.6550  -15.9330 C.3   299  PHE299      0.0534
     46  CG       -17.3730   -2.4880  -17.4160 C.ar  299  PHE299     -0.0203
     47  CD1      -16.6650   -1.4220  -17.9510 C.ar  299  PHE299     -0.0042
     48  CD2      -17.9940   -3.3960  -18.2790 C.ar  299  PHE299     -0.0042
     49  CE1      -16.5650   -1.2580  -19.3320 C.ar  299  PHE299     -0.0003
     50  CE2      -17.9070   -3.2240  -19.6460 C.ar  299  PHE299     -0.0003
     51  CZ       -17.2080   -2.1550  -20.1730 C.ar  299  PHE299     -0.0000
     52  N        -22.6520   -2.5810  -18.8370 N.3   301  ASN301     -0.1225
     53  CA       -22.8170   -2.8910  -20.2480 C.3   301  ASN301      0.1785
     54  C        -24.1960   -3.4780  -20.5220 C.2   301  ASN301      0.2598
     55  O        -24.7820   -4.0730  -19.6490 O.2   301  ASN301     -0.2718
     56  CB       -21.7500   -3.8920  -20.6560 C.3   301  ASN301      0.1169
     57  CG       -21.6440   -4.0780  -22.1740 C.2   301  ASN301      0.2627
     58  OD1      -22.0910   -3.2460  -22.9830 O.2   301  ASN301     -0.2716
     59  ND2      -21.0270   -5.2070  -22.5600 N.am  301  ASN301     -0.0877
     60  N        -24.7180   -3.2790  -21.7360 N.am  302  THR302     -0.1939
     61  CA       -25.9840   -3.9120  -22.1360 C.3   302  THR302      0.2028
     62  C        -25.6820   -5.3370  -22.5920 C.2   302  THR302      0.2643
     63  O        -24.5310   -5.7180  -22.6030 O.2   302  THR302     -0.2714
     64  CB       -26.6670   -3.1680  -23.3020 C.3   302  THR302      0.1808
     65  OG1      -25.9200   -3.3590  -24.5000 O.3   302  THR302     -0.2208
     66  CG2      -26.7570   -1.6840  -23.0210 C.3   302  THR302      0.0379
     67  N        -26.7110   -6.0900  -22.9990 N.am  303  THR303     -0.1936
     68  CA       -26.5290   -7.4110  -23.5890 C.3   303  THR303      0.2028
     69  C        -26.7990   -7.4460  -25.0820 C.2   303  THR303      0.2643
     70  O        -27.0360   -8.5290  -25.6560 O.2   303  THR303     -0.2714
     71  CB       -27.4620   -8.4450  -22.9340 C.3   303  THR303      0.1808
     72  OG1      -28.8030   -7.9570  -22.9960 O.3   303  THR303     -0.2208
     73  CG2      -27.0720   -8.6720  -21.4820 C.3   303  THR303      0.0379
     74  N        -26.7330   -6.2920  -25.7400 N.am  304  SER304     -0.1935
     75  CA       -27.0910   -6.2060  -27.1490 C.3   304  SER304      0.2055
     76  C        -26.1550   -5.2730  -27.9310 C.2   304  SER304      0.2643
     77  O        -25.3730   -4.5320  -27.3510 O.2   304  SER304     -0.2714
     78  CB       -28.5390   -5.7420  -27.2640 C.3   304  SER304      0.2130
     79  OG       -28.6790   -4.5380  -26.5440 O.3   304  SER304     -0.2179
     80  N        -26.2210   -5.3580  -29.2590 N.am  305  ASP305     -0.1971
     81  CA       -25.5450   -4.4210  -30.1440 C.3   305  ASP305      0.1709
     82  C        -26.0030   -2.9750  -29.8200 C.2   305  ASP305      0.2293
     83  O        -27.0840   -2.7560  -29.2730 O.2   305  ASP305     -0.2864
     84  CB       -25.8830   -4.7770  -31.5980 C.3   305  ASP305      0.1436
     85  CG       -24.8520   -4.2590  -32.5860 C.2   305  ASP305      0.3671
     86  OD1      -24.1160   -3.2900  -32.2820 O.co2 305  ASP305     -0.2456
     87  OD2      -24.8120   -4.8190  -33.6840 O.co2 305  ASP305     -0.2456
@<TRIPOS>BOND
     1    87    85   ar
     2    85    86   ar
     3    85    84    1
     4    84    81    1
     5    81    82    1
     6    81    80    1
     7    82    83    2
     8    11    12    2
     9    11    10    1
    10    80    76   am
    11    20    21    1
    12    10    13    1
    13    10     9    1
    14    24    21    1
    15    24    25    1
    16    27    25   ar
    17    21    22    1
    18    13    14    1
    19    76    77    2
    20    76    75    1
    21    18    17    1
    22    25    26   ar
    23    14    15    1
    24    15    16    1
    25    78    75    1
    26    78    79    1
    27    75    74    1
    28    22    23    2
    29    22    28   am
    30    17    16    2
    31    17    19    1
    32    28    29    1
    33    74    69   am
    34    70    69    2
    35    69    68    1
    36    34    33    2
    37    29    32    1
    38    29    30    1
    39    65    64    1
    40    33    32    1
    41    33    35   am
    42     8     6   ar
    43     7     6   ar
    44    30    31    2
    45    68    67    1
    46    68    71    1
    47     6     5    1
    48     4     3    2
    49    64    66    1
    50    64    61    1
    51     3     2    1
    52    67    62   am
    53    72    71    1
    54    58    57    2
    55    71    73    1
    56    63    62    2
    57    62    61    1
    58    59    57   am
    59     5     2    1
    60    57    56    1
    61    61    60    1
    62     2     1    1
    63    60    54   am
    64    56    53    1
    65    54    53    1
    66    54    55    2
    67    36    37    1
    68    53    52    1
    69    40    37    1
    70    51    50   ar
    71    51    49   ar
    72    50    48   ar
    73    37    38    1
    74    49    47   ar
    75    38    39    2
    76    48    46   ar
    77    47    46   ar
    78    46    45    1
    79    45    42    1
    80    43    42    1
    81    43    44    2
    82    42    41    1
