@<TRIPOS>MOLECULE
tmp/5jilA10.pdb
 149 146 0 0 0
SMALL
GASTEIGER

@<TRIPOS>ATOM
      1  N        -22.2720  -18.7150   -5.4850 N.3    20  ASP20      -0.1225
      2  CA       -23.0290  -19.5520   -4.5550 C.3    20  ASP20       0.1805
      3  C        -24.1690  -18.7010   -3.9580 C.2    20  ASP20       0.2598
      4  O        -24.6000  -17.7450   -4.6110 O.2    20  ASP20      -0.2718
      5  CB       -22.0820  -20.1900   -3.5120 C.3    20  ASP20       0.1424
      6  CG       -21.2640  -19.1660   -2.7250 C.2    20  ASP20       0.3668
      7  OD1      -21.7170  -18.0190   -2.5180 O.co2  20  ASP20      -0.2456
      8  OD2      -20.1550  -19.5270   -2.2900 O.co2  20  ASP20      -0.2456
      9  N        -24.6650  -19.0200   -2.7550 N.am   21  ALA21      -0.1966
     10  CA       -25.7870  -18.2600   -2.1500 C.3    21  ALA21       0.1728
     11  C        -25.5600  -16.7540   -2.1290 C.2    21  ALA21       0.2616
     12  O        -26.4930  -15.9740   -2.3320 O.2    21  ALA21      -0.2715
     13  CB       -26.0770  -18.7340   -0.7360 C.3    21  ALA21       0.0334
     14  N        -24.3110  -16.3540   -1.9130 N.am   22  ARG22      -0.1977
     15  CA       -23.9590  -14.9340   -1.7980 C.3    22  ARG22       0.1597
     16  C        -24.1180  -14.1360   -3.1040 C.2    22  ARG22       0.2287
     17  O        -24.0360  -12.9070   -3.0850 O.2    22  ARG22      -0.2864
     18  CB       -22.5350  -14.8090   -1.2560 C.3    22  ARG22       0.0334
     19  CG       -22.3940  -15.3720    0.1550 C.3    22  ARG22       0.0492
     20  CD       -21.0160  -15.9430    0.4040 C.3    22  ARG22       0.2205
     21  NE       -20.7780  -16.2660    1.8130 N.pl3  22  ARG22      -0.0865
     22  CZ       -19.6200  -16.7160    2.2960 C.cat  22  ARG22       0.5346
     23  NH1      -18.5740  -16.9170    1.4940 N.pl3  22  ARG22       0.1354
     24  NH2      -19.4930  -16.9540    3.5980 N.pl3  22  ARG22       0.1354
     25  N        -32.8290  -17.6610   -4.0310 N.3    27  TYR27      -0.1241
     26  CA       -33.0330  -18.2600   -2.7030 C.3    27  TYR27       0.1605
     27  C        -34.2510  -17.6360   -1.9930 C.2    27  TYR27       0.2264
     28  O        -34.4870  -16.4320   -2.1100 O.2    27  TYR27      -0.2867
     29  CB       -31.7560  -18.0820   -1.8640 C.3    27  TYR27       0.0534
     30  CG       -31.8510  -18.5510   -0.4300 C.ar   27  TYR27      -0.0201
     31  CD1      -31.5930  -19.8810   -0.0860 C.ar   27  TYR27      -0.0009
     32  CD2      -32.1790  -17.6570    0.5920 C.ar   27  TYR27      -0.0009
     33  CE1      -31.6730  -20.3080    1.2370 C.ar   27  TYR27       0.0417
     34  CE2      -32.2700  -18.0740    1.9150 C.ar   27  TYR27       0.0417
     35  CZ       -32.0100  -19.3970    2.2330 C.ar   27  TYR27       0.1957
     36  OH       -32.0990  -19.7960    3.5450 O.3    27  TYR27      -0.2866
     37  N        -28.9820  -12.1100    2.5230 N.3    38  TRP38      -0.1241
     38  CA       -27.9070  -13.1000    2.3920 C.3    38  TRP38       0.1605
     39  C        -26.8870  -12.7390    1.2940 C.2    38  TRP38       0.2264
     40  O        -25.7950  -13.3110    1.2610 O.2    38  TRP38      -0.2867
     41  CB       -28.5040  -14.5020    2.1230 C.3    38  TRP38       0.0550
     42  CG       -29.2280  -14.5860    0.8070 C.ar   38  TRP38       0.0003
     43  CD1      -28.6800  -14.8800   -0.4030 C.ar   38  TRP38       0.0946
     44  CD2      -30.6200  -14.3330    0.5680 C.ar   38  TRP38       0.0152
     45  NE1      -29.6410  -14.8320   -1.3880 N.ar   38  TRP38      -0.2442
     46  CE2      -30.8420  -14.4960   -0.8190 C.ar   38  TRP38       0.0810
     47  CE3      -31.7050  -13.9870    1.3930 C.ar   38  TRP38       0.0012
     48  CZ2      -32.1030  -14.3320   -1.4010 C.ar   38  TRP38       0.0191
     49  CZ3      -32.9610  -13.8150    0.8100 C.ar   38  TRP38       0.0001
     50  CH2      -33.1470  -13.9930   -0.5740 C.ar   38  TRP38       0.0015
     51  N        -27.2920  -21.3690   -4.1910 N.3    55  SER55      -0.1202
     52  CA       -27.0940  -21.5460   -2.7580 C.3    55  SER55       0.2020
     53  C        -26.7440  -22.9960   -2.4400 C.2    55  SER55       0.2619
     54  O        -27.4000  -23.9240   -2.9250 O.2    55  SER55      -0.2717
     55  CB       -28.3380  -21.1230   -1.9740 C.3    55  SER55       0.2103
     56  OG       -28.2090  -21.4340   -0.5980 O.3    55  SER55      -0.2182
     57  N        -25.7010  -23.1670   -1.6320 N.am   56  GLY56      -0.1956
     58  CA       -25.2320  -24.4750   -1.2160 C.3    56  GLY56       0.1869
     59  C        -24.2820  -25.1790   -2.1710 C.2    56  GLY56       0.2309
     60  O        -23.8120  -26.2650   -1.8580 O.2    56  GLY56      -0.2863
     61  N        -18.1290  -28.9590   -6.2370 N.3    61  ARG61      -0.1245
     62  CA       -19.1930  -29.8020   -5.6980 C.3    61  ARG61       0.1563
     63  C        -20.0720  -30.4030   -6.8100 C.2    61  ARG61       0.2260
     64  O        -20.3230  -31.6160   -6.8210 O.2    61  ARG61      -0.2867
     65  CB       -20.0260  -28.9960   -4.7030 C.3    61  ARG61       0.0307
     66  CG       -21.0330  -29.7760   -3.8750 C.3    61  ARG61       0.0489
     67  CD       -21.6360  -28.8210   -2.8600 C.3    61  ARG61       0.2205
     68  NE       -22.6780  -29.4390   -2.0650 N.pl3  61  ARG61      -0.0865
     69  CZ       -22.6810  -29.6200   -0.7420 C.cat  61  ARG61       0.5346
     70  NH1      -21.6810  -29.2230    0.0460 N.pl3  61  ARG61       0.1354
     71  NH2      -23.7290  -30.2190   -0.1990 N.pl3  61  ARG61       0.1354
     72  N        -16.4730  -22.2190   -1.1810 N.3    84  VAL84      -0.1231
     73  CA       -16.6830  -22.4980    0.2410 C.3    84  VAL84       0.1692
     74  C        -17.5720  -23.7330    0.5090 C.2    84  VAL84       0.2592
     75  O        -17.4170  -24.3920    1.5340 O.2    84  VAL84      -0.2718
     76  CB       -17.2450  -21.2470    0.9790 C.3    84  VAL84       0.0266
     77  CG1      -18.7110  -21.0040    0.6440 C.3    84  VAL84       0.0020
     78  CG2      -17.0390  -21.3560    2.4840 C.3    84  VAL84       0.0020
     79  N        -18.4800  -24.0570   -0.4090 N.am   85  ASN85      -0.1974
     80  CA       -19.3650  -25.2130   -0.2240 C.3    85  ASN85       0.1688
     81  C        -18.7000  -26.5930   -0.4670 C.2    85  ASN85       0.2292
     82  O        -19.3910  -27.6100   -0.4890 O.2    85  ASN85      -0.2864
     83  CB       -20.6660  -25.0190   -1.0170 C.3    85  ASN85       0.1181
     84  CG       -21.5280  -23.9020   -0.4400 C.2    85  ASN85       0.2629
     85  OD1      -21.7460  -23.8420    0.7680 O.2    85  ASN85      -0.2716
     86  ND2      -22.0120  -23.0090   -1.2990 N.am   85  ASN85      -0.0877
     87  N        -16.7490  -29.2890    5.9860 N.3    90  HIS90      -0.1241
     88  CA       -17.5180  -30.4460    5.5250 C.3    90  HIS90       0.1621
     89  C        -16.8430  -31.7690    5.9200 C.2    90  HIS90       0.2264
     90  O        -17.5270  -32.7430    6.2030 O.2    90  HIS90      -0.2867
     91  CB       -17.7430  -30.3850    4.0100 C.3    90  HIS90       0.0745
     92  CG       -18.5620  -29.2080    3.5660 C.ar   90  HIS90       0.0817
     93  ND1      -18.0060  -27.9790    3.2850 N.ar   90  HIS90      -0.2268
     94  CD2      -19.8940  -29.0700    3.3630 C.ar   90  HIS90       0.1154
     95  CE1      -18.9580  -27.1330    2.9340 C.ar   90  HIS90       0.1986
     96  NE2      -20.1120  -27.7700    2.9660 N.ar   90  HIS90      -0.2212
     97  N        -15.8350  -19.1720    5.0340 N.3   284  TRP284     -0.1241
     98  CA       -16.8000  -18.9790    6.1130 C.3   284  TRP284      0.1605
     99  C        -16.2840  -17.9420    7.1250 C.2   284  TRP284      0.2264
    100  O        -15.0860  -17.6960    7.2130 O.2   284  TRP284     -0.2867
    101  CB       -17.0200  -20.2780    6.8930 C.3   284  TRP284      0.0550
    102  CG       -17.5330  -21.4720    6.1350 C.ar  284  TRP284      0.0003
    103  CD1      -16.9110  -22.6870    6.0150 C.ar  284  TRP284      0.0946
    104  CD2      -18.7870  -21.5970    5.4480 C.ar  284  TRP284      0.0152
    105  NE1      -17.6880  -23.5500    5.2830 N.ar  284  TRP284     -0.2442
    106  CE2      -18.8480  -22.9150    4.9270 C.ar  284  TRP284      0.0810
    107  CE3      -19.8560  -20.7220    5.2040 C.ar  284  TRP284      0.0012
    108  CZ2      -19.9390  -23.3790    4.1730 C.ar  284  TRP284      0.0191
    109  CZ3      -20.9480  -21.1850    4.4600 C.ar  284  TRP284      0.0001
    110  CH2      -20.9770  -22.5040    3.9540 C.ar  284  TRP284      0.0015
    111  N        -16.3380  -21.4820   11.5350 N.3   288  ARG288     -0.1245
    112  CA       -16.0850  -22.6910   10.7310 C.3   288  ARG288      0.1563
    113  C        -14.7060  -22.6720   10.0820 C.2   288  ARG288      0.2260
    114  O        -14.1270  -21.6090    9.8740 O.2   288  ARG288     -0.2867
    115  CB       -17.1250  -22.8290    9.6310 C.3   288  ARG288      0.0307
    116  CG       -18.5280  -23.1010   10.1180 C.3   288  ARG288      0.0489
    117  CD       -19.4600  -23.2010    8.9250 C.3   288  ARG288      0.2205
    118  NE       -20.8490  -23.3920    9.3380 N.pl3 288  ARG288     -0.0865
    119  CZ       -21.9150  -23.1690    8.5660 C.cat 288  ARG288      0.5346
    120  NH1      -21.7860  -22.7350    7.3110 N.pl3 288  ARG288      0.1354
    121  NH2      -23.1330  -23.3770    9.0600 N.pl3 288  ARG288      0.1354
    122  N        -28.4930  -11.8250    8.1550 N.3   317  HIS317     -0.1226
    123  CA       -29.0020  -13.1580    7.8070 C.3   317  HIS317      0.1752
    124  C        -28.4740  -14.2200    8.7820 C.2   317  HIS317      0.2596
    125  O        -29.2450  -14.9470    9.4070 O.2   317  HIS317     -0.2718
    126  CB       -28.6170  -13.4820    6.3540 C.3   317  HIS317      0.0759
    127  CG       -29.0060  -14.8560    5.9040 C.ar  317  HIS317      0.0818
    128  ND1      -30.2870  -15.1800    5.5190 N.ar  317  HIS317     -0.2268
    129  CD2      -28.2750  -15.9840    5.7560 C.ar  317  HIS317      0.1154
    130  CE1      -30.3320  -16.4490    5.1600 C.ar  317  HIS317      0.1986
    131  NE2      -29.1250  -16.9610    5.2990 N.ar  317  HIS317     -0.2212
    132  N        -27.1530  -14.2930    8.8780 N.am  318  ASP318     -0.1974
    133  CA       -26.4320  -15.0750    9.8920 C.3   318  ASP318      0.1709
    134  C        -24.9620  -14.6670    9.7750 C.2   318  ASP318      0.2293
    135  O        -24.6330  -13.8280    8.9390 O.2   318  ASP318     -0.2864
    136  CB       -26.6240  -16.5970    9.7070 C.3   318  ASP318      0.1436
    137  CG       -26.2360  -17.0930    8.3240 C.2   318  ASP318      0.3671
    138  OD1      -25.2960  -16.5570    7.6950 O.co2 318  ASP318     -0.2456
    139  OD2      -26.8690  -18.0650    7.8650 O.co2 318  ASP318     -0.2456
    140  N        -23.2790  -14.9190    5.9010 N.3   321  HIS321     -0.1241
    141  CA       -23.8400  -14.2700    4.7000 C.3   321  HIS321      0.1621
    142  C        -24.0870  -12.7830    4.8730 C.2   321  HIS321      0.2264
    143  O        -24.7640  -12.3830    5.8190 O.2   321  HIS321     -0.2867
    144  CB       -25.1670  -14.9130    4.3390 C.3   321  HIS321      0.0745
    145  CG       -25.0490  -16.3570    3.9920 C.ar  321  HIS321      0.0817
    146  ND1      -25.0260  -17.3580    4.9400 N.ar  321  HIS321     -0.2268
    147  CD2      -24.9090  -16.9650    2.7940 C.ar  321  HIS321      0.1154
    148  CE1      -24.8900  -18.5250    4.3360 C.ar  321  HIS321      0.1986
    149  NE2      -24.8220  -18.3100    3.0340 N.ar  321  HIS321     -0.2212
@<TRIPOS>BOND
     1    64    63    2
     2    63    62    1
     3    61    62    1
     4    62    65    1
     5     1     2    1
     6    65    66    1
     7     4     3    2
     8     2     3    1
     9     2     5    1
    10    51    52    1
    11    25    26    1
    12     3     9   am
    13    66    67    1
    14     5     6    1
    15    16    17    2
    16    16    15    1
    17    54    53    2
    18    67    68    1
    19    52    53    1
    20    52    55    1
    21     9    10    1
    22     6     7   ar
    23     6     8   ar
    24    26    27    1
    25    26    29    1
    26    53    57   am
    27    12    11    2
    28    59    60    2
    29    59    58    1
    30    10    11    1
    31    10    13    1
    32    11    14   am
    33    28    27    2
    34    68    69    2
    35    55    56    1
    36    14    15    1
    37    29    30    1
    38    15    18    1
    39    57    58    1
    40    48    46   ar
    41    48    50   ar
    42    45    46   ar
    43    45    43   ar
    44    86    84   am
    45    18    19    1
    46    72    73    1
    47    83    84    1
    48    83    80    1
    49    46    44   ar
    50    69    71    1
    51    69    70    1
    52    50    49   ar
    53    82    81    2
    54    81    80    1
    55    84    85    2
    56    30    31   ar
    57    30    32   ar
    58    79    80    1
    59    79    74   am
    60    43    42   ar
    61    31    33   ar
    62    19    20    1
    63    73    74    1
    64    73    76    1
    65    20    21    1
    66    74    75    2
    67    44    42   ar
    68    44    47   ar
    69    32    34   ar
    70    77    76    1
    71    42    41    1
    72    49    47   ar
    73    76    78    1
    74    33    35   ar
    75    40    39    2
    76    39    38    1
    77    23    22    1
    78    21    22    2
    79    34    35   ar
    80    41    38    1
    81    35    36    1
    82    22    24    1
    83    38    37    1
    84   147   149   ar
    85   147   145   ar
    86    95    96   ar
    87    95    93   ar
    88    96    94   ar
    89   149   148   ar
    90    93    92   ar
    91    94    92   ar
    92    92    91    1
    93   110   108   ar
    94   110   109   ar
    95   145   144    1
    96   145   146   ar
    97    91    88    1
    98   108   106   ar
    99   148   146   ar
   100   144   141    1
   101   109   107   ar
   102   141   142    1
   103   141   140    1
   104   142   143    2
   105   106   105   ar
   106   106   104   ar
   107    97    98    1
   108   130   131   ar
   109   130   128   ar
   110   107   104   ar
   111   105   103   ar
   112   131   129   ar
   113   104   102   ar
   114   128   127   ar
   115    88    89    1
   116    88    87    1
   117   129   127   ar
   118   127   126    1
   119    89    90    2
   120   103   102   ar
   121    98   101    1
   122    98    99    1
   123   102   101    1
   124   126   123    1
   125    99   100    2
   126   120   119    1
   127   138   137   ar
   128   123   122    1
   129   123   124    1
   130   139   137   ar
   131   137   136    1
   132   119   121    1
   133   119   118    2
   134   124   132   am
   135   124   125    2
   136   132   133    1
   137   117   118    1
   138   117   116    1
   139   135   134    2
   140   115   116    1
   141   115   112    1
   142   136   133    1
   143   134   133    1
   144   114   113    2
   145   113   112    1
   146   112   111    1
