@<TRIPOS>MOLECULE
tmp/5jilA00.pdb
 113 107 0 0 0
SMALL
GASTEIGER

@<TRIPOS>ATOM
      1  N        -13.8200  -42.6890    2.6850 N.3    95  LEU95      -0.1245
      2  CA       -13.8480  -43.8120    3.6170 C.3    95  LEU95       0.1561
      3  C        -13.6740  -43.3330    5.0460 C.2    95  LEU95       0.2260
      4  O        -13.1860  -42.2260    5.2780 O.2    95  LEU95      -0.2867
      5  CB       -12.7060  -44.7730    3.3000 C.3    95  LEU95       0.0270
      6  CG       -12.6020  -45.2940    1.8700 C.3    95  LEU95       0.0019
      7  CD1      -11.3510  -46.1410    1.7520 C.3    95  LEU95       0.0001
      8  CD2      -13.8200  -46.1260    1.5050 C.3    95  LEU95       0.0001
      9  N        -21.1930  -48.6050   -8.7260 N.3   140  THR140     -0.1218
     10  CA       -21.2650  -48.7280   -7.2600 C.3   140  THR140      0.1862
     11  C        -20.7490  -47.4350   -6.6140 C.2   140  THR140      0.2287
     12  O        -19.7650  -46.8510   -7.0890 O.2   140  THR140     -0.2866
     13  CB       -20.4830  -49.9560   -6.7360 C.3   140  THR140      0.1770
     14  OG1      -20.5530  -49.9990   -5.3070 O.3   140  THR140     -0.2211
     15  CG2      -19.0030  -49.9360   -7.1660 C.3   140  THR140      0.0375
     16  N        -18.8260  -46.2130   -4.2290 N.3   142  ILE142     -0.1245
     17  CA       -17.6980  -46.5090   -3.3450 C.3   142  ILE142      0.1561
     18  C        -17.2400  -45.3180   -2.4860 C.2   142  ILE142      0.2260
     19  O        -16.6570  -45.5170   -1.4230 O.2   142  ILE142     -0.2867
     20  CB       -16.4830  -47.0480   -4.1530 C.3   142  ILE142      0.0252
     21  CG1      -15.4400  -47.6640   -3.2170 C.3   142  ILE142      0.0019
     22  CG2      -15.8490  -45.9560   -5.0190 C.3   142  ILE142      0.0019
     23  CD1      -14.4860  -48.6110   -3.9020 C.3   142  ILE142      0.0001
     24  N        -10.1060  -58.9930   -7.0150 N.3   165  TYR165     -0.1241
     25  CA        -9.9440  -57.7350   -7.7590 C.3   165  TYR165      0.1605
     26  C         -8.6260  -57.6120   -8.5650 C.2   165  TYR165      0.2264
     27  O         -8.2540  -56.5080   -8.9850 O.2   165  TYR165     -0.2867
     28  CB       -10.1740  -56.5300   -6.8210 C.3   165  TYR165      0.0534
     29  CG       -11.6040  -56.4240   -6.3180 C.ar  165  TYR165     -0.0201
     30  CD1      -12.0490  -57.1870   -5.2330 C.ar  165  TYR165     -0.0009
     31  CD2      -12.5180  -55.5790   -6.9380 C.ar  165  TYR165     -0.0009
     32  CE1      -13.3580  -57.0970   -4.7810 C.ar  165  TYR165      0.0417
     33  CE2      -13.8260  -55.4810   -6.4880 C.ar  165  TYR165      0.0417
     34  CZ       -14.2450  -56.2400   -5.4140 C.ar  165  TYR165      0.1957
     35  OH       -15.5490  -56.1280   -4.9880 O.3   165  TYR165     -0.2866
     36  N         -7.4810  -44.7540   -5.9230 N.3   188  PHE188     -0.1241
     37  CA        -7.3080  -44.9480   -4.4960 C.3   188  PHE188      0.1605
     38  C         -5.8300  -45.2710   -4.3150 C.2   188  PHE188      0.2264
     39  O         -5.3850  -46.3520   -4.6710 O.2   188  PHE188     -0.2867
     40  CB        -8.1920  -46.0850   -3.9950 C.3   188  PHE188      0.0534
     41  CG        -9.6420  -45.7270   -3.9340 C.ar  188  PHE188     -0.0203
     42  CD1      -10.1120  -44.9070   -2.9170 C.ar  188  PHE188     -0.0042
     43  CD2      -10.5390  -46.1960   -4.8870 C.ar  188  PHE188     -0.0042
     44  CE1      -11.4490  -44.5630   -2.8380 C.ar  188  PHE188     -0.0003
     45  CE2      -11.8870  -45.8550   -4.8160 C.ar  188  PHE188     -0.0003
     46  CZ       -12.3380  -45.0310   -3.7850 C.ar  188  PHE188     -0.0000
     47  N         -6.0050  -50.8820   -1.1030 N.3   192  SER192     -0.1202
     48  CA        -7.4640  -50.9810   -1.1490 C.3   192  SER192      0.2020
     49  C         -7.9380  -52.3740   -0.7270 C.2   192  SER192      0.2619
     50  O         -7.1820  -53.3500   -0.8080 O.2   192  SER192     -0.2717
     51  CB        -7.9860  -50.6760   -2.5550 C.3   192  SER192      0.2103
     52  OG        -7.7880  -49.3190   -2.8940 O.3   192  SER192     -0.2182
     53  N         -9.1960  -52.4460   -0.2910 N.am  193  ARG193     -0.1965
     54  CA        -9.8170  -53.6930    0.1580 C.3   193  ARG193      0.1729
     55  C        -10.9900  -54.0710   -0.7420 C.2   193  ARG193      0.2617
     56  O        -11.7840  -53.2090   -1.1400 O.2   193  ARG193     -0.2715
     57  CB       -10.3100  -53.5540    1.5980 C.3   193  ARG193      0.0348
     58  CG        -9.2040  -53.3850    2.6230 C.3   193  ARG193      0.0492
     59  CD        -8.5280  -54.7000    2.9430 C.3   193  ARG193      0.2205
     60  NE        -9.3880  -55.5490    3.7700 N.pl3 193  ARG193     -0.0865
     61  CZ        -9.1260  -56.8070    4.1110 C.cat 193  ARG193      0.5346
     62  NH1       -8.0180  -57.4230    3.6950 N.pl3 193  ARG193      0.1354
     63  NH2       -9.9960  -57.4610    4.8760 N.pl3 193  ARG193      0.1354
     64  N        -11.0830  -55.3630   -1.0510 N.am  194  GLY194     -0.1940
     65  CA       -12.2300  -55.9370   -1.7490 C.3   194  GLY194      0.2014
     66  C        -13.4230  -56.0570   -0.8200 C.2   194  GLY194      0.2640
     67  O        -14.5090  -55.5680   -1.1310 O.2   194  GLY194     -0.2714
     68  N        -13.2190  -56.7000    0.3280 N.am  195  SER195     -0.1935
     69  CA       -14.2690  -56.8080    1.3460 C.3   195  SER195      0.2055
     70  C        -13.7080  -57.0350    2.7480 C.2   195  SER195      0.2643
     71  O        -12.5990  -57.5560    2.9080 O.2   195  SER195     -0.2714
     72  CB       -15.2500  -57.9280    0.9930 C.3   195  SER195      0.2130
     73  OG       -14.6410  -59.1950    1.1270 O.3   195  SER195     -0.2179
     74  N        -14.5140  -56.6660    3.7470 N.am  196  SER196     -0.1949
     75  CA       -14.1340  -56.7580    5.1660 C.3   196  SER196      0.1924
     76  C        -13.7560  -58.1660    5.6080 C.2   196  SER196      0.2314
     77  O        -12.9310  -58.3250    6.5030 O.2   196  SER196     -0.2863
     78  CB       -15.2630  -56.2420    6.0690 C.3   196  SER196      0.2116
     79  OG       -15.4050  -54.8390    5.9670 O.3   196  SER196     -0.2180
     80  N         -7.0550  -48.7960    4.8410 N.3   229  THR229     -0.1218
     81  CA        -8.4620  -48.6000    5.2010 C.3   229  THR229      0.1862
     82  C         -8.7600  -48.8960    6.6670 C.2   229  THR229      0.2287
     83  O         -9.9190  -48.8550    7.0790 O.2   229  THR229     -0.2866
     84  CB        -9.3500  -49.5330    4.3570 C.3   229  THR229      0.1770
     85  OG1       -8.9110  -50.8750    4.5480 O.3   229  THR229     -0.2211
     86  CG2       -9.2550  -49.1810    2.8840 C.3   229  THR229      0.0375
     87  N         -5.9140  -43.9450    3.3480 N.3   236  LEU236     -0.1245
     88  CA        -6.3180  -44.1920    1.9630 C.3   236  LEU236      0.1561
     89  C         -7.5310  -43.3390    1.6000 C.2   236  LEU236      0.2260
     90  O         -8.5300  -43.3420    2.3120 O.2   236  LEU236     -0.2867
     91  CB        -6.6470  -45.6740    1.7310 C.3   236  LEU236      0.0270
     92  CG        -7.1050  -46.0680    0.3210 C.3   236  LEU236      0.0019
     93  CD1       -6.0490  -45.7200   -0.7170 C.3   236  LEU236      0.0001
     94  CD2       -7.4550  -47.5450    0.2630 C.3   236  LEU236      0.0001
     95  N         -8.0700  -53.5290   -9.2290 N.3   257  PHE257     -0.1227
     96  CA        -9.1890  -52.9530   -8.4540 C.3   257  PHE257      0.1736
     97  C        -10.3450  -52.5150   -9.3850 C.2   257  PHE257      0.2595
     98  O        -10.5520  -53.1530  -10.4110 O.2   257  PHE257     -0.2718
     99  CB        -8.6940  -51.8520   -7.4790 C.3   257  PHE257      0.0547
    100  CG        -9.5640  -51.6840   -6.2450 C.ar  257  PHE257     -0.0202
    101  CD1       -9.8330  -52.7630   -5.4030 C.ar  257  PHE257     -0.0042
    102  CD2      -10.1060  -50.4420   -5.9170 C.ar  257  PHE257     -0.0042
    103  CE1      -10.6340  -52.6070   -4.2770 C.ar  257  PHE257     -0.0003
    104  CE2      -10.9110  -50.2870   -4.7940 C.ar  257  PHE257     -0.0003
    105  CZ       -11.1780  -51.3700   -3.9770 C.ar  257  PHE257     -0.0000
    106  N        -11.0990  -51.4690   -9.0420 N.am  258  LEU258     -0.1980
    107  CA       -12.3340  -51.1290   -9.7540 C.3   258  LEU258      0.1596
    108  C        -12.0420  -50.2160  -10.9360 C.2   258  LEU258      0.2287
    109  O        -11.1590  -49.3590  -10.8560 O.2   258  LEU258     -0.2864
    110  CB       -13.3190  -50.4110   -8.8230 C.3   258  LEU258      0.0297
    111  CG       -13.8410  -51.1930   -7.6150 C.3   258  LEU258      0.0022
    112  CD1      -14.7440  -50.3110   -6.7760 C.3   258  LEU258      0.0001
    113  CD2      -14.5990  -52.4230   -8.0520 C.3   258  LEU258      0.0001
@<TRIPOS>BOND
     1   108   109    2
     2   108   107    1
     3    98    97    2
     4   107   106    1
     5   107   110    1
     6    97   106   am
     7    97    96    1
     8    95    96    1
     9    27    26    2
    10   110   111    1
    11     9    10    1
    12    26    25    1
    13    96    99    1
    14   113   111    1
    15    25    24    1
    16    25    28    1
    17   111   112    1
    18    99   100    1
    19    10    13    1
    20    10    11    1
    21    15    13    1
    22    12    11    2
    23    31    33   ar
    24    31    29   ar
    25    28    29    1
    26    13    14    1
    27    33    34   ar
    28    29    30   ar
    29   100   102   ar
    30   100   101   ar
    31    36    37    1
    32   102   104   ar
    33    34    35    1
    34    34    32   ar
    35   101   103   ar
    36    30    32   ar
    37    22    20    1
    38    43    45   ar
    39    43    41   ar
    40    45    46   ar
    41   104   105   ar
    42    39    38    2
    43    37    38    1
    44    37    40    1
    45   103   105   ar
    46    16    17    1
    47    20    17    1
    48    20    21    1
    49    40    41    1
    50    41    42   ar
    51    23    21    1
    52    46    44   ar
    53    17    18    1
    54    42    44   ar
    55    52    51    1
    56    51    48    1
    57    18    19    2
    58    65    64    1
    59    65    66    1
    60    48    47    1
    61    48    49    1
    62    56    55    2
    63    67    66    2
    64    64    55   am
    65    66    68   am
    66    50    49    2
    67    55    54    1
    68    49    53   am
    69    93    92    1
    70    53    54    1
    71    54    57    1
    72    94    92    1
    73    92    91    1
    74    68    69    1
    75    72    73    1
    76    72    69    1
    77    69    70    1
    78     8     6    1
    79    57    58    1
    80    89    88    1
    81    89    90    2
    82    91    88    1
    83     7     6    1
    84     6     5    1
    85    88    87    1
    86    58    59    1
    87     1     2    1
    88    70    71    2
    89    70    74   am
    90    86    84    1
    91    59    60    1
    92     5     2    1
    93     2     3    1
    94    62    61    1
    95    74    75    1
    96    60    61    2
    97    61    63    1
    98    84    85    1
    99    84    81    1
   100    80    81    1
   101     3     4    2
   102    75    76    1
   103    75    78    1
   104    81    82    1
   105    76    77    2
   106    79    78    1
   107    82    83    2
