@<TRIPOS>MOLECULE
tmp/5jilA06.pdb
 77 72 0 0 0
SMALL
GASTEIGER

@<TRIPOS>ATOM
      1  N        -11.9190  -14.6810   -2.8770 N.3   281  ASP281     -0.1239
      2  CA       -11.7720  -15.6640   -1.7940 C.3   281  ASP281      0.1674
      3  C        -13.1460  -16.0570   -1.2520 C.2   281  ASP281      0.2266
      4  O        -13.9740  -15.1950   -0.9680 O.2   281  ASP281     -0.2867
      5  CB       -10.9000  -15.0920   -0.6650 C.3   281  ASP281      0.1410
      6  CG       -10.4550  -16.1410    0.3520 C.2   281  ASP281      0.3668
      7  OD1      -10.4930  -17.3700    0.0680 O.co2 281  ASP281     -0.2456
      8  OD2      -10.0350  -15.7170    1.4500 O.co2 281  ASP281     -0.2456
      9  N        -14.8680  -18.1060    1.6620 N.3   283  ARG283     -0.1245
     10  CA       -14.6330  -18.6660    2.9950 C.3   283  ARG283      0.1563
     11  C        -15.7990  -18.4020    3.9470 C.2   283  ARG283      0.2260
     12  O        -16.6440  -17.5340    3.6930 O.2   283  ARG283     -0.2867
     13  CB       -13.3320  -18.1020    3.5870 C.3   283  ARG283      0.0307
     14  CG       -13.2290  -16.5730    3.5880 C.3   283  ARG283      0.0489
     15  CD       -11.8620  -16.1140    4.0850 C.3   283  ARG283      0.2205
     16  NE       -11.5620  -14.7180    3.7320 N.pl3 283  ARG283     -0.0865
     17  CZ       -11.8490  -13.6410    4.4730 C.cat 283  ARG283      0.5346
     18  NH1      -12.4800  -13.7350    5.6420 N.pl3 283  ARG283      0.1354
     19  NH2      -11.4950  -12.4370    4.0300 N.pl3 283  ARG283      0.1354
     20  N         -7.5680  -22.3380    1.7940 N.3   292  ASN292     -0.1240
     21  CA        -7.0760  -21.4050    0.7680 C.3   292  ASN292      0.1653
     22  C         -6.7180  -22.1000   -0.5760 C.2   292  ASN292      0.2266
     23  O         -5.8520  -21.6310   -1.3120 O.2   292  ASN292     -0.2867
     24  CB        -5.8890  -20.5900    1.3080 C.3   292  ASN292      0.1155
     25  CG        -4.6470  -21.4280    1.5500 C.2   292  ASN292      0.2627
     26  OD1       -4.7090  -22.6570    1.5780 O.2   292  ASN292     -0.2716
     27  ND2       -3.5050  -20.7620    1.7210 N.am  292  ASN292     -0.0877
     28  N         -6.8910  -20.0300   -3.6780 N.3   295  ALA295     -0.1245
     29  CA        -5.7230  -19.1280   -3.7280 C.3   295  ALA295      0.1562
     30  C         -4.4960  -19.8540   -4.2620 C.2   295  ALA295      0.2260
     31  O         -3.7560  -19.3030   -5.0750 O.2   295  ALA295     -0.2867
     32  CB        -5.4280  -18.5180   -2.3620 C.3   295  ALA295      0.0290
     33  N         -6.3110  -12.8520   -7.8480 N.3   305  PHE305     -0.1241
     34  CA        -7.0040  -13.2050   -6.6120 C.3   305  PHE305      0.1605
     35  C         -7.3320  -11.9390   -5.8010 C.2   305  PHE305      0.2264
     36  O         -6.4760  -11.0660   -5.6540 O.2   305  PHE305     -0.2867
     37  CB        -6.1240  -14.1370   -5.7900 C.3   305  PHE305      0.0534
     38  CG        -6.8520  -14.8180   -4.6690 C.ar  305  PHE305     -0.0203
     39  CD1       -7.6680  -15.9200   -4.9250 C.ar  305  PHE305     -0.0042
     40  CD2       -6.7260  -14.3650   -3.3600 C.ar  305  PHE305     -0.0042
     41  CE1       -8.3530  -16.5550   -3.8990 C.ar  305  PHE305     -0.0003
     42  CE2       -7.4070  -15.0010   -2.3250 C.ar  305  PHE305     -0.0003
     43  CZ        -8.2180  -16.0980   -2.5970 C.ar  305  PHE305     -0.0000
     44  N         -9.1530  -10.5070   -2.0490 N.3   307  ASN307     -0.1225
     45  CA        -9.5380  -10.8740   -0.6910 C.3   307  ASN307      0.1785
     46  C         -9.6980   -9.6070    0.1550 C.2   307  ASN307      0.2598
     47  O         -9.1060   -8.5790   -0.1650 O.2   307  ASN307     -0.2718
     48  CB        -8.4660  -11.7800   -0.0840 C.3   307  ASN307      0.1169
     49  CG        -8.9080  -12.4470    1.2090 C.2   307  ASN307      0.2627
     50  OD1      -10.1080  -12.5270    1.5100 O.2   307  ASN307     -0.2716
     51  ND2       -7.9290  -12.9430    1.9810 N.am  307  ASN307     -0.0877
     52  N        -10.4970   -9.6940    1.2160 N.am  308  THR308     -0.1939
     53  CA       -10.6340   -8.6030    2.1910 C.3   308  THR308      0.2028
     54  C         -9.5840   -8.7550    3.2890 C.2   308  THR308      0.2643
     55  O         -8.8230   -9.7270    3.2960 O.2   308  THR308     -0.2714
     56  CB       -12.0430   -8.5500    2.8360 C.3   308  THR308      0.1808
     57  OG1      -12.1930   -9.6140    3.7900 O.3   308  THR308     -0.2208
     58  CG2      -13.1530   -8.6140    1.7860 C.3   308  THR308      0.0379
     59  N         -9.5740   -7.7970    4.2200 N.am  309  SER309     -0.1935
     60  CA        -8.6270   -7.7830    5.3370 C.3   309  SER309      0.2055
     61  C         -9.2590   -8.2160    6.6670 C.2   309  SER309      0.2643
     62  O         -8.6690   -8.0270    7.7280 O.2   309  SER309     -0.2714
     63  CB        -8.0340   -6.3790    5.4750 C.3   309  SER309      0.2130
     64  OG        -9.0560   -5.4080    5.5880 O.3   309  SER309     -0.2179
     65  N        -10.4530   -8.8110    6.6180 N.am  310  ALA310     -0.1963
     66  CA       -11.1930   -9.1520    7.8400 C.3   310  ALA310      0.1728
     67  C        -11.8340  -10.5340    7.8020 C.2   310  ALA310      0.2616
     68  O        -11.9460  -11.1640    6.7490 O.2   310  ALA310     -0.2715
     69  CB       -12.2690   -8.1030    8.0940 C.3   310  ALA310      0.0334
     70  N        -12.2890  -10.9670    8.9730 N.am  311  ASP311     -0.1971
     71  CA       -13.1280  -12.1570    9.0920 C.3   311  ASP311      0.1709
     72  C        -14.4060  -11.9370    8.2760 C.2   311  ASP311      0.2293
     73  O        -14.8210  -10.7910    8.0770 O.2   311  ASP311     -0.2864
     74  CB       -13.4700  -12.4140   10.5690 C.3   311  ASP311      0.1436
     75  CG       -13.8300  -13.8650   10.8590 C.2   311  ASP311      0.3671
     76  OD1      -14.1150  -14.6470    9.9290 O.co2 311  ASP311     -0.2456
     77  OD2      -13.8290  -14.2330   12.0450 O.co2 311  ASP311     -0.2456
@<TRIPOS>BOND
     1    33    34    1
     2    34    35    1
     3    34    37    1
     4    35    36    2
     5    37    38    1
     6    31    30    2
     7    39    38   ar
     8    39    41   ar
     9    38    40   ar
    10    30    29    1
    11    41    43   ar
    12    29    28    1
    13    29    32    1
    14    40    42   ar
    15     1     2    1
    16    43    42   ar
    17    44    45    1
    18     2     3    1
    19     2     5    1
    20    23    22    2
    21     3     4    2
    22    45    48    1
    23    45    46    1
    24     5     6    1
    25    22    21    1
    26    47    46    2
    27    48    49    1
    28     7     6   ar
    29    46    52   am
    30     6     8   ar
    31    21    24    1
    32    21    20    1
    33    49    50    2
    34    49    51   am
    35    52    53    1
    36    24    25    1
    37    25    26    2
    38    25    27   am
    39     9    10    1
    40    58    56    1
    41    53    56    1
    42    53    54    1
    43    56    57    1
    44    10    13    1
    45    10    11    1
    46    54    55    2
    47    54    59   am
    48    13    14    1
    49    14    15    1
    50    12    11    2
    51    16    15    1
    52    16    17    2
    53    19    17    1
    54    59    60    1
    55    17    18    1
    56    60    63    1
    57    60    61    1
    58    63    64    1
    59    65    61   am
    60    65    66    1
    61    61    62    2
    62    68    67    2
    63    67    66    1
    64    67    70   am
    65    66    69    1
    66    73    72    2
    67    72    71    1
    68    70    71    1
    69    71    74    1
    70    76    75   ar
    71    74    75    1
    72    75    77   ar
