@<TRIPOS>MOLECULE
tmp/5jimB00.pdb
 77 70 0 0 0
SMALL
GASTEIGER

@<TRIPOS>ATOM
      1  N         -3.5360   10.8070   32.6210 N.3     4  MET4       -0.1245
      2  CA        -2.2410   10.1710   32.7270 C.3     4  MET4        0.1570
      3  C         -1.7440    9.8940   31.3220 C.2     4  MET4        0.2261
      4  O         -2.5310    9.5780   30.4330 O.2     4  MET4       -0.2867
      5  CB        -2.3630    8.8630   33.5110 C.3     4  MET4        0.0387
      6  CG        -1.0070    8.2620   33.8940 C.3     4  MET4        0.0595
      7  SD        -0.2850    7.1410   32.6820 S.3     4  MET4       -0.1393
      8  CE        -1.1650    5.6560   33.1260 C.3     4  MET4        0.0692
      9  N          1.2760    7.7450   29.1800 N.3     6  LYS6       -0.1245
     10  CA         2.2400    6.6470   29.2470 C.3     6  LYS6        0.1561
     11  C          2.9050    6.5000   27.8870 C.2     6  LYS6        0.2260
     12  O          2.2130    6.4750   26.8660 O.2     6  LYS6       -0.2867
     13  CB         1.5460    5.3510   29.6480 C.3     6  LYS6        0.0271
     14  CG         2.5330    4.1960   29.7750 C.3     6  LYS6        0.0035
     15  CD         2.2680    3.3280   30.9440 C.3     6  LYS6        0.0206
     16  CE         3.3950    2.3220   31.1400 C.3     6  LYS6        0.1093
     17  NZ         3.1490    1.5400   32.3670 N.3     6  LYS6       -0.1314
     18  N          5.9650    4.3850   25.6400 N.3     8  LEU8       -0.1245
     19  CA         6.8220    3.2250   25.4920 C.3     8  LEU8        0.1561
     20  C          7.6950    3.3490   24.2440 C.2     8  LEU8        0.2260
     21  O          7.3340    4.0210   23.2780 O.2     8  LEU8       -0.2867
     22  CB         5.9890    1.9420   25.3990 C.3     8  LEU8        0.0270
     23  CG         5.1410    1.5540   26.6100 C.3     8  LEU8        0.0019
     24  CD1        4.4020    0.2640   26.3250 C.3     8  LEU8        0.0001
     25  CD2        5.9570    1.4400   27.8920 C.3     8  LEU8        0.0001
     26  N         -6.4140    7.7810   30.1830 N.3    97  THR97      -0.1218
     27  CA        -5.0260    7.3770   29.9570 C.3    97  THR97       0.1862
     28  C         -4.7380    7.5000   28.4720 C.2    97  THR97       0.2287
     29  O         -5.4320    6.8990   27.6510 O.2    97  THR97      -0.2866
     30  CB        -4.7690    5.9450   30.4210 C.3    97  THR97       0.1770
     31  OG1       -5.0120    5.8670   31.8210 O.3    97  THR97      -0.2211
     32  CG2       -3.3260    5.5120   30.1340 C.3    97  THR97       0.0375
     33  N         -1.9030    6.6530   25.8570 N.3    99  ALA99      -0.1231
     34  CA        -0.7080    5.8320   25.7170 C.3    99  ALA99       0.1694
     35  C         -0.1530    5.9890   24.3190 C.2    99  ALA99       0.2592
     36  O         -0.9090    6.1220   23.3530 O.2    99  ALA99      -0.2718
     37  CB        -1.0100    4.3720   26.0030 C.3    99  ALA99       0.0304
     38  N          1.1620    5.9810   24.2060 N.am  100  ALA100     -0.1966
     39  CA         1.8410    6.0610   22.9240 C.3   100  ALA100      0.1728
     40  C          3.0130    5.0890   22.9060 C.2   100  ALA100      0.2616
     41  O          3.7520    4.9770   23.8920 O.2   100  ALA100     -0.2715
     42  CB         2.3300    7.4630   22.6520 C.3   100  ALA100      0.0334
     43  N          3.1740    4.4190   21.7720 N.am  101  LEU101     -0.1977
     44  CA         4.2870    3.5030   21.4990 C.3   101  LEU101      0.1596
     45  C          5.0820    4.1080   20.3520 C.2   101  LEU101      0.2287
     46  O          4.5320    4.3250   19.2670 O.2   101  LEU101     -0.2864
     47  CB         3.7480    2.1430   21.0950 C.3   101  LEU101      0.0297
     48  CG         4.8040    1.1040   20.7190 C.3   101  LEU101      0.0022
     49  CD1        5.6930    0.7210   21.9050 C.3   101  LEU101      0.0001
     50  CD2        4.1320   -0.1350   20.1440 C.3   101  LEU101      0.0001
     51  N          2.0270    4.6620   17.5420 N.3   108  SER108     -0.1202
     52  CA         0.6750    4.2100   17.7910 C.3   108  SER108      0.2020
     53  C          0.2110    4.8710   19.0680 C.2   108  SER108      0.2619
     54  O          0.9810    5.0120   20.0080 O.2   108  SER108     -0.2717
     55  CB         0.6230    2.6930   17.9470 C.3   108  SER108      0.2103
     56  OG         0.9800    2.0420   16.7430 O.3   108  SER108     -0.2182
     57  N         -1.0510    5.2560   19.1110 N.am  109  THR109     -0.1938
     58  CA        -1.6050    5.8520   20.3020 C.3   109  THR109      0.2028
     59  C         -2.9950    5.3290   20.5400 C.2   109  THR109      0.2642
     60  O         -3.7410    5.0930   19.5880 O.2   109  THR109     -0.2714
     61  CB        -1.5690    7.3870   20.2120 C.3   109  THR109      0.1808
     62  OG1       -1.9460    7.9490   21.4530 O.3   109  THR109     -0.2208
     63  CG2       -2.4640    7.9340   19.1190 C.3   109  THR109      0.0379
     64  N         -3.3320    5.1550   21.8100 N.am  110  THR110     -0.1950
     65  CA        -4.6610    4.7570   22.1890 C.3   110  THR110      0.1897
     66  C         -5.0750    5.5170   23.4280 C.2   110  THR110      0.2313
     67  O         -4.2650    6.1260   24.1180 O.2   110  THR110     -0.2863
     68  CB        -4.8050    3.2230   22.3750 C.3   110  THR110      0.1794
     69  OG1       -6.1900    2.8830   22.3090 O.3   110  THR110     -0.2208
     70  CG2       -4.2030    2.7320   23.6860 C.3   110  THR110      0.0378
     71  N         -7.5620    5.0210   26.9720 N.3   112  VAL112     -0.1245
     72  CA        -8.4100    4.2480   27.8600 C.3   112  VAL112      0.1561
     73  C         -9.1780    5.2540   28.6950 C.2   112  VAL112      0.2260
     74  O         -8.5760    6.0880   29.3800 O.2   112  VAL112     -0.2867
     75  CB        -7.5850    3.3060   28.7600 C.3   112  VAL112      0.0252
     76  CG1       -8.5200    2.5250   29.7060 C.3   112  VAL112      0.0019
     77  CG2       -6.7560    2.3660   27.9090 C.3   112  VAL112      0.0019
@<TRIPOS>BOND
     1    56    55    1
     2    51    52    1
     3    52    55    1
     4    52    53    1
     5    53    57   am
     6    53    54    2
     7    57    58    1
     8    63    61    1
     9    46    45    2
    10    60    59    2
    11    50    48    1
    12    61    58    1
    13    61    62    1
    14    58    59    1
    15    45    44    1
    16    59    64   am
    17    48    47    1
    18    48    49    1
    19    47    44    1
    20    44    43    1
    21    43    40   am
    22    64    65    1
    23    65    68    1
    24    65    66    1
    25    69    68    1
    26    68    70    1
    27    42    39    1
    28    40    39    1
    29    40    41    2
    30    39    38    1
    31    21    20    2
    32    36    35    2
    33    66    67    2
    34    38    35   am
    35    20    19    1
    36    35    34    1
    37    22    19    1
    38    22    23    1
    39    19    18    1
    40    34    33    1
    41    34    37    1
    42    24    23    1
    43    23    25    1
    44    12    11    2
    45    71    72    1
    46    29    28    2
    47    72    73    1
    48    72    75    1
    49    11    10    1
    50    77    75    1
    51    28    27    1
    52    73    74    2
    53    75    76    1
    54     9    10    1
    55    10    13    1
    56    13    14    1
    57    14    15    1
    58    27    26    1
    59    27    30    1
    60    32    30    1
    61    30    31    1
    62     4     3    2
    63    15    16    1
    64    16    17    1
    65     3     2    1
    66     1     2    1
    67     7     8    1
    68     7     6    1
    69     2     5    1
    70     5     6    1
