@<TRIPOS>MOLECULE
tmp/5jinA01.pdb
 215 217 0 0 0
SMALL
GASTEIGER

@<TRIPOS>ATOM
      1  N         99.7920  -10.8760   63.3250 N.3   129  ARG129     -0.1245
      2  CA       100.8150  -10.1320   62.6650 C.3   129  ARG129      0.1563
      3  C        100.8260  -10.3510   61.1290 C.2   129  ARG129      0.2260
      4  O        100.9720  -11.4850   60.6390 O.2   129  ARG129     -0.2867
      5  CB       102.1460  -10.4580   63.2990 C.3   129  ARG129      0.0307
      6  CG       103.2650   -9.4660   62.9380 C.3   129  ARG129      0.0489
      7  CD       103.0810   -8.1160   63.6620 C.3   129  ARG129      0.2205
      8  NE       104.2930   -7.3170   63.4840 N.pl3 129  ARG129     -0.0865
      9  CZ       104.3940   -6.0180   63.7150 C.cat 129  ARG129      0.5346
     10  NH1      103.4000   -5.3260   64.2010 N.pl3 129  ARG129      0.1354
     11  NH2      105.5290   -5.4230   63.4710 N.pl3 129  ARG129      0.1354
     12  N        103.1360   -7.1040   55.9750 N.3   132  LYS132     -0.1231
     13  CA       103.5280   -5.7480   55.6040 C.3   132  LYS132      0.1693
     14  C        102.7190   -4.5830   56.1960 C.2   132  LYS132      0.2592
     15  O        103.0960   -3.4130   56.0010 O.2   132  LYS132     -0.2718
     16  CB       103.4830   -5.6620   54.0740 C.3   132  LYS132      0.0285
     17  CG       104.5640   -6.5050   53.4030 C.3   132  LYS132      0.0035
     18  CD       104.7510   -6.2240   51.9210 C.3   132  LYS132      0.0206
     19  CE       104.2180   -7.3600   51.0500 C.3   132  LYS132      0.1093
     20  NZ       104.8810   -7.3000   49.7090 N.3   132  LYS132     -0.1314
     21  N        101.6510   -4.8700   56.9360 N.am  133  MET133     -0.1965
     22  CA       100.8060   -3.8130   57.4650 C.3   133  MET133      0.1736
     23  C        100.7660   -3.8670   59.0050 C.2   133  MET133      0.2617
     24  O         99.7570   -3.4960   59.5860 O.2   133  MET133     -0.2715
     25  CB        99.3840   -3.9300   56.8360 C.3   133  MET133      0.0427
     26  CG        99.3260   -3.7230   55.3040 C.3   133  MET133      0.0599
     27  SD        97.6100   -3.8030   54.7080 S.3   133  MET133     -0.1393
     28  CE        97.2840   -5.5700   54.7480 C.3   133  MET133      0.0692
     29  N        101.8400   -4.3300   59.6500 N.am  134  GLY134     -0.1940
     30  CA       101.8550   -4.5080   61.0910 C.3   134  GLY134      0.2014
     31  C        100.7710   -5.4720   61.6040 C.2   134  GLY134      0.2638
     32  O        100.6140   -6.5700   61.0680 O.2   134  GLY134     -0.2714
     33  N        100.0230   -5.0690   62.6310 N.am  135  TRP135     -0.1973
     34  CA        98.9640   -5.9170   63.1410 C.3   135  TRP135      0.1640
     35  C         97.7490   -5.7620   62.2550 C.2   135  TRP135      0.2290
     36  O         97.5200   -4.6790   61.6750 O.2   135  TRP135     -0.2864
     37  CB        98.6230   -5.5920   64.5760 C.3   135  TRP135      0.0576
     38  CG        99.7470   -5.6940   65.4840 C.ar  135  TRP135      0.0006
     39  CD1      100.4890   -4.6690   65.9790 C.ar  135  TRP135      0.0946
     40  CD2      100.2850   -6.8890   66.0380 C.ar  135  TRP135      0.0152
     41  NE1      101.4320   -5.1390   66.8310 N.ar  135  TRP135     -0.2442
     42  CE2      101.3620   -6.5020   66.8840 C.ar  135  TRP135      0.0810
     43  CE3       99.9400   -8.2370   65.9480 C.ar  135  TRP135      0.0012
     44  CZ2      102.1350   -7.4070   67.5600 C.ar  135  TRP135      0.0191
     45  CZ3      100.7080   -9.1640   66.6570 C.ar  135  TRP135      0.0001
     46  CH2      101.7880   -8.7420   67.4640 C.ar  135  TRP135      0.0015
     47  N         83.9640    0.8170   66.1520 N.3   152  TYR152     -0.1241
     48  CA        85.1850    1.6030   66.2670 C.3   152  TYR152      0.1605
     49  C         85.0820    2.3630   67.5590 C.2   152  TYR152      0.2264
     50  O         84.3530    3.3550   67.6310 O.2   152  TYR152     -0.2867
     51  CB        85.3890    2.5690   65.1040 C.3   152  TYR152      0.0534
     52  CG        86.8330    3.0460   65.0110 C.ar  152  TYR152     -0.0201
     53  CD1       87.7930    2.3070   64.3560 C.ar  152  TYR152     -0.0009
     54  CD2       87.2400    4.1980   65.6780 C.ar  152  TYR152     -0.0009
     55  CE1       89.1100    2.7420   64.2810 C.ar  152  TYR152      0.0417
     56  CE2       88.5430    4.6520   65.6190 C.ar  152  TYR152      0.0417
     57  CZ        89.4880    3.9080   64.9480 C.ar  152  TYR152      0.1957
     58  OH        90.8120    4.3430   64.9290 O.3   152  TYR152     -0.2866
     59  N         97.1140    8.0770   63.3050 N.3   169  SER169     -0.1202
     60  CA        96.8830    6.7930   62.6800 C.3   169  SER169      0.2020
     61  C         95.5420    6.1910   63.0500 C.2   169  SER169      0.2618
     62  O         95.0900    5.2400   62.3860 O.2   169  SER169     -0.2717
     63  CB        98.0140    5.8230   63.0330 C.3   169  SER169      0.2103
     64  OG        99.1830    6.2750   62.4110 O.3   169  SER169     -0.2182
     65  N         94.9020    6.7290   64.0800 N.am  170  TYR170     -0.1975
     66  CA        93.7260    6.0810   64.6590 C.3   170  TYR170      0.1639
     67  C         92.5620    7.0560   64.8550 C.2   170  TYR170      0.2290
     68  O         91.7190    6.8390   65.7150 O.2   170  TYR170     -0.2864
     69  CB        94.1090    5.5080   66.0290 C.3   170  TYR170      0.0560
     70  CG        95.2310    4.5320   66.0350 C.ar  170  TYR170     -0.0198
     71  CD1       94.9830    3.1890   65.7880 C.ar  170  TYR170     -0.0009
     72  CD2       96.5270    4.9320   66.2330 C.ar  170  TYR170     -0.0009
     73  CE1       96.0360    2.2710   65.7320 C.ar  170  TYR170      0.0417
     74  CE2       97.5700    4.0120   66.2030 C.ar  170  TYR170      0.0417
     75  CZ        97.3060    2.6760   65.9560 C.ar  170  TYR170      0.1957
     76  OH        98.3350    1.7420   65.9290 O.3   170  TYR170     -0.2866
     77  N         88.9670   -2.8240   66.9780 N.3   193  SER193     -0.1202
     78  CA        88.8390   -2.0910   65.7120 C.3   193  SER193      0.2020
     79  C         90.0170   -1.1940   65.3850 C.2   193  SER193      0.2619
     80  O         90.3040   -0.9510   64.2270 O.2   193  SER193     -0.2717
     81  CB        87.5560   -1.2850   65.7250 C.3   193  SER193      0.2103
     82  OG        86.4480   -2.1460   65.9590 O.3   193  SER193     -0.2182
     83  N         90.7650   -0.7620   66.3960 N.am  194  ARG194     -0.1965
     84  CA        91.9450    0.0240   66.1500 C.3   194  ARG194      0.1729
     85  C         93.0180   -0.7390   65.3360 C.2   194  ARG194      0.2616
     86  O         93.9170   -0.1190   64.7510 O.2   194  ARG194     -0.2715
     87  CB        92.5670    0.4880   67.4790 C.3   194  ARG194      0.0348
     88  CG        93.4240   -0.5390   68.1960 C.3   194  ARG194      0.0492
     89  CD        93.7940   -0.0890   69.6140 C.3   194  ARG194      0.2205
     90  NE        94.6820    1.0770   69.6260 N.pl3 194  ARG194     -0.0865
     91  CZ        95.9980    1.0590   69.4400 C.cat 194  ARG194      0.5346
     92  NH1       96.6240   -0.0680   69.1090 N.pl3 194  ARG194      0.1354
     93  NH2       96.7170    2.1830   69.5490 N.pl3 194  ARG194      0.1354
     94  N         92.9390   -2.0770   65.3310 N.am  195  PHE195     -0.1960
     95  CA        93.8920   -2.8930   64.5530 C.3   195  PHE195      0.1771
     96  C         93.4620   -3.2610   63.1370 C.2   195  PHE195      0.2619
     97  O         94.2270   -3.8910   62.3870 O.2   195  PHE195     -0.2715
     98  CB        94.2270   -4.1070   65.3320 C.3   195  PHE195      0.0574
     99  CG        94.9050   -3.8010   66.6500 C.ar  195  PHE195     -0.0200
    100  CD1       96.1910   -3.3960   66.6290 C.ar  195  PHE195     -0.0042
    101  CD2       94.2890   -4.0160   67.8100 C.ar  195  PHE195     -0.0042
    102  CE1       96.8720   -3.1460   67.8090 C.ar  195  PHE195     -0.0003
    103  CE2       94.9120   -3.7500   69.0190 C.ar  195  PHE195     -0.0003
    104  CZ        96.2270   -3.3350   69.0100 C.ar  195  PHE195     -0.0000
    105  N         92.3120   -2.7830   62.7330 N.am  196  ILE196     -0.1963
    106  CA        91.7480   -3.0920   61.4160 C.3   196  ILE196      0.1727
    107  C         92.3730   -2.2320   60.3130 C.2   196  ILE196      0.2616
    108  O         92.3750   -0.9860   60.3750 O.2   196  ILE196     -0.2715
    109  CB        90.2150   -2.9360   61.3540 C.3   196  ILE196      0.0290
    110  CG1       89.5250   -4.0030   62.2070 C.3   196  ILE196      0.0022
    111  CG2       89.6880   -3.1300   59.9370 C.3   196  ILE196      0.0023
    112  CD1       88.0510   -3.7500   62.3770 C.3   196  ILE196      0.0001
    113  N         92.9030   -2.9140   59.2840 N.am  197  ASN197     -0.1958
    114  CA        93.7170   -2.2130   58.2660 C.3   197  ASN197      0.1819
    115  C         92.8510   -1.6990   57.1230 C.2   197  ASN197      0.2621
    116  O         91.6780   -2.0760   56.9980 O.2   197  ASN197     -0.2715
    117  CB        94.8290   -3.0830   57.7360 C.3   197  ASN197      0.1195
    118  CG        95.9280   -3.2410   58.7260 C.2   197  ASN197      0.2630
    119  OD1       96.4090   -2.2460   59.3260 O.2   197  ASN197     -0.2716
    120  ND2       96.3690   -4.4750   58.9050 N.am  197  ASN197     -0.0877
    121  N         93.4170   -0.7670   56.3730 N.am  198  HIS198     -0.1973
    122  CA        92.7790   -0.2740   55.1590 C.3   198  HIS198      0.1656
    123  C         92.9360   -1.2790   54.0520 C.2   198  HIS198      0.2291
    124  O         94.0360   -1.8070   53.8570 O.2   198  HIS198     -0.2864
    125  CB        93.4730    1.0230   54.6950 C.3   198  HIS198      0.0771
    126  CG        93.1000    1.4190   53.3110 C.ar  198  HIS198      0.0820
    127  ND1       92.0170    2.2040   53.0390 N.ar  198  HIS198     -0.2267
    128  CD2       93.6060    1.0520   52.1010 C.ar  198  HIS198      0.1154
    129  CE1       91.8580    2.3180   51.7330 C.ar  198  HIS198      0.1986
    130  NE2       92.8320    1.6460   51.1410 N.ar  198  HIS198     -0.2212
    131  N         89.5710    3.4320   54.3960 N.3   239  TYR239     -0.1241
    132  CA        89.7930    4.5130   55.3230 C.3   239  TYR239      0.1605
    133  C         89.3310    5.8420   54.6840 C.2   239  TYR239      0.2264
    134  O         89.0160    6.7670   55.4210 O.2   239  TYR239     -0.2867
    135  CB        91.2500    4.6750   55.7410 C.3   239  TYR239      0.0534
    136  CG        91.8250    3.6310   56.7180 C.ar  239  TYR239     -0.0201
    137  CD1       91.1300    2.4930   57.1130 C.ar  239  TYR239     -0.0009
    138  CD2       93.0860    3.8100   57.2390 C.ar  239  TYR239     -0.0009
    139  CE1       91.7250    1.5910   58.0020 C.ar  239  TYR239      0.0417
    140  CE2       93.6870    2.9060   58.0820 C.ar  239  TYR239      0.0417
    141  CZ        92.9900    1.8180   58.4800 C.ar  239  TYR239      0.1957
    142  OH        93.6770    0.9640   59.3000 O.3   239  TYR239     -0.2866
    143  N         92.1290   10.4360   54.8500 N.3   243  PHE243     -0.1227
    144  CA        93.2630    9.7770   55.5030 C.3   243  PHE243      0.1736
    145  C         94.4620    9.7870   54.5300 C.2   243  PHE243      0.2595
    146  O         95.5210   10.3110   54.8370 O.2   243  PHE243     -0.2718
    147  CB        92.8290    8.3180   55.8870 C.3   243  PHE243      0.0547
    148  CG        93.9030    7.5240   56.5330 C.ar  243  PHE243     -0.0202
    149  CD1       94.7680    6.7530   55.7530 C.ar  243  PHE243     -0.0042
    150  CD2       94.0330    7.4850   57.9190 C.ar  243  PHE243     -0.0042
    151  CE1       95.7670    5.9900   56.3590 C.ar  243  PHE243     -0.0003
    152  CE2       95.0680    6.7800   58.5250 C.ar  243  PHE243     -0.0003
    153  CZ        95.9210    6.0060   57.7340 C.ar  243  PHE243     -0.0000
    154  N         94.2370    9.2610   53.3450 N.am  244  TRP244     -0.1976
    155  CA        95.3390    9.0160   52.4080 C.3   244  TRP244      0.1640
    156  C         95.9720   10.3070   51.8410 C.2   244  TRP244      0.2290
    157  O         97.1790   10.3330   51.6200 O.2   244  TRP244     -0.2864
    158  CB        94.8870    8.0590   51.3010 C.3   244  TRP244      0.0576
    159  CG        94.8550    6.6630   51.7840 C.ar  244  TRP244      0.0006
    160  CD1       93.7660    5.9340   52.0160 C.ar  244  TRP244      0.0946
    161  CD2       95.9810    5.8260   52.1090 C.ar  244  TRP244      0.0152
    162  NE1       94.1120    4.6820   52.4600 N.ar  244  TRP244     -0.2442
    163  CE2       95.4690    4.5820   52.5080 C.ar  244  TRP244      0.0810
    164  CE3       97.3750    6.0070   52.0840 C.ar  244  TRP244      0.0012
    165  CZ2       96.2920    3.5190   52.9130 C.ar  244  TRP244      0.0191
    166  CZ3       98.2080    4.9400   52.4670 C.ar  244  TRP244      0.0001
    167  CH2       97.6500    3.7030   52.8630 C.ar  244  TRP244      0.0015
    168  N         98.2880   10.8610   54.6300 N.3   247  LYS247     -0.1245
    169  CA        99.2180    9.7750   55.0390 C.3   247  LYS247      0.1561
    170  C        100.1340    9.2990   53.9150 C.2   247  LYS247      0.2260
    171  O        101.2270    8.8070   54.2080 O.2   247  LYS247     -0.2867
    172  CB        98.4830    8.5850   55.6320 C.3   247  LYS247      0.0271
    173  CG        97.9280    8.8420   57.0340 C.3   247  LYS247      0.0035
    174  CD        99.0350    8.9550   58.0830 C.3   247  LYS247      0.0206
    175  CE        98.6400    8.2230   59.3310 C.3   247  LYS247      0.1093
    176  NZ        99.4910    8.6600   60.4640 N.3   247  LYS247     -0.1314
    177  N        103.7130    6.9400   53.9340 N.3   251  PHE251     -0.1227
    178  CA       103.7990    5.5740   53.5410 C.3   251  PHE251      0.1736
    179  C        102.7500    5.3940   52.4960 C.2   251  PHE251      0.2596
    180  O        101.8940    6.2390   52.3310 O.2   251  PHE251     -0.2718
    181  CB       103.6010    4.6120   54.7440 C.3   251  PHE251      0.0547
    182  CG       102.2720    4.7970   55.4850 C.ar  251  PHE251     -0.0202
    183  CD1      101.1140    4.1460   55.0390 C.ar  251  PHE251     -0.0042
    184  CD2      102.1940    5.5850   56.6410 C.ar  251  PHE251     -0.0042
    185  CE1       99.8900    4.3200   55.7010 C.ar  251  PHE251     -0.0003
    186  CE2      100.9730    5.7600   57.3180 C.ar  251  PHE251     -0.0003
    187  CZ        99.8250    5.1350   56.8380 C.ar  251  PHE251     -0.0000
    188  N        102.8020    4.2430   51.8310 N.am  252  THR252     -0.1939
    189  CA       101.8520    3.8920   50.7980 C.3   252  THR252      0.2028
    190  C        101.1570    2.5890   51.1030 C.2   252  THR252      0.2642
    191  O        101.5380    1.8520   51.9840 O.2   252  THR252     -0.2714
    192  CB       102.5300    3.8460   49.4120 C.3   252  THR252      0.1808
    193  OG1      103.5910    2.8970   49.4140 O.3   252  THR252     -0.2208
    194  CG2      103.0810    5.2390   49.0600 C.3   252  THR252      0.0379
    195  N        100.0970    2.3200   50.3620 N.am  253  CYS253     -0.1953
    196  CA        99.2480    1.1870   50.6770 C.3   253  CYS253      0.1843
    197  C         99.9130   -0.1410   50.2830 C.2   253  CYS253      0.2625
    198  O        100.4580   -0.2550   49.1950 O.2   253  CYS253     -0.2714
    199  CB        97.9010    1.3390   50.0050 C.3   253  CYS253      0.0997
    200  SG        96.7520    0.0070   50.3940 S.3   253  CYS253     -0.0797
    201  N         99.8720   -1.1110   51.1800 N.am  254  GLN254     -0.1963
    202  CA       100.4690   -2.4190   50.9460 C.3   254  GLN254      0.1733
    203  C         99.3880   -3.4510   50.8440 C.2   254  GLN254      0.2616
    204  O         99.6630   -4.6440   51.0230 O.2   254  GLN254     -0.2715
    205  CB       101.4020   -2.7670   52.0910 C.3   254  GLN254      0.0408
    206  CG       102.5550   -1.7940   52.3080 C.3   254  GLN254      0.0908
    207  CD       103.5160   -1.7480   51.1290 C.2   254  GLN254      0.2608
    208  OE1      103.7220   -2.7360   50.4280 O.2   254  GLN254     -0.2717
    209  NE2      104.0710   -0.5830   50.8830 N.am  254  GLN254     -0.0878
    210  N         98.1610   -3.0480   50.5400 N.am  255  CYS255     -0.1968
    211  CA        97.0640   -4.0150   50.5390 C.3   255  CYS255      0.1712
    212  C         97.2560   -5.1150   49.4860 C.2   255  CYS255      0.2296
    213  O         96.8090   -6.2230   49.6790 O.2   255  CYS255     -0.2864
    214  CB        95.6900   -3.3580   50.3560 C.3   255  CYS255      0.0983
    215  SG        95.1470   -2.8490   48.7040 S.3   255  CYS255     -0.0798
@<TRIPOS>BOND
     1   215   214    1
     2   194   192    1
     3   198   197    2
     4   192   193    1
     5   192   189    1
     6   212   213    2
     7   212   211    1
     8    20    19    1
     9   199   200    1
    10   199   196    1
    11   197   196    1
    12   197   201   am
    13   214   211    1
    14   195   196    1
    15   195   190   am
    16   208   207    2
    17   211   210    1
    18   210   203   am
    19   189   190    1
    20   189   188    1
    21   203   202    1
    22   203   204    2
    23   209   207   am
    24   202   201    1
    25   202   205    1
    26    19    18    1
    27   190   191    2
    28   207   206    1
    29   130   129   ar
    30   130   128   ar
    31   158   159    1
    32   158   155    1
    33   157   156    2
    34   129   127   ar
    35   159   160   ar
    36   159   161   ar
    37   188   179   am
    38   156   155    1
    39    18    17    1
    40   160   162   ar
    41   164   161   ar
    42   164   166   ar
    43   205   206    1
    44   128   126   ar
    45   161   163   ar
    46   180   179    2
    47   155   154    1
    48   162   163   ar
    49   166   167   ar
    50   179   178    1
    51   163   165   ar
    52   167   165   ar
    53   127   126   ar
    54   126   125    1
    55   154   145   am
    56    17    16    1
    57   178   177    1
    58   178   181    1
    59   124   123    2
    60   170   171    2
    61   170   169    1
    62   123   122    1
    63    16    13    1
    64   131   132    1
    65   145   146    2
    66   145   144    1
    67   168   169    1
    68   133   132    1
    69   133   134    2
    70   125   122    1
    71    27    28    1
    72    27    26    1
    73   181   182    1
    74   143   144    1
    75   169   172    1
    76   183   182   ar
    77   183   185   ar
    78   122   121    1
    79    26    25    1
    80   132   135    1
    81   182   184   ar
    82   144   147    1
    83    13    12    1
    84    13    14    1
    85   172   173    1
    86   185   187   ar
    87   135   136    1
    88   149   151   ar
    89   149   148   ar
    90   147   148    1
    91    15    14    2
    92    14    21   am
    93   151   153   ar
    94   121   115   am
    95   148   150   ar
    96   184   186   ar
    97   136   137   ar
    98   136   138   ar
    99    25    22    1
   100   187   186   ar
   101    21    22    1
   102   116   115    2
   103   173   174    1
   104   137   139   ar
   105   115   114    1
   106   138   140   ar
   107    22    23    1
   108   153   152   ar
   109   117   114    1
   110   117   118    1
   111   150   152   ar
   112   139   141   ar
   113   140   141   ar
   114   174   175    1
   115   114   113    1
   116   141   142    1
   117   118   120   am
   118   118   119    2
   119    23    24    2
   120    23    29   am
   121   113   107   am
   122   175   176    1
   123    29    30    1
   124   111   109    1
   125   107   108    2
   126   107   106    1
   127     4     3    2
   128    32    31    2
   129    30    31    1
   130     3     2    1
   131   109   106    1
   132   109   110    1
   133   106   105    1
   134    31    33   am
   135    36    35    2
   136   110   112    1
   137    35    34    1
   138    62    61    2
   139    97    96    2
   140    64    63    1
   141    33    34    1
   142     2     5    1
   143     2     1    1
   144    60    63    1
   145    60    61    1
   146    60    59    1
   147   105    96   am
   148     6     5    1
   149     6     7    1
   150    61    65   am
   151    96    95    1
   152    34    37    1
   153    11     9    1
   154     8     7    1
   155     8     9    2
   156     9    10    1
   157    65    66    1
   158    80    79    2
   159    55    53   ar
   160    55    57   ar
   161    53    52   ar
   162    95    94    1
   163    95    98    1
   164    37    38    1
   165    66    67    1
   166    66    69    1
   167    86    85    2
   168    67    68    2
   169    58    57    1
   170    57    56   ar
   171    52    51    1
   172    52    54   ar
   173    51    48    1
   174    94    85   am
   175    98    99    1
   176    85    84    1
   177    79    78    1
   178    79    83   am
   179    38    39   ar
   180    38    40   ar
   181    56    54   ar
   182    78    81    1
   183    78    77    1
   184    81    82    1
   185    73    71   ar
   186    73    75   ar
   187    71    70   ar
   188    76    75    1
   189    43    40   ar
   190    43    45   ar
   191    75    74   ar
   192    39    41   ar
   193    69    70    1
   194    70    72   ar
   195    40    42   ar
   196    84    83    1
   197    84    87    1
   198    47    48    1
   199    74    72   ar
   200    48    49    1
   201   100    99   ar
   202   100   102   ar
   203    99   101   ar
   204    45    46   ar
   205    41    42   ar
   206    42    44   ar
   207    46    44   ar
   208    87    88    1
   209    49    50    2
   210   102   104   ar
   211   101   103   ar
   212    88    89    1
   213   104   103   ar
   214    92    91    1
   215    91    93    1
   216    91    90    2
   217    89    90    1
