@<TRIPOS>MOLECULE
tmp/5jioA00.pdb
 179 169 0 0 0
SMALL
GASTEIGER

@<TRIPOS>ATOM
      1  N         22.1160  112.7750  166.2190 N.3    28  GLY28      -0.1210
      2  CA        23.1920  112.1080  166.9220 C.3    28  GLY28       0.1956
      3  C         23.8080  110.9490  166.1630 C.2    28  GLY28       0.2612
      4  O         23.1930  110.3670  165.2650 O.2    28  GLY28      -0.2717
      5  N         25.0290  110.6040  166.5600 N.am   29  GLY29      -0.1942
      6  CA        25.7940  109.5670  165.8940 C.3    29  GLY29       0.2014
      7  C         25.3510  108.1650  166.2670 C.2    29  GLY29       0.2638
      8  O         25.5930  107.2180  165.5020 O.2    29  GLY29      -0.2714
      9  N         24.6990  108.0240  167.4160 N.am   30  LEU30      -0.1977
     10  CA        24.1770  106.7090  167.8040 C.3    30  LEU30       0.1596
     11  C         23.1910  106.2210  166.7300 C.2    30  LEU30       0.2287
     12  O         23.3080  105.1010  166.2220 O.2    30  LEU30      -0.2864
     13  CB        23.5390  106.7860  169.1950 C.3    30  LEU30       0.0297
     14  CG        22.9320  105.4900  169.7460 C.3    30  LEU30       0.0022
     15  CD1       23.0380  105.4810  171.2590 C.3    30  LEU30       0.0001
     16  CD2       21.4740  105.3670  169.3310 C.3    30  LEU30       0.0001
     17  N         23.0390  107.4870  163.6500 N.3    32  THR32      -0.1218
     18  CA        23.7960  107.3910  162.4010 C.3    32  THR32       0.1862
     19  C         24.4450  106.0240  162.2240 C.2    32  THR32       0.2287
     20  O         24.4450  105.4680  161.1230 O.2    32  THR32      -0.2866
     21  CB        24.8820  108.4730  162.3210 C.3    32  THR32       0.1770
     22  OG1       24.2440  109.7520  162.2510 O.3    32  THR32      -0.2211
     23  CG2       25.7440  108.2870  161.0740 C.3    32  THR32       0.0375
     24  N         26.1940  113.4660  181.2570 N.3    89  TRP89      -0.1241
     25  CA        26.8900  113.9920  180.0790 C.3    89  TRP89       0.1605
     26  C         28.0880  114.8940  180.4570 C.2    89  TRP89       0.2264
     27  O         29.2070  114.6450  179.9820 O.2    89  TRP89      -0.2867
     28  CB        25.8950  114.7330  179.1450 C.3    89  TRP89       0.0550
     29  CG        26.5450  115.2650  177.8970 C.ar   89  TRP89       0.0003
     30  CD1       27.0550  116.5290  177.7090 C.ar   89  TRP89       0.0946
     31  CD2       26.7570  114.5570  176.6590 C.ar   89  TRP89       0.0152
     32  NE1       27.5700  116.6400  176.4300 N.ar   89  TRP89      -0.2442
     33  CE2       27.4000  115.4460  175.7730 C.ar   89  TRP89       0.0810
     34  CE3       26.4540  113.2590  176.2130 C.ar   89  TRP89       0.0012
     35  CZ2       27.7580  115.0830  174.4640 C.ar   89  TRP89       0.0191
     36  CZ3       26.8040  112.9030  174.9000 C.ar   89  TRP89       0.0001
     37  CH2       27.4540  113.8110  174.0490 C.ar   89  TRP89       0.0015
     38  N         30.6090  120.9040  161.3570 N.3   274  VAL274     -0.1231
     39  CA        29.3130  120.2320  161.3990 C.3   274  VAL274      0.1692
     40  C         29.1820  119.5510  162.7580 C.2   274  VAL274      0.2592
     41  O         29.9790  118.6760  163.0780 O.2   274  VAL274     -0.2718
     42  CB        29.1740  119.1540  160.2880 C.3   274  VAL274      0.0266
     43  CG1       27.8640  118.4070  160.4200 C.3   274  VAL274      0.0020
     44  CG2       29.2950  119.7850  158.8830 C.3   274  VAL274      0.0020
     45  N         28.2260  119.9790  163.5830 N.am  275  ASP275     -0.1960
     46  CA        28.0790  119.3680  164.9170 C.3   275  ASP275      0.1840
     47  C         26.6990  119.6770  165.4670 C.2   275  ASP275      0.2621
     48  O         26.1190  120.7340  165.1650 O.2   275  ASP275     -0.2715
     49  CB        29.0290  119.9550  165.9730 C.3   275  ASP275      0.1450
     50  CG        30.3720  120.4170  165.4460 C.2   275  ASP275      0.3671
     51  OD1       31.3910  119.7100  165.6250 O.co2 275  ASP275     -0.2456
     52  OD2       30.3760  121.4710  164.7800 O.co2 275  ASP275     -0.2456
     53  N         26.2390  118.8560  166.4090 N.am  276  ARG276     -0.1977
     54  CA        25.2270  119.3410  167.3440 C.3   276  ARG276      0.1597
     55  C         25.7960  120.5260  168.1110 C.2   276  ARG276      0.2287
     56  O         27.0030  120.5640  168.4180 O.2   276  ARG276     -0.2864
     57  CB        24.8150  118.2540  168.3510 C.3   276  ARG276      0.0334
     58  CG        23.9270  117.1530  167.7890 C.3   276  ARG276      0.0492
     59  CD        23.5200  116.1420  168.8880 C.3   276  ARG276      0.2205
     60  NE        24.7160  115.6340  169.5590 N.pl3 276  ARG276     -0.0865
     61  CZ        25.1270  116.0020  170.7750 C.cat 276  ARG276      0.5346
     62  NH1       24.4200  116.8620  171.5040 N.pl3 276  ARG276      0.1354
     63  NH2       26.2690  115.5110  171.2510 N.pl3 276  ARG276      0.1354
     64  N         31.8450  120.1470  171.7620 N.3   281  LYS281     -0.1245
     65  CA        32.2550  120.0540  170.3570 C.3   281  LYS281      0.1561
     66  C         33.3160  121.0640  169.9360 C.2   281  LYS281      0.2260
     67  O         33.8550  120.9600  168.8310 O.2   281  LYS281     -0.2867
     68  CB        31.0280  120.1930  169.4440 C.3   281  LYS281      0.0271
     69  CG        29.9800  119.0740  169.6230 C.3   281  LYS281      0.0035
     70  CD        30.5270  117.7010  169.2260 C.3   281  LYS281      0.0206
     71  CE        29.4900  116.6050  169.4220 C.3   281  LYS281      0.1093
     72  NZ        30.0000  115.2880  168.8750 N.3   281  LYS281     -0.1314
     73  N         27.6490  124.4380  160.4740 N.3   309  LEU309     -0.1245
     74  CA        26.3110  123.8700  160.4740 C.3   309  LEU309      0.1561
     75  C         26.0620  123.2570  161.8380 C.2   309  LEU309      0.2260
     76  O         26.6090  122.2070  162.1550 O.2   309  LEU309     -0.2867
     77  CB        26.1580  122.8220  159.3640 C.3   309  LEU309      0.0270
     78  CG        26.5780  123.2870  157.9750 C.3   309  LEU309      0.0019
     79  CD1       26.4630  122.1180  156.9780 C.3   309  LEU309      0.0001
     80  CD2       25.7240  124.4740  157.5120 C.3   309  LEU309      0.0001
     81  N         23.4020  121.7950  164.7210 N.3   311  THR311     -0.1218
     82  CA        22.0640  121.2680  164.9960 C.3   311  THR311      0.1862
     83  C         21.6660  121.6210  166.4220 C.2   311  THR311      0.2287
     84  O         22.4160  121.3320  167.3540 O.2   311  THR311     -0.2866
     85  CB        21.9920  119.7170  164.8320 C.3   311  THR311      0.1770
     86  OG1       22.1550  119.3630  163.4610 O.3   311  THR311     -0.2211
     87  CG2       20.6450  119.1830  165.3180 C.3   311  THR311      0.0375
     88  N         20.3350  124.7150  162.3150 N.3   351  ARG351     -0.1231
     89  CA        19.2730  123.8060  161.9170 C.3   351  ARG351      0.1679
     90  C         19.8950  122.5120  161.4190 C.2   351  ARG351      0.2434
     91  O         21.0590  122.4840  161.0310 O.2   351  ARG351     -0.2733
     92  CB        18.4060  124.4310  160.8310 C.3   351  ARG351      0.0321
     93  CG        19.0730  124.4340  159.4740 C.3   351  ARG351      0.0489
     94  CD        18.4220  125.4570  158.5550 C.3   351  ARG351      0.2205
     95  NE        18.5880  126.8120  159.0800 N.pl3 351  ARG351     -0.0865
     96  CZ        18.5720  127.9110  158.3310 C.cat 351  ARG351      0.5346
     97  NH1       18.7360  129.1010  158.8950 N.pl3 351  ARG351      0.1354
     98  NH2       18.4030  127.8180  157.0160 N.pl3 351  ARG351      0.1354
     99  N         19.1260  121.4230  161.4560 N.am  352  PRO352     -0.2718
    100  CA        19.6000  120.2000  160.8010 C.3   352  PRO352      0.1535
    101  C         19.5360  120.3630  159.2830 C.2   352  PRO352      0.2598
    102  O         18.5310  120.8270  158.7650 O.2   352  PRO352     -0.2715
    103  CB        18.6110  119.1290  161.2770 C.3   352  PRO352      0.0310
    104  CG        17.7550  119.7840  162.3320 C.3   352  PRO352      0.0237
    105  CD        17.8040  121.2570  162.0740 C.3   352  PRO352      0.0939
    106  N         20.5910  119.9720  158.5830 N.am  353  VAL353     -0.1978
    107  CA        20.6230  120.0680  157.1320 C.3   353  VAL353      0.1596
    108  C         20.2750  118.6920  156.5650 C.2   353  VAL353      0.2287
    109  O         20.6710  117.6780  157.1500 O.2   353  VAL353     -0.2864
    110  CB        22.0110  120.5770  156.6900 C.3   353  VAL353      0.0276
    111  CG1       22.3480  120.1680  155.3090 C.3   353  VAL353      0.0022
    112  CG2       22.0830  122.1030  156.8560 C.3   353  VAL353      0.0022
    113  N         20.3830  115.2560  154.5210 N.3   355  ARG355     -0.1245
    114  CA        21.5740  114.4490  154.3290 C.3   355  ARG355      0.1563
    115  C         22.3380  114.7560  153.0300 C.2   355  ARG355      0.2260
    116  O         23.5570  114.9040  153.0450 O.2   355  ARG355     -0.2867
    117  CB        21.1940  112.9690  154.3580 C.3   355  ARG355      0.0307
    118  CG        22.3490  112.0370  154.6190 C.3   355  ARG355      0.0489
    119  CD        22.9280  112.2380  156.0130 C.3   355  ARG355      0.2205
    120  NE        23.9710  111.2560  156.2870 N.pl3 355  ARG355     -0.0865
    121  CZ        24.8200  111.3240  157.3080 C.cat 355  ARG355      0.5346
    122  NH1       24.7590  112.3360  158.1660 N.pl3 355  ARG355      0.1354
    123  NH2       25.7310  110.3720  157.4690 N.pl3 355  ARG355      0.1354
    124  N         24.1010  118.0240  153.2950 N.3   358  LEU358     -0.1245
    125  CA        25.2680  117.8800  154.1550 C.3   358  LEU358      0.1561
    126  C         26.4280  117.2550  153.3740 C.2   358  LEU358      0.2260
    127  O         27.5700  117.7200  153.4580 O.2   358  LEU358     -0.2867
    128  CB        24.9360  117.0220  155.3820 C.3   358  LEU358      0.0270
    129  CG        26.1430  116.6940  156.2670 C.3   358  LEU358      0.0019
    130  CD1       26.7600  117.9840  156.7870 C.3   358  LEU358      0.0001
    131  CD2       25.7330  115.8140  157.4490 C.3   358  LEU358      0.0001
    132  N         35.2440  113.8960  172.8780 N.3   375  ASP375     -0.1239
    133  CA        34.2070  113.2040  172.1260 C.3   375  ASP375      0.1674
    134  C         34.4810  111.7120  172.2060 C.2   375  ASP375      0.2266
    135  O         35.6320  111.2880  172.0760 O.2   375  ASP375     -0.2867
    136  CB        34.1850  113.6870  170.6730 C.3   375  ASP375      0.1410
    137  CG        32.8760  113.3800  169.9630 C.2   375  ASP375      0.3668
    138  OD1       32.2240  112.3580  170.2880 O.co2 375  ASP375     -0.2456
    139  OD2       32.5100  114.1610  169.0560 O.co2 375  ASP375     -0.2456
    140  N         33.7230  109.4050  170.0850 N.3   377  MET377     -0.1230
    141  CA        34.3270  108.9870  168.8170 C.3   377  MET377      0.1702
    142  C         34.4220  110.1450  167.8530 C.2   377  MET377      0.2592
    143  O         35.5200  110.5510  167.4850 O.2   377  MET377     -0.2718
    144  CB        33.5350  107.8440  168.1760 C.3   377  MET377      0.0401
    145  CG        34.0750  107.4110  166.8000 C.3   377  MET377      0.0596
    146  SD        35.7750  106.8320  166.8870 S.3   377  MET377     -0.1393
    147  CE        35.6130  105.5510  168.1430 C.3   377  MET377      0.0692
    148  N         33.2460  110.6720  167.5030 N.am  378  ASN378     -0.1960
    149  CA        33.0110  111.6660  166.4520 C.3   378  ASN378      0.1819
    150  C         32.9250  111.0220  165.0800 C.2   378  ASN378      0.2621
    151  O         33.9320  110.6690  164.4610 O.2   378  ASN378     -0.2715
    152  CB        34.0700  112.7650  166.4270 C.3   378  ASN378      0.1195
    153  CG        33.6130  113.9610  165.6270 C.2   378  ASN378      0.2630
    154  OD1       33.6110  113.9270  164.4010 O.2   378  ASN378     -0.2716
    155  ND2       33.1850  115.0060  166.3180 N.am  378  ASN378     -0.0877
    156  N         31.7030  110.8910  164.5930 N.am  379  LEU379     -0.1963
    157  CA        31.5100  110.2610  163.2980 C.3   379  LEU379      0.1728
    158  C         31.5890  111.2840  162.1630 C.2   379  LEU379      0.2616
    159  O         31.8310  110.9010  161.0110 O.2   379  LEU379     -0.2715
    160  CB        30.1800  109.5120  163.2520 C.3   379  LEU379      0.0311
    161  CG        30.1150  108.2850  164.1630 C.3   379  LEU379      0.0022
    162  CD1       28.7570  107.5990  164.0470 C.3   379  LEU379      0.0001
    163  CD2       31.2530  107.2950  163.8470 C.3   379  LEU379      0.0001
    164  N         31.4140  112.5690  162.4730 N.am  380  VAL380     -0.1977
    165  CA        31.5410  113.6070  161.4400 C.3   380  VAL380      0.1596
    166  C         32.9060  113.5140  160.7500 C.2   380  VAL380      0.2287
    167  O         32.9900  113.5830  159.5220 O.2   380  VAL380     -0.2864
    168  CB        31.3280  115.0210  162.0310 C.3   380  VAL380      0.0276
    169  CG1       31.8350  116.1140  161.0740 C.3   380  VAL380      0.0022
    170  CG2       29.8570  115.2190  162.3530 C.3   380  VAL380      0.0022
    171  N         32.7860  110.6500  158.4110 N.3   383  GLU383     -0.1245
    172  CA        31.8960  110.9570  157.2880 C.3   383  GLU383      0.1567
    173  C         32.5980  111.8070  156.2320 C.2   383  GLU383      0.2260
    174  O         32.5030  111.5330  155.0350 O.2   383  GLU383     -0.2867
    175  CB        30.6350  111.6840  157.7840 C.3   383  GLU383      0.0388
    176  CG        29.6360  110.7660  158.4950 C.3   383  GLU383      0.1160
    177  CD        28.5080  111.5500  159.1700 C.2   383  GLU383      0.3649
    178  OE1       27.4300  110.9560  159.3930 O.co2 383  GLU383     -0.2457
    179  OE2       28.7030  112.7520  159.4850 O.co2 383  GLU383     -0.2457
@<TRIPOS>BOND
     1   115   116    2
     2   115   114    1
     3   124   125    1
     4   126   127    2
     5   126   125    1
     6   125   128    1
     7   114   117    1
     8   114   113    1
     9   117   118    1
    10   118   119    1
    11   174   173    2
    12   111   110    1
    13   128   129    1
    14   119   120    1
    15   173   172    1
    16   129   130    1
    17   129   131    1
    18   120   121    2
    19   108   107    1
    20   108   109    2
    21   110   112    1
    22   110   107    1
    23    79    78    1
    24    98    96    1
    25   107   106    1
    26   172   175    1
    27   172   171    1
    28   121   123    1
    29   121   122    1
    30    80    78    1
    31   175   176    1
    32    78    77    1
    33    96    97    1
    34    96    95    2
    35   176   177    1
    36    94    95    1
    37    94    93    1
    38   106   101   am
    39   102   101    2
    40    44    42    1
    41   177   178   ar
    42   177   179   ar
    43   101   100    1
    44    77    74    1
    45    93    92    1
    46   167   166    2
    47    42    43    1
    48    42    39    1
    49    73    74    1
    50    74    75    1
    51   166   165    1
    52   100   103    1
    53   100    99    1
    54    92    89    1
    55   159   158    2
    56    91    90    2
    57    23    21    1
    58   169   168    1
    59    20    19    2
    60   103   104    1
    61    38    39    1
    62    39    40    1
    63    90    99   am
    64    90    89    1
    65   165   168    1
    66   165   164    1
    67    99   105    1
    68    75    76    2
    69    89    88    1
    70   168   170    1
    71   105   104    1
    72   158   164   am
    73   158   157    1
    74    19    18    1
    75    22    21    1
    76    21    18    1
    77    18    17    1
    78    40    41    2
    79    40    45   am
    80   160   157    1
    81   160   161    1
    82   157   156    1
    83    86    85    1
    84    45    46    1
    85   163   161    1
    86   162   161    1
    87   154   153    2
    88   151   150    2
    89   156   150   am
    90    81    82    1
    91    52    50   ar
    92    85    82    1
    93    85    87    1
    94    46    47    1
    95    46    49    1
    96    82    83    1
    97   150   149    1
    98    48    47    2
    99     4     3    2
   100    50    51   ar
   101    50    49    1
   102    47    53   am
   103     8     7    2
   104   153   155   am
   105   153   152    1
   106     6     7    1
   107     6     5    1
   108     3     5   am
   109     3     2    1
   110     1     2    1
   111    12    11    2
   112     7     9   am
   113    53    54    1
   114    83    84    2
   115   152   149    1
   116   149   148    1
   117    11    10    1
   118   145   146    1
   119   145   144    1
   120   146   147    1
   121    54    55    1
   122    54    57    1
   123     9    10    1
   124   143   142    2
   125   148   142   am
   126    58    57    1
   127    58    59    1
   128    10    13    1
   129   142   141    1
   130    55    56    2
   131   144   141    1
   132   141   140    1
   133    67    66    2
   134    72    71    1
   135    59    60    1
   136   139   137   ar
   137    13    14    1
   138    70    71    1
   139    70    69    1
   140    16    14    1
   141    68    69    1
   142    68    65    1
   143    60    61    2
   144    14    15    1
   145    66    65    1
   146   137   138   ar
   147   137   136    1
   148    65    64    1
   149   136   133    1
   150    61    63    1
   151    61    62    1
   152   135   134    2
   153   133   134    1
   154   133   132    1
   155    37    35   ar
   156    37    36   ar
   157    35    33   ar
   158    36    34   ar
   159    33    32   ar
   160    33    31   ar
   161    34    31   ar
   162    32    30   ar
   163    31    29   ar
   164    30    29   ar
   165    29    28    1
   166    28    25    1
   167    27    26    2
   168    25    26    1
   169    25    24    1
