@<TRIPOS>MOLECULE
tmp/5jioA01.pdb
 158 155 0 0 0
SMALL
GASTEIGER

@<TRIPOS>ATOM
      1  N         17.7970  105.2950  174.2440 N.3    11  ASN11      -0.1225
      2  CA        16.8470  106.3700  174.5260 C.3    11  ASN11       0.1785
      3  C         16.2090  106.8790  173.2210 C.2    11  ASN11       0.2597
      4  O         15.0180  107.1690  173.1850 O.2    11  ASN11      -0.2718
      5  CB        17.5110  107.5220  175.2880 C.3    11  ASN11       0.1169
      6  CG        16.5050  108.5930  175.6960 C.2    11  ASN11       0.2627
      7  OD1       15.5560  108.3150  176.4280 O.2    11  ASN11      -0.2716
      8  ND2       16.6910  109.8090  175.1990 N.am   11  ASN11      -0.0877
      9  N         16.9940  106.9440  172.1480 N.am   12  ARG12      -0.1979
     10  CA        16.4830  107.3500  170.8360 C.3    12  ARG12       0.1597
     11  C         15.9560  106.1960  169.9960 C.2    12  ARG12       0.2287
     12  O         16.5920  105.1500  169.9020 O.2    12  ARG12      -0.2864
     13  CB        17.5800  108.0480  170.0220 C.3    12  ARG12       0.0334
     14  CG        17.8370  109.4870  170.3890 C.3    12  ARG12       0.0492
     15  CD        16.6250  110.3430  170.0990 C.3    12  ARG12       0.2205
     16  NE        16.9110  111.7620  170.3620 N.pl3  12  ARG12      -0.0865
     17  CZ        16.0330  112.7450  170.1740 C.cat  12  ARG12       0.5346
     18  NH1       14.8120  112.4740  169.7290 N.pl3  12  ARG12       0.1354
     19  NH2       16.3780  114.0040  170.4320 N.pl3  12  ARG12       0.1354
     20  N         18.4840  112.9520  165.8940 N.3    27  PRO27      -0.2102
     21  CA        19.8470  113.4760  165.8590 C.3    27  PRO27       0.1504
     22  C         20.8370  112.5000  166.4570 C.2    27  PRO27       0.2576
     23  O         20.4430  111.5280  167.1260 O.2    27  PRO27      -0.2718
     24  CB        19.7570  114.7430  166.7190 C.3    27  PRO27       0.0282
     25  CG        18.6960  114.4080  167.7290 C.3    27  PRO27       0.0208
     26  CD        17.6900  113.5460  166.9890 C.3    27  PRO27       0.0893
     27  N         22.1160  112.7750  166.2190 N.am   28  GLY28      -0.1943
     28  CA        23.1920  112.1080  166.9220 C.3    28  GLY28       0.2014
     29  C         23.8080  110.9490  166.1630 C.2    28  GLY28       0.2639
     30  O         23.1930  110.3670  165.2650 O.2    28  GLY28      -0.2714
     31  N         25.0290  110.6040  166.5600 N.am   29  GLY29      -0.1939
     32  CA        25.7940  109.5670  165.8940 C.3    29  GLY29       0.2014
     33  C         25.3510  108.1650  166.2670 C.2    29  GLY29       0.2639
     34  O         25.5930  107.2180  165.5020 O.2    29  GLY29      -0.2714
     35  N         24.6990  108.0240  167.4160 N.am   30  LEU30      -0.1963
     36  CA        24.1770  106.7090  167.8040 C.3    30  LEU30       0.1728
     37  C         23.1910  106.2210  166.7300 C.2    30  LEU30       0.2616
     38  O         23.3080  105.1010  166.2220 O.2    30  LEU30      -0.2715
     39  CB        23.5390  106.7860  169.1950 C.3    30  LEU30       0.0311
     40  CG        22.9320  105.4900  169.7460 C.3    30  LEU30       0.0022
     41  CD1       23.0380  105.4810  171.2590 C.3    30  LEU30       0.0001
     42  CD2       21.4740  105.3670  169.3310 C.3    30  LEU30       0.0001
     43  N         22.2590  107.0850  166.3340 N.am   31  VAL31      -0.1977
     44  CA        21.3340  106.7580  165.2530 C.3    31  VAL31       0.1596
     45  C         22.0510  106.6330  163.8990 C.2    31  VAL31       0.2287
     46  O         21.7310  105.7600  163.0940 O.2    31  VAL31      -0.2864
     47  CB        20.1940  107.8130  165.1650 C.3    31  VAL31       0.0276
     48  CG1       19.4010  107.6600  163.8860 C.3    31  VAL31       0.0022
     49  CG2       19.2810  107.6810  166.3710 C.3    31  VAL31       0.0022
     50  N         15.8090  112.8410  181.3650 N.3    80  TYR80      -0.1241
     51  CA        16.5100  113.0960  180.1040 C.3    80  TYR80       0.1605
     52  C         17.2810  114.4220  180.1450 C.2    80  TYR80       0.2264
     53  O         18.4980  114.4400  179.9780 O.2    80  TYR80      -0.2867
     54  CB        15.5210  113.0680  178.9250 C.3    80  TYR80       0.0534
     55  CG        16.1070  113.5740  177.6270 C.ar   80  TYR80      -0.0201
     56  CD1       17.0660  112.8370  176.9420 C.ar   80  TYR80      -0.0009
     57  CD2       15.6950  114.7940  177.0840 C.ar   80  TYR80      -0.0009
     58  CE1       17.6100  113.2960  175.7510 C.ar   80  TYR80       0.0417
     59  CE2       16.2320  115.2680  175.8930 C.ar   80  TYR80       0.0417
     60  CZ        17.1910  114.5160  175.2310 C.ar   80  TYR80       0.1957
     61  OH        17.7330  115.0020  174.0580 O.3    80  TYR80      -0.2866
     62  N         21.4700  114.4310  180.9010 N.3    85  ASN85      -0.1240
     63  CA        22.2390  115.4530  180.2040 C.3    85  ASN85       0.1653
     64  C         22.7330  116.6400  181.0260 C.2    85  ASN85       0.2266
     65  O         23.4610  117.4830  180.4980 O.2    85  ASN85      -0.2867
     66  CB        21.4300  115.9160  179.0020 C.3    85  ASN85       0.1155
     67  CG        21.4670  114.8650  177.9050 C.2    85  ASN85       0.2627
     68  OD1       22.5520  114.3990  177.5350 O.2    85  ASN85      -0.2716
     69  ND2       20.3130  114.4380  177.4420 N.am   85  ASN85      -0.0877
     70  N         26.1940  113.4660  181.2570 N.3    89  TRP89      -0.1241
     71  CA        26.8900  113.9920  180.0790 C.3    89  TRP89       0.1605
     72  C         28.0880  114.8940  180.4570 C.2    89  TRP89       0.2264
     73  O         29.2070  114.6450  179.9820 O.2    89  TRP89      -0.2867
     74  CB        25.8950  114.7330  179.1450 C.3    89  TRP89       0.0550
     75  CG        26.5450  115.2650  177.8970 C.ar   89  TRP89       0.0003
     76  CD1       27.0550  116.5290  177.7090 C.ar   89  TRP89       0.0946
     77  CD2       26.7570  114.5570  176.6590 C.ar   89  TRP89       0.0152
     78  NE1       27.5700  116.6400  176.4300 N.ar   89  TRP89      -0.2442
     79  CE2       27.4000  115.4460  175.7730 C.ar   89  TRP89       0.0810
     80  CE3       26.4540  113.2590  176.2130 C.ar   89  TRP89       0.0012
     81  CZ2       27.7580  115.0830  174.4640 C.ar   89  TRP89       0.0191
     82  CZ3       26.8040  112.9030  174.9000 C.ar   89  TRP89       0.0001
     83  CH2       27.4540  113.8110  174.0490 C.ar   89  TRP89       0.0015
     84  N         24.1100  102.9750  175.6890 N.3   134  ASP134     -0.1225
     85  CA        24.5490  104.3160  176.1030 C.3   134  ASP134      0.1805
     86  C         24.1200  104.7940  177.4970 C.2   134  ASP134      0.2598
     87  O         23.3880  104.1200  178.2320 O.2   134  ASP134     -0.2718
     88  CB        24.1130  105.3530  175.0530 C.3   134  ASP134      0.1424
     89  CG        25.1750  106.4200  174.8180 C.2   134  ASP134      0.3668
     90  OD1       26.2510  106.3120  175.4480 O.co2 134  ASP134     -0.2456
     91  OD2       24.9600  107.3420  173.9860 O.co2 134  ASP134     -0.2456
     92  N         24.6000  105.9860  177.8360 N.am  135  TYR135     -0.1962
     93  CA        24.6330  106.4630  179.2170 C.3   135  TYR135      0.1771
     94  C         23.2740  106.6810  179.8560 C.2   135  TYR135      0.2619
     95  O         23.1670  106.6750  181.0850 O.2   135  TYR135     -0.2715
     96  CB        25.4410  107.7680  179.2930 C.3   135  TYR135      0.0574
     97  CG        24.8850  108.9320  178.4890 C.ar  135  TYR135     -0.0198
     98  CD1       25.0930  109.0250  177.1150 C.ar  135  TYR135     -0.0009
     99  CD2       24.1720  109.9580  179.1190 C.ar  135  TYR135     -0.0009
    100  CE1       24.5920  110.1100  176.3820 C.ar  135  TYR135      0.0417
    101  CE2       23.6790  111.0430  178.3950 C.ar  135  TYR135      0.0417
    102  CZ        23.8850  111.1060  177.0340 C.ar  135  TYR135      0.1957
    103  OH        23.3980  112.1830  176.3150 O.3   135  TYR135     -0.2866
    104  N         22.2400  106.8800  179.0420 N.am  136  GLN136     -0.1977
    105  CA        20.8970  107.0810  179.5810 C.3   136  GLN136      0.1601
    106  C         20.3490  105.8080  180.2170 C.2   136  GLN136      0.2287
    107  O         19.4400  105.8720  181.0350 O.2   136  GLN136     -0.2864
    108  CB        19.9200  107.5470  178.4890 C.3   136  GLN136      0.0394
    109  CG        20.3370  108.8080  177.7340 C.3   136  GLN136      0.0908
    110  CD        21.1270  108.4830  176.4880 C.2   136  GLN136      0.2608
    111  OE1       21.7040  107.3940  176.3710 O.2   136  GLN136     -0.2717
    112  NE2       21.1490  109.4190  175.5350 N.am  136  GLN136     -0.0878
    113  N         28.4750  104.9190  174.3880 N.3   158  HIS158     -0.1226
    114  CA        28.8450  105.6950  173.2040 C.3   158  HIS158      0.1752
    115  C         29.6010  106.9800  173.5380 C.2   158  HIS158      0.2595
    116  O         30.0590  107.6900  172.6310 O.2   158  HIS158     -0.2718
    117  CB        27.6040  106.0520  172.3810 C.3   158  HIS158      0.0759
    118  CG        26.9240  104.8680  171.7640 C.ar  158  HIS158      0.0818
    119  ND1       26.9660  104.6140  170.4130 N.ar  158  HIS158     -0.2268
    120  CD2       26.1690  103.8810  172.3100 C.ar  158  HIS158      0.1154
    121  CE1       26.2800  103.5160  170.1490 C.ar  158  HIS158      0.1986
    122  NE2       25.7840  103.0510  171.2810 N.ar  158  HIS158     -0.2212
    123  N         29.7270  107.2710  174.8190 N.am  159  ILE159     -0.1980
    124  CA        30.4250  108.4720  175.2610 C.3   159  ILE159      0.1595
    125  C         31.6370  108.0190  176.0870 C.2   159  ILE159      0.2287
    126  O         31.7710  106.8090  176.3870 O.2   159  ILE159     -0.2864
    127  CB        29.4760  109.4290  176.0520 C.3   159  ILE159      0.0276
    128  CG1       29.0470  108.8570  177.3970 C.3   159  ILE159      0.0022
    129  CG2       28.2550  109.8050  175.2050 C.3   159  ILE159      0.0022
    130  CD1       28.3480  109.9110  178.2800 C.3   159  ILE159      0.0001
    131  N         26.2390  118.8560  166.4090 N.3   276  ARG276     -0.1245
    132  CA        25.2270  119.3410  167.3440 C.3   276  ARG276      0.1563
    133  C         25.7960  120.5260  168.1110 C.2   276  ARG276      0.2260
    134  O         27.0030  120.5640  168.4180 O.2   276  ARG276     -0.2867
    135  CB        24.8150  118.2540  168.3510 C.3   276  ARG276      0.0307
    136  CG        23.9270  117.1530  167.7890 C.3   276  ARG276      0.0489
    137  CD        23.5200  116.1420  168.8880 C.3   276  ARG276      0.2205
    138  NE        24.7160  115.6340  169.5590 N.pl3 276  ARG276     -0.0865
    139  CZ        25.1270  116.0020  170.7750 C.cat 276  ARG276      0.5346
    140  NH1       24.4200  116.8620  171.5040 N.pl3 276  ARG276      0.1354
    141  NH2       26.2690  115.5110  171.2510 N.pl3 276  ARG276      0.1354
    142  N         20.2920  121.2370  170.0130 N.3   313  SER313     -0.1202
    143  CA        20.3070  120.0070  170.7970 C.3   313  SER313      0.2020
    144  C         20.0590  120.3050  172.2770 C.2   313  SER313      0.2618
    145  O         20.6650  121.2230  172.8120 O.2   313  SER313     -0.2717
    146  CB        21.6560  119.2980  170.6240 C.3   313  SER313      0.2103
    147  OG        21.6600  118.0390  171.2850 O.3   313  SER313     -0.2182
    148  N         19.1770  119.5320  172.9170 N.am  314  ARG314     -0.1979
    149  CA        18.9720  119.5970  174.3710 C.3   314  ARG314      0.1597
    150  C         18.7460  121.0310  174.8360 C.2   314  ARG314      0.2287
    151  O         19.3030  121.4740  175.8310 O.2   314  ARG314     -0.2864
    152  CB        20.1700  118.9620  175.0880 C.3   314  ARG314      0.0334
    153  CG        20.4220  117.5290  174.5890 C.3   314  ARG314      0.0492
    154  CD        21.7830  116.9800  174.9780 C.3   314  ARG314      0.2205
    155  NE        22.0180  115.7070  174.2940 N.pl3 314  ARG314     -0.0865
    156  CZ        23.1800  115.0650  174.2920 C.cat 314  ARG314      0.5346
    157  NH1       24.2090  115.5630  174.9710 N.pl3 314  ARG314      0.1354
    158  NH2       23.3110  113.9270  173.6150 N.pl3 314  ARG314      0.1354
@<TRIPOS>BOND
     1    46    45    2
     2    48    47    1
     3    45    44    1
     4    47    44    1
     5    47    49    1
     6    44    43    1
     7    30    29    2
     8    34    33    2
     9    21    20    1
    10    21    22    1
    11    21    24    1
    12    20    26    1
    13    32    33    1
    14    32    31    1
    15    29    31   am
    16    29    28    1
    17    27    22   am
    18    27    28    1
    19    38    37    2
    20    33    35   am
    21    43    37   am
    22   131   132    1
    23    22    23    2
    24    24    25    1
    25    37    36    1
    26    26    25    1
    27   132   133    1
    28   132   135    1
    29    35    36    1
    30   136   135    1
    31   136   137    1
    32    36    39    1
    33   133   134    2
    34   137   138    1
    35    39    40    1
    36    42    40    1
    37   138   139    2
    38    18    17    1
    39    40    41    1
    40    12    11    2
    41    11    10    1
    42   142   143    1
    43    13    14    1
    44    13    10    1
    45    15    16    1
    46    15    14    1
    47   121   119   ar
    48   121   122   ar
    49    17    16    2
    50    17    19    1
    51   119   118   ar
    52   146   143    1
    53   146   147    1
    54   139   141    1
    55   139   140    1
    56   143   144    1
    57    10     9    1
    58   122   120   ar
    59   118   120   ar
    60   118   117    1
    61     9     3   am
    62   144   145    2
    63   144   148   am
    64   117   114    1
    65   116   115    2
    66   148   149    1
    67     4     3    2
    68   114   115    1
    69   114   113    1
    70     3     2    1
    71   115   123   am
    72   158   156    1
    73    91    89   ar
    74    83    81   ar
    75    83    82   ar
    76    61    60    1
    77     1     2    1
    78   156   155    2
    79   156   157    1
    80   155   154    1
    81   149   150    1
    82   149   152    1
    83    81    79   ar
    84     2     5    1
    85   153   154    1
    86   153   152    1
    87    89    88    1
    88    89    90   ar
    89   123   124    1
    90   150   151    2
    91    82    80   ar
    92    88    85    1
    93     8     6   am
    94   129   127    1
    95    60    58   ar
    96    60    59   ar
    97   124   127    1
    98   124   125    1
    99     5     6    1
   100   112   110   am
   101    84    85    1
   102     6     7    2
   103    58    56   ar
   104    79    78   ar
   105    79    77   ar
   106    59    57   ar
   107   127   128    1
   108   125   126    2
   109    85    86    1
   110    80    77   ar
   111   103   102    1
   112   111   110    2
   113   100   102   ar
   114   100    98   ar
   115    78    76   ar
   116   110   109    1
   117    77    75   ar
   118    56    55   ar
   119   102   101   ar
   120    57    55   ar
   121    98    97   ar
   122   128   130    1
   123    69    67   am
   124    86    92   am
   125    86    87    2
   126    68    67    2
   127    55    54    1
   128    76    75   ar
   129   109   108    1
   130    92    93    1
   131    75    74    1
   132    67    66    1
   133   101    99   ar
   134   108   105    1
   135    97    99   ar
   136    97    96    1
   137    54    51    1
   138    66    63    1
   139   104   105    1
   140   104    94   am
   141    74    71    1
   142    93    96    1
   143    93    94    1
   144   105   106    1
   145    94    95    2
   146    53    52    2
   147    73    72    2
   148    71    72    1
   149    71    70    1
   150    51    52    1
   151    51    50    1
   152    63    62    1
   153    63    64    1
   154   106   107    2
   155    65    64    2
