@<TRIPOS>MOLECULE
tmp/5jipA00.pdb
 133 127 0 0 0
SMALL
GASTEIGER

@<TRIPOS>ATOM
      1  N         54.6360   56.5090   29.3180 N.3    15  ASP15      -0.1239
      2  CA        54.3580   57.1920   30.5730 C.3    15  ASP15       0.1674
      3  C         55.2290   56.5840   31.6630 C.2    15  ASP15       0.2266
      4  O         55.5610   55.3880   31.6330 O.2    15  ASP15      -0.2867
      5  CB        52.8640   57.1690   30.9550 C.3    15  ASP15       0.1410
      6  CG        52.2880   55.7690   31.0300 C.2    15  ASP15       0.3668
      7  OD1       51.8610   55.2520   29.9770 O.co2  15  ASP15      -0.2456
      8  OD2       52.2510   55.2010   32.1420 O.co2  15  ASP15      -0.2456
      9  N         56.9140   57.1400   35.9790 N.3    17  ASN17      -0.1240
     10  CA        56.7520   57.6790   37.3200 C.3    17  ASN17       0.1653
     11  C         58.0270   57.3910   38.1070 C.2    17  ASN17       0.2266
     12  O         59.0400   56.9810   37.5410 O.2    17  ASN17      -0.2867
     13  CB        55.4890   57.1290   37.9930 C.3    17  ASN17       0.1155
     14  CG        55.5100   55.6140   38.1690 C.2    17  ASN17       0.2627
     15  OD1       56.5630   54.9790   38.2780 O.2    17  ASN17      -0.2716
     16  ND2       54.3290   55.0310   38.1700 N.am   17  ASN17      -0.0877
     17  N         59.0170   55.1050   39.8110 N.3    19  PHE19      -0.1241
     18  CA        59.5000   53.7250   39.8040 C.3    19  PHE19       0.1605
     19  C         60.0840   53.3300   38.4630 C.2    19  PHE19       0.2264
     20  O         60.5900   52.2160   38.3150 O.2    19  PHE19      -0.2867
     21  CB        58.3530   52.7730   40.2260 C.3    19  PHE19       0.0534
     22  CG        57.6880   53.2070   41.5000 C.ar   19  PHE19      -0.0203
     23  CD1       58.4150   53.2530   42.6790 C.ar   19  PHE19      -0.0042
     24  CD2       56.3480   53.6020   41.5230 C.ar   19  PHE19      -0.0042
     25  CE1       57.8300   53.6780   43.8350 C.ar   19  PHE19      -0.0003
     26  CE2       55.7680   54.0370   42.6720 C.ar   19  PHE19      -0.0003
     27  CZ        56.4920   54.0670   43.8400 C.ar   19  PHE19      -0.0000
     28  N         53.7780   60.7230   36.1960 N.3    38  ARG38      -0.1245
     29  CA        52.9590   60.8820   37.3890 C.3    38  ARG38       0.1563
     30  C         53.3650   62.1520   38.1150 C.2    38  ARG38       0.2260
     31  O         54.5370   62.3460   38.4640 O.2    38  ARG38      -0.2867
     32  CB        53.0860   59.6810   38.3310 C.3    38  ARG38       0.0307
     33  CG        52.1480   59.8180   39.5540 C.3    38  ARG38       0.0489
     34  CD        52.0320   58.5200   40.3680 C.3    38  ARG38       0.2205
     35  NE        53.2340   58.2530   41.1480 N.pl3  38  ARG38      -0.0865
     36  CZ        53.3000   57.3520   42.1270 C.cat  38  ARG38       0.5346
     37  NH1       52.2370   56.6060   42.4040 N.pl3  38  ARG38       0.1354
     38  NH2       54.4250   57.2100   42.8220 N.pl3  38  ARG38       0.1354
     39  N         49.9130   63.1150   35.2780 N.3    70  TYR70      -0.1241
     40  CA        48.6740   62.5480   35.7580 C.3    70  TYR70       0.1605
     41  C         48.6420   62.4960   37.2800 C.2    70  TYR70       0.2264
     42  O         49.6800   62.5440   37.9640 O.2    70  TYR70      -0.2867
     43  CB        48.4320   61.1510   35.1800 C.3    70  TYR70       0.0534
     44  CG        49.4090   60.0700   35.5510 C.ar   70  TYR70      -0.0201
     45  CD1       49.3070   59.3800   36.7610 C.ar   70  TYR70      -0.0009
     46  CD2       50.4070   59.6950   34.6710 C.ar   70  TYR70      -0.0009
     47  CE1       50.1940   58.3890   37.0820 C.ar   70  TYR70       0.0417
     48  CE2       51.3090   58.6910   34.9920 C.ar   70  TYR70       0.0417
     49  CZ        51.1940   58.0470   36.1930 C.ar   70  TYR70       0.1957
     50  OH        52.1000   57.0610   36.4950 O.3    70  TYR70      -0.2866
     51  N         46.9210   60.0150   40.2620 N.3    72  PHE72      -0.1241
     52  CA        46.2800   58.7350   40.5470 C.3    72  PHE72       0.1605
     53  C         45.1370   58.9770   41.5210 C.2    72  PHE72       0.2264
     54  O         45.3500   59.3610   42.6800 O.2    72  PHE72      -0.2867
     55  CB        47.2610   57.7060   41.1010 C.3    72  PHE72       0.0534
     56  CG        46.6350   56.3670   41.3110 C.ar   72  PHE72      -0.0203
     57  CD1       45.9690   56.0680   42.4860 C.ar   72  PHE72      -0.0042
     58  CD2       46.6940   55.4150   40.3200 C.ar   72  PHE72      -0.0042
     59  CE1       45.3700   54.8360   42.6680 C.ar   72  PHE72      -0.0003
     60  CE2       46.0890   54.1800   40.4880 C.ar   72  PHE72      -0.0003
     61  CZ        45.4510   53.8870   41.6680 C.ar   72  PHE72      -0.0000
     62  N         43.8840   59.7170   36.4170 N.3   110  ASP110     -0.1239
     63  CA        44.1580   58.2880   36.2770 C.3   110  ASP110      0.1674
     64  C         43.2690   57.5490   37.2670 C.2   110  ASP110      0.2266
     65  O         43.4840   57.6350   38.4800 O.2   110  ASP110     -0.2867
     66  CB        45.6550   58.0670   36.5260 C.3   110  ASP110      0.1410
     67  CG        46.0560   56.5990   36.7340 C.2   110  ASP110      0.3668
     68  OD1       45.2260   55.6750   36.5800 O.co2 110  ASP110     -0.2456
     69  OD2       47.2610   56.3940   37.0290 O.co2 110  ASP110     -0.2456
     70  N         41.7740   53.9740   38.3860 N.3   112  GLU112     -0.1245
     71  CA        41.9920   52.5360   38.3400 C.3   112  GLU112      0.1567
     72  C         41.4250   51.8520   39.5710 C.2   112  GLU112      0.2260
     73  O         41.6250   50.6480   39.7310 O.2   112  GLU112     -0.2867
     74  CB        43.5000   52.2090   38.2410 C.3   112  GLU112      0.0388
     75  CG        44.1490   52.6290   36.9620 C.3   112  GLU112      0.1160
     76  CD        45.6610   52.4930   37.0380 C.2   112  GLU112      0.3649
     77  OE1       46.1390   51.3900   37.4080 O.co2 112  GLU112     -0.2457
     78  OE2       46.3550   53.4900   36.7500 O.co2 112  GLU112     -0.2457
     79  N         42.2730   58.8570   32.0300 N.3   146  TYR146     -0.1241
     80  CA        42.8960   57.5690   31.8030 C.3   146  TYR146      0.1605
     81  C         42.1570   56.4930   32.5900 C.2   146  TYR146      0.2264
     82  O         41.9240   56.6470   33.7980 O.2   146  TYR146     -0.2867
     83  CB        44.3680   57.5540   32.2180 C.3   146  TYR146      0.0534
     84  CG        44.9440   56.1480   32.2420 C.ar  146  TYR146     -0.0201
     85  CD1       44.7210   55.2950   33.3240 C.ar  146  TYR146     -0.0009
     86  CD2       45.7410   55.6800   31.2050 C.ar  146  TYR146     -0.0009
     87  CE1       45.2200   54.0160   33.3520 C.ar  146  TYR146      0.0417
     88  CE2       46.2830   54.3740   31.2490 C.ar  146  TYR146      0.0417
     89  CZ        46.0090   53.5570   32.3330 C.ar  146  TYR146      0.1957
     90  OH        46.5090   52.2810   32.4160 O.3   146  TYR146     -0.2866
     91  N         42.0920   58.4680   27.3410 N.3   173  TRP173     -0.1241
     92  CA        43.3220   57.6820   27.2640 C.3   173  TRP173      0.1605
     93  C         42.9720   56.2790   27.7650 C.2   173  TRP173      0.2264
     94  O         42.7760   56.0600   28.9680 O.2   173  TRP173     -0.2867
     95  CB        44.3910   58.3740   28.0880 C.3   173  TRP173      0.0550
     96  CG        45.7300   57.7170   28.1760 C.ar  173  TRP173      0.0003
     97  CD1       46.1810   56.5890   27.5370 C.ar  173  TRP173      0.0946
     98  CD2       46.8020   58.1830   28.9750 C.ar  173  TRP173      0.0152
     99  NE1       47.4840   56.3400   27.8920 N.ar  173  TRP173     -0.2442
    100  CE2       47.8860   57.2950   28.7890 C.ar  173  TRP173      0.0810
    101  CE3       46.9450   59.2580   29.8520 C.ar  173  TRP173      0.0012
    102  CZ2       49.1010   57.4520   29.4560 C.ar  173  TRP173      0.0191
    103  CZ3       48.1640   59.4250   30.5070 C.ar  173  TRP173      0.0001
    104  CH2       49.2180   58.5250   30.3090 C.ar  173  TRP173      0.0015
    105  N         45.6880   46.1300   26.8530 N.3   177  TYR177     -0.1241
    106  CA        46.9780   45.4980   26.5940 C.3   177  TYR177      0.1605
    107  C         46.8160   44.3030   25.6580 C.2   177  TYR177      0.2264
    108  O         46.0760   43.3610   25.9630 O.2   177  TYR177     -0.2867
    109  CB        47.6110   45.0730   27.9250 C.3   177  TYR177      0.0534
    110  CG        47.8580   46.2160   28.8870 C.ar  177  TYR177     -0.0201
    111  CD1       47.8780   47.5380   28.4510 C.ar  177  TYR177     -0.0009
    112  CD2       48.0890   45.9700   30.2230 C.ar  177  TYR177     -0.0009
    113  CE1       48.1170   48.5770   29.3480 C.ar  177  TYR177      0.0417
    114  CE2       48.3240   46.9550   31.0980 C.ar  177  TYR177      0.0417
    115  CZ        48.3390   48.2690   30.6790 C.ar  177  TYR177      0.1957
    116  OH        48.5710   49.2370   31.6250 O.3   177  TYR177     -0.2866
    117  N         47.0100   53.1150   25.6120 N.3   200  GLN200     -0.1245
    118  CA        48.1060   52.4370   26.2920 C.3   200  GLN200      0.1566
    119  C         48.0010   50.9600   25.9380 C.2   200  GLN200      0.2260
    120  O         47.0630   50.2820   26.3750 O.2   200  GLN200     -0.2867
    121  CB        48.0170   52.6290   27.7980 C.3   200  GLN200      0.0367
    122  CG        49.2780   52.2170   28.5350 C.3   200  GLN200      0.0905
    123  CD        49.0880   52.3760   30.0100 C.2   200  GLN200      0.2608
    124  OE1       48.3420   51.6280   30.6280 O.2   200  GLN200     -0.2717
    125  NE2       49.7610   53.3690   30.5900 N.am  200  GLN200     -0.0878
    126  N         55.3740   51.4700   30.2540 N.3   215  ASP215     -0.1239
    127  CA        54.0740   51.7440   29.6370 C.3   215  ASP215      0.1674
    128  C         54.2810   52.4970   28.3310 C.2   215  ASP215      0.2266
    129  O         54.9620   53.5230   28.3060 O.2   215  ASP215     -0.2867
    130  CB        53.1840   52.6030   30.5420 C.3   215  ASP215      0.1410
    131  CG        52.7870   51.9490   31.8480 C.2   215  ASP215      0.3668
    132  OD1       52.9460   50.7190   32.0190 O.co2 215  ASP215     -0.2456
    133  OD2       52.2660   52.6940   32.7170 O.co2 215  ASP215     -0.2456
@<TRIPOS>BOND
     1   117   118    1
     2   107   108    2
     3   107   106    1
     4   119   118    1
     5   119   120    2
     6   118   121    1
     7   106   105    1
     8   106   109    1
     9    92    91    1
    10    92    93    1
    11    92    95    1
    12    97    99   ar
    13    97    96   ar
    14    93    94    2
    15   121   122    1
    16    99   100   ar
    17   109   110    1
    18    95    96    1
    19    96    98   ar
    20   129   128    2
    21   128   127    1
    22   111   110   ar
    23   111   113   ar
    24   122   123    1
    25   100    98   ar
    26   100   102   ar
    27   110   112   ar
    28    98   101   ar
    29     1     2    1
    30   113   115   ar
    31   102   104   ar
    32   127   126    1
    33   127   130    1
    34   101   103   ar
    35     7     6   ar
    36   123   125   am
    37   123   124    2
    38   112   114   ar
    39   104   103   ar
    40   130   131    1
    41     2     5    1
    42     2     3    1
    43   115   114   ar
    44   115   116    1
    45     5     6    1
    46     6     8   ar
    47    86    88   ar
    48    86    84   ar
    49    88    89   ar
    50     4     3    2
    51    80    79    1
    52    80    83    1
    53    80    81    1
    54   131   132   ar
    55   131   133   ar
    56    83    84    1
    57    84    85   ar
    58    89    90    1
    59    89    87   ar
    60    81    82    2
    61    85    87   ar
    62    46    48   ar
    63    46    44   ar
    64    48    49   ar
    65    43    44    1
    66    43    40    1
    67    39    40    1
    68    44    45   ar
    69    40    41    1
    70     9    10    1
    71    49    50    1
    72    49    47   ar
    73    28    29    1
    74    63    62    1
    75    63    66    1
    76    63    64    1
    77    66    67    1
    78    68    67   ar
    79    67    69   ar
    80    78    76   ar
    81    45    47   ar
    82    75    76    1
    83    75    74    1
    84    76    77   ar
    85    64    65    2
    86    41    42    2
    87    10    13    1
    88    10    11    1
    89    29    30    1
    90    29    32    1
    91    12    11    2
    92    13    14    1
    93    30    31    2
    94    14    16   am
    95    14    15    2
    96    74    71    1
    97    20    19    2
    98    32    33    1
    99    71    70    1
   100    71    72    1
   101    19    18    1
   102    33    34    1
   103    72    73    2
   104    18    17    1
   105    18    21    1
   106    21    22    1
   107    51    52    1
   108    58    60   ar
   109    58    56   ar
   110    34    35    1
   111    60    61   ar
   112    52    55    1
   113    52    53    1
   114    55    56    1
   115    35    36    2
   116    56    57   ar
   117    22    24   ar
   118    22    23   ar
   119    53    54    2
   120    24    26   ar
   121    61    59   ar
   122    36    37    1
   123    36    38    1
   124    57    59   ar
   125    26    27   ar
   126    23    25   ar
   127    25    27   ar
