@<TRIPOS>MOLECULE
tmp/5jipA01.pdb
 107 105 0 0 0
SMALL
GASTEIGER

@<TRIPOS>ATOM
      1  N         41.7740   53.9740   38.3860 N.3   112  GLU112     -0.1245
      2  CA        41.9920   52.5360   38.3400 C.3   112  GLU112      0.1567
      3  C         41.4250   51.8520   39.5710 C.2   112  GLU112      0.2260
      4  O         41.6250   50.6480   39.7310 O.2   112  GLU112     -0.2867
      5  CB        43.5000   52.2090   38.2410 C.3   112  GLU112      0.0388
      6  CG        44.1490   52.6290   36.9620 C.3   112  GLU112      0.1160
      7  CD        45.6610   52.4930   37.0380 C.2   112  GLU112      0.3649
      8  OE1       46.1390   51.3900   37.4080 O.co2 112  GLU112     -0.2457
      9  OE2       46.3550   53.4900   36.7500 O.co2 112  GLU112     -0.2457
     10  N         42.2730   58.8570   32.0300 N.3   146  TYR146     -0.1241
     11  CA        42.8960   57.5690   31.8030 C.3   146  TYR146      0.1605
     12  C         42.1570   56.4930   32.5900 C.2   146  TYR146      0.2264
     13  O         41.9240   56.6470   33.7980 O.2   146  TYR146     -0.2867
     14  CB        44.3680   57.5540   32.2180 C.3   146  TYR146      0.0534
     15  CG        44.9440   56.1480   32.2420 C.ar  146  TYR146     -0.0201
     16  CD1       44.7210   55.2950   33.3240 C.ar  146  TYR146     -0.0009
     17  CD2       45.7410   55.6800   31.2050 C.ar  146  TYR146     -0.0009
     18  CE1       45.2200   54.0160   33.3520 C.ar  146  TYR146      0.0417
     19  CE2       46.2830   54.3740   31.2490 C.ar  146  TYR146      0.0417
     20  CZ        46.0090   53.5570   32.3330 C.ar  146  TYR146      0.1957
     21  OH        46.5090   52.2810   32.4160 O.3   146  TYR146     -0.2866
     22  N         41.2510   51.8400   32.2010 N.3   148  GLY148     -0.1210
     23  CA        41.3730   50.6230   31.4340 C.3   148  GLY148      0.1956
     24  C         40.0400   50.1100   30.8960 C.2   148  GLY148      0.2612
     25  O         38.9760   50.3920   31.4420 O.2   148  GLY148     -0.2717
     26  N         40.1290   49.3360   29.8080 N.am  149  LEU149     -0.1965
     27  CA        38.9400   48.7130   29.2350 C.3   149  LEU149      0.1728
     28  C         38.2600   47.8050   30.2500 C.2   149  LEU149      0.2616
     29  O         37.0290   47.8310   30.3980 O.2   149  LEU149     -0.2715
     30  CB        39.3230   47.9270   27.9760 C.3   149  LEU149      0.0311
     31  CG        38.1660   47.2450   27.2040 C.3   149  LEU149      0.0022
     32  CD1       37.1200   48.2650   26.8180 C.3   149  LEU149      0.0001
     33  CD2       38.6410   46.4900   25.9520 C.3   149  LEU149      0.0001
     34  N         39.0470   47.0030   30.9660 N.am  150  PHE150     -0.1960
     35  CA        38.4810   46.1340   31.9980 C.3   150  PHE150      0.1771
     36  C         37.7060   46.9370   33.0330 C.2   150  PHE150      0.2619
     37  O         36.5640   46.5950   33.3810 O.2   150  PHE150     -0.2715
     38  CB        39.5980   45.3390   32.6570 C.3   150  PHE150      0.0574
     39  CG        39.1310   44.4560   33.7710 C.ar  150  PHE150     -0.0200
     40  CD1       38.5770   43.2250   33.4970 C.ar  150  PHE150     -0.0042
     41  CD2       39.2420   44.8580   35.0920 C.ar  150  PHE150     -0.0042
     42  CE1       38.1320   42.4080   34.5180 C.ar  150  PHE150     -0.0003
     43  CE2       38.8010   44.0430   36.1110 C.ar  150  PHE150     -0.0003
     44  CZ        38.2530   42.8170   35.8210 C.ar  150  PHE150     -0.0000
     45  N         38.3160   48.0190   33.5230 N.am  151  PHE151     -0.1974
     46  CA        37.7120   48.8680   34.5390 C.3   151  PHE151      0.1639
     47  C         36.3890   49.4570   34.0620 C.2   151  PHE151      0.2290
     48  O         35.3970   49.4490   34.8010 O.2   151  PHE151     -0.2864
     49  CB        38.7020   49.9760   34.9090 C.3   151  PHE151      0.0560
     50  CG        38.3300   50.7570   36.1210 C.ar  151  PHE151     -0.0200
     51  CD1       38.6820   50.3010   37.3730 C.ar  151  PHE151     -0.0042
     52  CD2       37.6530   51.9740   36.0150 C.ar  151  PHE151     -0.0042
     53  CE1       38.3500   51.0160   38.5020 C.ar  151  PHE151     -0.0003
     54  CE2       37.3250   52.7020   37.1400 C.ar  151  PHE151     -0.0003
     55  CZ        37.6660   52.2300   38.3850 C.ar  151  PHE151     -0.0000
     56  N         43.4610   52.2190   28.2690 N.3   175  ALA175     -0.1231
     57  CA        44.4170   51.1280   28.3840 C.3   175  ALA175      0.1694
     58  C         43.7400   49.8320   27.9550 C.2   175  ALA175      0.2592
     59  O         42.6860   49.4790   28.4860 O.2   175  ALA175     -0.2718
     60  CB        44.9200   51.0120   29.8150 C.3   175  ALA175      0.0304
     61  N         44.3430   49.1400   26.9900 N.am  176  MET176     -0.1965
     62  CA        43.9500   47.7910   26.6150 C.3   176  MET176      0.1736
     63  C         45.2020   47.1080   26.0970 C.2   176  MET176      0.2616
     64  O         45.6880   47.4500   25.0130 O.2   176  MET176     -0.2715
     65  CB        42.8690   47.7730   25.5480 C.3   176  MET176      0.0427
     66  CG        42.4280   46.3220   25.2770 C.3   176  MET176      0.0599
     67  SD        41.6400   46.2310   23.7250 S.3   176  MET176     -0.1393
     68  CE        43.0580   46.3400   22.6260 C.3   176  MET176      0.0692
     69  N         45.6880   46.1300   26.8530 N.am  177  TYR177     -0.1974
     70  CA        46.9780   45.4980   26.5940 C.3   177  TYR177      0.1639
     71  C         46.8160   44.3030   25.6580 C.2   177  TYR177      0.2290
     72  O         46.0760   43.3610   25.9630 O.2   177  TYR177     -0.2864
     73  CB        47.6110   45.0730   27.9250 C.3   177  TYR177      0.0560
     74  CG        47.8580   46.2160   28.8870 C.ar  177  TYR177     -0.0198
     75  CD1       47.8780   47.5380   28.4510 C.ar  177  TYR177     -0.0009
     76  CD2       48.0890   45.9700   30.2230 C.ar  177  TYR177     -0.0009
     77  CE1       48.1170   48.5770   29.3480 C.ar  177  TYR177      0.0417
     78  CE2       48.3240   46.9550   31.0980 C.ar  177  TYR177      0.0417
     79  CZ        48.3390   48.2690   30.6790 C.ar  177  TYR177      0.1957
     80  OH        48.5710   49.2370   31.6250 O.3   177  TYR177     -0.2866
     81  N         48.9640   42.0660   25.1690 N.3   179  ARG179     -0.1231
     82  CA        49.5770   40.8880   25.7890 C.3   179  ARG179      0.1694
     83  C         48.5670   39.9960   26.5070 C.2   179  ARG179      0.2591
     84  O         48.9010   38.8510   26.8470 O.2   179  ARG179     -0.2718
     85  CB        50.6860   41.3070   26.7820 C.3   179  ARG179      0.0321
     86  CG        50.2070   41.9200   28.1010 C.3   179  ARG179      0.0489
     87  CD        51.3100   42.0060   29.1560 C.3   179  ARG179      0.2205
     88  NE        50.9020   42.7730   30.3380 N.pl3 179  ARG179     -0.0865
     89  CZ        50.1890   42.3010   31.3570 C.cat 179  ARG179      0.5346
     90  NH1       49.7710   41.0390   31.3650 N.pl3 179  ARG179      0.1354
     91  NH2       49.8680   43.1050   32.3650 N.pl3 179  ARG179      0.1354
     92  N         47.3530   40.4800   26.7540 N.am  180  ILE180     -0.1980
     93  CA        46.3170   39.6950   27.4120 C.3   180  ILE180      0.1595
     94  C         45.5290   38.9750   26.3160 C.2   180  ILE180      0.2287
     95  O         44.8720   39.6480   25.5060 O.2   180  ILE180     -0.2864
     96  CB        45.4170   40.5760   28.2820 C.3   180  ILE180      0.0276
     97  CG1       46.2610   41.2120   29.4030 C.3   180  ILE180      0.0022
     98  CG2       44.2840   39.7560   28.9050 C.3   180  ILE180      0.0022
     99  CD1       45.5890   42.3320   30.0920 C.3   180  ILE180      0.0001
    100  N         41.8870   39.8500   25.3630 N.3   183  ASN183     -0.1240
    101  CA        41.5220   41.1790   24.8940 C.3   183  ASN183      0.1653
    102  C         41.3520   41.1950   23.3730 C.2   183  ASN183      0.2266
    103  O         42.0420   40.4680   22.6490 O.2   183  ASN183     -0.2867
    104  CB        42.5840   42.2130   25.2750 C.3   183  ASN183      0.1155
    105  CG        42.3740   42.7970   26.6500 C.2   183  ASN183      0.2627
    106  OD1       41.2670   42.7580   27.1990 O.2   183  ASN183     -0.2716
    107  ND2       43.4320   43.3850   27.2080 N.am  183  ASN183     -0.0877
@<TRIPOS>BOND
     1    68    67    1
     2   103   102    2
     3   102   101    1
     4    67    66    1
     5   101   104    1
     6   101   100    1
     7    64    63    2
     8    81    82    1
     9   104   105    1
    10    66    65    1
    11    95    94    2
    12    65    62    1
    13    71    72    2
    14    71    70    1
    15    82    83    1
    16    82    85    1
    17    33    31    1
    18    63    62    1
    19    63    69   am
    20    94    93    1
    21    83    92   am
    22    83    84    2
    23    70    69    1
    24    70    73    1
    25    62    61    1
    26   105   106    2
    27   105   107   am
    28    92    93    1
    29    85    86    1
    30    32    31    1
    31    61    58   am
    32    31    30    1
    33    93    96    1
    34    73    74    1
    35    58    57    1
    36    58    59    2
    37    30    27    1
    38    86    87    1
    39    56    57    1
    40    96    98    1
    41    96    97    1
    42    57    60    1
    43    75    74   ar
    44    75    77   ar
    45    74    76   ar
    46    87    88    1
    47    27    26    1
    48    27    28    1
    49    77    79   ar
    50    97    99    1
    51    26    24   am
    52    76    78   ar
    53    28    29    2
    54    28    34   am
    55    88    89    2
    56    79    78   ar
    57    79    80    1
    58    24    23    1
    59    24    25    2
    60    34    35    1
    61    17    19   ar
    62    17    15   ar
    63    19    20   ar
    64    89    90    1
    65    89    91    1
    66    23    22    1
    67    11    10    1
    68    11    14    1
    69    11    12    1
    70    35    38    1
    71    35    36    1
    72    14    15    1
    73    15    16   ar
    74    20    21    1
    75    20    18   ar
    76    12    13    2
    77    38    39    1
    78    36    37    2
    79    36    45   am
    80    16    18   ar
    81    40    39   ar
    82    40    42   ar
    83    45    46    1
    84    39    41   ar
    85    47    46    1
    86    47    48    2
    87    42    44   ar
    88    46    49    1
    89    49    50    1
    90    41    43   ar
    91    44    43   ar
    92    52    50   ar
    93    52    54   ar
    94    50    51   ar
    95     9     7   ar
    96     6     7    1
    97     6     5    1
    98     7     8   ar
    99    54    55   ar
   100    51    53   ar
   101     5     2    1
   102     2     1    1
   103     2     3    1
   104    55    53   ar
   105     3     4    2
