@<TRIPOS>MOLECULE
tmp/5jiwA00.pdb
 88 85 0 0 0
SMALL
GASTEIGER

@<TRIPOS>ATOM
      1  N        -14.0030  -35.1290  -38.8940 N.3    53  GLY53      -0.1210
      2  CA       -13.9660  -36.0030  -40.0480 C.3    53  GLY53       0.1956
      3  C        -15.2950  -36.6810  -40.3290 C.2    53  GLY53       0.2611
      4  O        -16.3600  -36.0920  -40.1170 O.2    53  GLY53      -0.2717
      5  N        -15.2500  -37.9210  -40.8120 N.am   54  TYR54      -0.1976
      6  CA       -16.4760  -38.6200  -41.1800 C.3    54  TYR54       0.1639
      7  C        -17.3340  -38.8580  -39.9400 C.2    54  TYR54       0.2290
      8  O        -16.8500  -39.3640  -38.9230 O.2    54  TYR54      -0.2864
      9  CB       -16.1510  -39.9460  -41.8710 C.3    54  TYR54       0.0560
     10  CG       -17.3510  -40.5950  -42.5150 C.ar   54  TYR54      -0.0198
     11  CD1      -17.7390  -40.2520  -43.8040 C.ar   54  TYR54      -0.0009
     12  CD2      -18.1000  -41.5460  -41.8360 C.ar   54  TYR54      -0.0009
     13  CE1      -18.8350  -40.8380  -44.3990 C.ar   54  TYR54       0.0417
     14  CE2      -19.2000  -42.1400  -42.4240 C.ar   54  TYR54       0.0417
     15  CZ       -19.5630  -41.7800  -43.7050 C.ar   54  TYR54       0.1957
     16  OH       -20.6580  -42.3620  -44.3000 O.3    54  TYR54      -0.2866
     17  N        -13.7810  -36.9950  -32.2200 N.3    60  GLN60      -0.1245
     18  CA       -12.8260  -37.7250  -33.0790 C.3    60  GLN60       0.1566
     19  C        -12.2020  -36.7060  -34.0420 C.2    60  GLN60       0.2260
     20  O        -12.6410  -36.5460  -35.1810 O.2    60  GLN60      -0.2867
     21  CB       -13.5160  -38.8680  -33.8230 C.3    60  GLN60       0.0367
     22  CG       -12.6150  -39.6490  -34.7600 C.3    60  GLN60       0.0905
     23  CD       -13.3680  -40.7170  -35.5250 C.2    60  GLN60       0.2608
     24  OE1      -13.8620  -41.6830  -34.9430 O.2    60  GLN60      -0.2717
     25  NE2      -13.4690  -40.5440  -36.8380 N.am   60  GLN60      -0.0878
     26  N         -9.0310  -34.6550  -36.1650 N.3    62  PHE62      -0.1241
     27  CA        -7.7740  -34.8250  -36.8890 C.3    62  PHE62       0.1605
     28  C         -6.5660  -34.2830  -36.1320 C.2    62  PHE62       0.2264
     29  O         -5.4360  -34.5040  -36.5830 O.2    62  PHE62      -0.2867
     30  CB        -7.8480  -34.1390  -38.2630 C.3    62  PHE62       0.0534
     31  CG        -8.7710  -34.8150  -39.2400 C.ar   62  PHE62      -0.0203
     32  CD1       -8.7800  -36.1930  -39.3750 C.ar   62  PHE62      -0.0042
     33  CD2       -9.6240  -34.0660  -40.0300 C.ar   62  PHE62      -0.0042
     34  CE1       -9.6270  -36.8110  -40.2710 C.ar   62  PHE62      -0.0003
     35  CE2      -10.4700  -34.6760  -40.9260 C.ar   62  PHE62      -0.0003
     36  CZ       -10.4700  -36.0520  -41.0520 C.ar   62  PHE62      -0.0000
     37  N        -19.0980  -29.7120  -46.2660 N.3   101  TYR101     -0.1241
     38  CA       -17.8290  -30.2470  -46.7490 C.3   101  TYR101      0.1605
     39  C        -17.6030  -29.8930  -48.2130 C.2   101  TYR101      0.2264
     40  O        -16.4710  -29.6180  -48.6260 O.2   101  TYR101     -0.2867
     41  CB       -17.8120  -31.7630  -46.5520 C.3   101  TYR101      0.0534
     42  CG       -16.5990  -32.4780  -47.0950 C.ar  101  TYR101     -0.0201
     43  CD1      -15.3910  -32.4540  -46.4130 C.ar  101  TYR101     -0.0009
     44  CD2      -16.6740  -33.2100  -48.2740 C.ar  101  TYR101     -0.0009
     45  CE1      -14.2840  -33.1210  -46.9010 C.ar  101  TYR101      0.0417
     46  CE2      -15.5720  -33.8800  -48.7680 C.ar  101  TYR101      0.0417
     47  CZ       -14.3810  -33.8340  -48.0750 C.ar  101  TYR101      0.1957
     48  OH       -13.2780  -34.5010  -48.5620 O.3   101  TYR101     -0.2866
     49  N         -3.7460  -35.7090  -46.7160 N.3   148  LYS148     -0.1245
     50  CA        -5.0680  -36.3190  -46.6940 C.3   148  LYS148      0.1561
     51  C         -5.8430  -35.9870  -47.9640 C.2   148  LYS148      0.2260
     52  O         -6.4050  -36.8760  -48.6150 O.2   148  LYS148     -0.2867
     53  CB        -5.8250  -35.8430  -45.4590 C.3   148  LYS148      0.0271
     54  CG        -7.1650  -36.5080  -45.2830 C.3   148  LYS148      0.0035
     55  CD        -7.6350  -36.4330  -43.8360 C.3   148  LYS148      0.0206
     56  CE        -8.3680  -37.7020  -43.4660 C.3   148  LYS148      0.1093
     57  NZ        -7.4700  -38.8830  -43.3910 N.3   148  LYS148     -0.1314
     58  N         -7.1750  -38.4530  -51.4000 N.3   152  GLY152     -0.1210
     59  CA        -8.5990  -38.7150  -51.4720 C.3   152  GLY152      0.1956
     60  C         -9.2870  -38.9030  -50.1430 C.2   152  GLY152      0.2612
     61  O        -10.4010  -39.4340  -50.1050 O.2   152  GLY152     -0.2717
     62  N         -8.6610  -38.4820  -49.0470 N.am  153  GLY153     -0.1942
     63  CA        -9.2520  -38.6120  -47.7340 C.3   153  GLY153      0.2014
     64  C         -8.8370  -39.8460  -46.9660 C.2   153  GLY153      0.2639
     65  O         -9.3230  -40.0480  -45.8450 O.2   153  GLY153     -0.2714
     66  N         -7.9480  -40.6660  -47.5200 N.am  154  LEU154     -0.1963
     67  CA        -7.4860  -41.8550  -46.8270 C.3   154  LEU154      0.1713
     68  C         -6.8730  -41.4750  -45.4810 C.2   154  LEU154      0.2458
     69  O         -6.3070  -40.3870  -45.3330 O.2   154  LEU154     -0.2730
     70  CB        -6.4430  -42.5920  -47.6630 C.3   154  LEU154      0.0310
     71  CG        -6.9260  -43.3200  -48.9130 C.3   154  LEU154      0.0022
     72  CD1       -5.7340  -43.7850  -49.7330 C.3   154  LEU154      0.0001
     73  CD2       -7.8000  -44.4960  -48.5270 C.3   154  LEU154      0.0001
     74  N         -6.9600  -42.3530  -44.4860 N.am  155  PRO155     -0.2727
     75  CA        -6.2310  -42.1170  -43.2370 C.3   155  PRO155      0.1402
     76  C         -4.7320  -42.2480  -43.4520 C.2   155  PRO155      0.2269
     77  O         -4.2620  -42.8080  -44.4460 O.2   155  PRO155     -0.2865
     78  CB        -6.7620  -43.2070  -42.3010 C.3   155  PRO155      0.0296
     79  CG        -7.2060  -44.2990  -43.2170 C.3   155  PRO155      0.0237
     80  CD        -7.7260  -43.6110  -44.4480 C.3   155  PRO155      0.0939
     81  N         -6.9280  -41.6670  -36.6970 N.3   221  ASP221     -0.1239
     82  CA        -6.5170  -40.9270  -37.8910 C.3   221  ASP221      0.1674
     83  C         -6.3420  -39.4640  -37.5010 C.2   221  ASP221      0.2266
     84  O         -7.2460  -38.6350  -37.6250 O.2   221  ASP221     -0.2867
     85  CB        -7.5400  -41.1070  -39.0090 C.3   221  ASP221      0.1410
     86  CG        -7.1320  -40.4110  -40.3000 C.2   221  ASP221      0.3668
     87  OD1       -5.9170  -40.2750  -40.5460 O.co2 221  ASP221     -0.2456
     88  OD2       -8.0310  -40.0060  -41.0740 O.co2 221  ASP221     -0.2456
@<TRIPOS>BOND
     1    59    58    1
     2    59    60    1
     3    60    61    2
     4    60    62   am
     5    72    71    1
     6    62    63    1
     7    71    73    1
     8    71    70    1
     9    46    44   ar
    10    46    47   ar
    11    40    39    2
    12    52    51    2
    13    48    47    1
    14    44    42   ar
    15    39    38    1
    16    47    45   ar
    17    51    50    1
    18    63    64    1
    19    70    67    1
    20    66    64   am
    21    66    67    1
    22    42    41    1
    23    42    43   ar
    24    64    65    2
    25    45    43   ar
    26    67    68    1
    27    38    41    1
    28    38    37    1
    29    49    50    1
    30    50    53    1
    31    68    69    2
    32    68    74   am
    33    53    54    1
    34    54    55    1
    35    74    80    1
    36    74    75    1
    37    80    79    1
    38    77    76    2
    39    13    11   ar
    40    13    15   ar
    41    16    15    1
    42    55    56    1
    43    11    10   ar
    44    15    14   ar
    45    56    57    1
    46    76    75    1
    47    75    78    1
    48    79    78    1
    49    10     9    1
    50    10    12   ar
    51    14    12   ar
    52     9     6    1
    53     6     5    1
    54     6     7    1
    55    88    86   ar
    56    36    35   ar
    57    36    34   ar
    58    35    33   ar
    59     5     3   am
    60    87    86   ar
    61     3     4    2
    62     3     2    1
    63    86    85    1
    64    34    32   ar
    65     2     1    1
    66    33    31   ar
    67     7     8    2
    68    32    31   ar
    69    31    30    1
    70    85    82    1
    71    30    27    1
    72    82    83    1
    73    82    81    1
    74    84    83    2
    75    27    26    1
    76    27    28    1
    77    25    23   am
    78    29    28    2
    79    23    24    2
    80    23    22    1
    81    20    19    2
    82    22    21    1
    83    19    18    1
    84    21    18    1
    85    18    17    1
