@<TRIPOS>MOLECULE
tmp/5jiwA08.pdb
 98 94 0 0 0
SMALL
GASTEIGER

@<TRIPOS>ATOM
      1  N        -14.9200  -49.8440  -22.8070 N.3   246  VAL246     -0.1245
      2  CA       -15.3010  -50.1570  -21.4260 C.3   246  VAL246      0.1561
      3  C        -15.9240  -51.5410  -21.3710 C.2   246  VAL246      0.2260
      4  O        -16.5520  -52.0100  -22.3310 O.2   246  VAL246     -0.2867
      5  CB       -16.2890  -49.1200  -20.8420 C.3   246  VAL246      0.0252
      6  CG1      -15.5930  -47.7790  -20.6450 C.3   246  VAL246      0.0019
      7  CG2      -17.5070  -48.9620  -21.7300 C.3   246  VAL246      0.0019
      8  N        -18.4030  -51.7440  -24.5700 N.3   256  GLN256     -0.1245
      9  CA       -18.2750  -50.8440  -25.7100 C.3   256  GLN256      0.1566
     10  C        -16.8500  -50.8880  -26.2390 C.2   256  GLN256      0.2260
     11  O        -15.8980  -50.7830  -25.4620 O.2   256  GLN256     -0.2867
     12  CB       -18.6260  -49.4000  -25.3250 C.3   256  GLN256      0.0367
     13  CG       -19.9690  -49.2290  -24.6400 C.3   256  GLN256      0.0905
     14  CD       -20.1940  -47.8070  -24.1450 C.2   256  GLN256      0.2608
     15  OE1      -19.4710  -46.8860  -24.5200 O.2   256  GLN256     -0.2717
     16  NE2      -21.1940  -47.6300  -23.2890 N.am  256  GLN256     -0.0878
     17  N        -14.5380  -48.7040  -28.4930 N.3   258  TRP258     -0.1241
     18  CA       -14.4650  -47.3710  -29.0860 C.3   258  TRP258      0.1605
     19  C        -13.5260  -47.3220  -30.2850 C.2   258  TRP258      0.2264
     20  O        -13.8090  -46.6280  -31.2680 O.2   258  TRP258     -0.2867
     21  CB       -14.0020  -46.3570  -28.0430 C.3   258  TRP258      0.0550
     22  CG       -14.8910  -46.2530  -26.8560 C.ar  258  TRP258      0.0003
     23  CD1      -16.1720  -46.7100  -26.7380 C.ar  258  TRP258      0.0946
     24  CD2      -14.5600  -45.6510  -25.6050 C.ar  258  TRP258      0.0152
     25  NE1      -16.6610  -46.4250  -25.4840 N.ar  258  TRP258     -0.2442
     26  CE2      -15.6870  -45.7770  -24.7690 C.ar  258  TRP258      0.0810
     27  CE3      -13.4170  -45.0190  -25.1080 C.ar  258  TRP258      0.0012
     28  CZ2      -15.7030  -45.2930  -23.4640 C.ar  258  TRP258      0.0191
     29  CZ3      -13.4360  -44.5380  -23.8140 C.ar  258  TRP258      0.0001
     30  CH2      -14.5700  -44.6770  -23.0070 C.ar  258  TRP258      0.0015
     31  N        -13.0270  -29.5630  -19.3970 N.3   291  ARG291     -0.1245
     32  CA       -13.6040  -30.8660  -19.0870 C.3   291  ARG291      0.1563
     33  C        -12.8250  -31.9550  -19.8210 C.2   291  ARG291      0.2260
     34  O        -12.4750  -31.7880  -20.9890 O.2   291  ARG291     -0.2867
     35  CB       -15.0760  -30.8610  -19.5100 C.3   291  ARG291      0.0307
     36  CG       -15.8570  -32.1620  -19.4640 C.3   291  ARG291      0.0489
     37  CD       -17.1170  -31.9600  -20.3160 C.3   291  ARG291      0.2205
     38  NE       -18.1520  -32.9800  -20.1870 N.pl3 291  ARG291     -0.0865
     39  CZ       -18.2440  -34.0740  -20.9380 C.cat 291  ARG291      0.5346
     40  NH1      -17.3340  -34.3460  -21.8680 N.pl3 291  ARG291      0.1354
     41  NH2      -19.2420  -34.9200  -20.7330 N.pl3 291  ARG291      0.1354
     42  N        -13.2530  -35.8290  -20.9710 N.3   293  ALA293     -0.1231
     43  CA       -14.1780  -36.9440  -21.1130 C.3   293  ALA293      0.1694
     44  C        -13.4930  -38.2570  -20.7510 C.2   293  ALA293      0.2592
     45  O        -12.3320  -38.4910  -21.1060 O.2   293  ALA293     -0.2718
     46  CB       -14.7080  -37.0140  -22.5480 C.3   293  ALA293      0.0304
     47  N        -14.2370  -39.1180  -20.0540 N.am  294  HIS294     -0.1976
     48  CA       -13.7400  -40.3920  -19.5260 C.3   294  HIS294      0.1656
     49  C        -12.5340  -40.1720  -18.6090 C.2   294  HIS294      0.2291
     50  O        -11.4990  -40.8310  -18.7370 O.2   294  HIS294     -0.2864
     51  CB       -13.4010  -41.3780  -20.6480 C.3   294  HIS294      0.0771
     52  CG       -13.3700  -42.8100  -20.1980 C.ar  294  HIS294      0.0820
     53  ND1      -14.4530  -43.4310  -19.6100 N.ar  294  HIS294     -0.2267
     54  CD2      -12.3870  -43.7410  -20.2500 C.ar  294  HIS294      0.1154
     55  CE1      -14.1350  -44.6800  -19.3150 C.ar  294  HIS294      0.1986
     56  NE2      -12.8860  -44.8920  -19.6910 N.ar  294  HIS294     -0.2212
     57  N        -15.2440  -35.4940  -16.1200 N.3   340  GLU340     -0.1245
     58  CA       -16.4100  -36.2410  -16.5940 C.3   340  GLU340      0.1567
     59  C        -16.3650  -37.6030  -15.9180 C.2   340  GLU340      0.2260
     60  O        -15.6080  -38.4870  -16.3270 O.2   340  GLU340     -0.2867
     61  CB       -16.4150  -36.3660  -18.1130 C.3   340  GLU340      0.0388
     62  CG       -17.6830  -36.9960  -18.6650 C.3   340  GLU340      0.1160
     63  CD       -17.6530  -38.5090  -18.6940 C.2   340  GLU340      0.3649
     64  OE1      -16.9270  -39.0680  -19.5390 O.co2 340  GLU340     -0.2457
     65  OE2      -18.3580  -39.1440  -17.8850 O.co2 340  GLU340     -0.2457
     66  N        -19.1970  -39.6220  -15.0410 N.3   342  LEU342     -0.1245
     67  CA       -20.4610  -40.3310  -15.1160 C.3   342  LEU342      0.1561
     68  C        -20.1910  -41.8270  -15.2650 C.2   342  LEU342      0.2260
     69  O        -19.0840  -42.2580  -15.6020 O.2   342  LEU342     -0.2867
     70  CB       -21.3060  -39.8180  -16.2870 C.3   342  LEU342      0.0270
     71  CG       -21.5740  -38.3110  -16.3310 C.3   342  LEU342      0.0019
     72  CD1      -22.2550  -37.9340  -17.6440 C.3   342  LEU342      0.0001
     73  CD2      -22.4150  -37.8420  -15.1470 C.3   342  LEU342      0.0001
     74  N        -24.8190  -33.2030  -24.0670 N.3   393  HIS393     -0.1226
     75  CA       -24.9490  -33.3500  -25.5150 C.3   393  HIS393      0.1752
     76  C        -25.3030  -34.7690  -25.9480 C.2   393  HIS393      0.2596
     77  O        -25.8020  -34.9480  -27.0650 O.2   393  HIS393     -0.2718
     78  CB       -23.6330  -32.9520  -26.1740 C.3   393  HIS393      0.0759
     79  CG       -22.4810  -33.7840  -25.7140 C.ar  393  HIS393      0.0818
     80  ND1      -21.8470  -33.5670  -24.5090 N.ar  393  HIS393     -0.2268
     81  CD2      -21.8860  -34.8690  -26.2630 C.ar  393  HIS393      0.1154
     82  CE1      -20.8890  -34.4610  -24.3530 C.ar  393  HIS393      0.1986
     83  NE2      -20.8960  -35.2670  -25.3980 N.ar  393  HIS393     -0.2212
     84  N        -25.0220  -35.7830  -25.1230 N.am  394  ASN394     -0.1974
     85  CA       -25.3210  -37.1710  -25.4590 C.3   394  ASN394      0.1688
     86  C        -26.7350  -37.5750  -25.0760 C.2   394  ASN394      0.2292
     87  O        -27.1740  -38.6660  -25.4630 O.2   394  ASN394     -0.2864
     88  CB       -24.3580  -38.1290  -24.7550 C.3   394  ASN394      0.1181
     89  CG       -22.9860  -38.1760  -25.3990 C.2   394  ASN394      0.2629
     90  OD1      -22.8300  -37.9380  -26.5950 O.2   394  ASN394     -0.2716
     91  ND2      -21.9830  -38.5090  -24.6040 N.am  394  ASN394     -0.0877
     92  N        -26.2290  -41.3510  -29.3670 N.3   465  PRO465     -0.2116
     93  CA       -25.1630  -42.3540  -29.4890 C.3   465  PRO465      0.1372
     94  C        -25.6780  -43.6450  -30.1120 C.2   465  PRO465      0.2244
     95  O        -26.7680  -44.1250  -29.7870 O.2   465  PRO465     -0.2868
     96  CB       -24.7030  -42.5610  -28.0410 C.3   465  PRO465      0.0268
     97  CG       -25.0820  -41.2990  -27.3360 C.3   465  PRO465      0.0207
     98  CD       -26.3430  -40.8210  -27.9980 C.3   465  PRO465      0.0892
@<TRIPOS>BOND
     1    20    19    2
     2    19    18    1
     3    94    95    2
     4    94    93    1
     5    93    92    1
     6    93    96    1
     7    92    98    1
     8    18    17    1
     9    18    21    1
    10    21    22    1
    11    96    97    1
    12    98    97    1
    13    77    76    2
    14    22    23   ar
    15    22    24   ar
    16    23    25   ar
    17    90    89    2
    18    81    79   ar
    19    81    83   ar
    20    10     9    1
    21    10    11    2
    22    78    79    1
    23    78    75    1
    24    76    75    1
    25    76    84   am
    26    79    80   ar
    27     9    12    1
    28     9     8    1
    29    24    27   ar
    30    24    26   ar
    31    75    74    1
    32    25    26   ar
    33    87    86    2
    34    85    84    1
    35    85    86    1
    36    85    88    1
    37    89    88    1
    38    89    91   am
    39    83    82   ar
    40    12    13    1
    41    27    29   ar
    42    26    28   ar
    43    13    14    1
    44    15    14    2
    45    80    82   ar
    46    14    16   am
    47    29    30   ar
    48    28    30   ar
    49     1     2    1
    50    46    43    1
    51     4     3    2
    52    40    39    1
    53     7     5    1
    54     2     3    1
    55     2     5    1
    56    43    42    1
    57    43    44    1
    58    45    44    2
    59    34    33    2
    60    39    41    1
    61    39    38    2
    62     5     6    1
    63    44    47   am
    64    51    52    1
    65    51    48    1
    66    37    38    1
    67    37    36    1
    68    54    52   ar
    69    54    56   ar
    70    52    53   ar
    71    47    48    1
    72    33    32    1
    73    56    55   ar
    74    53    55   ar
    75    64    63   ar
    76    48    49    1
    77    35    36    1
    78    35    32    1
    79    31    32    1
    80    50    49    2
    81    63    62    1
    82    63    65   ar
    83    62    61    1
    84    61    58    1
    85    72    71    1
    86    58    57    1
    87    58    59    1
    88    71    70    1
    89    71    73    1
    90    60    59    2
    91    70    67    1
    92    69    68    2
    93    68    67    1
    94    67    66    1
