@<TRIPOS>MOLECULE
tmp/5jiwA01.pdb
 87 84 0 0 0
SMALL
GASTEIGER

@<TRIPOS>ATOM
      1  N        -13.0250  -31.8540  -37.6550 N.3    52  THR52      -0.1203
      2  CA       -13.7820  -33.0930  -37.6260 C.3    52  THR52       0.1994
      3  C        -13.6890  -33.8340  -38.9550 C.2    52  THR52       0.2618
      4  O        -13.3480  -33.2660  -39.9990 O.2    52  THR52      -0.2717
      5  CB       -15.2470  -32.8170  -37.2730 C.3    52  THR52       0.1784
      6  OG1      -15.8230  -31.9480  -38.2540 O.3    52  THR52      -0.2211
      7  CG2      -15.3390  -32.1650  -35.8890 C.3    52  THR52       0.0376
      8  N        -14.0030  -35.1290  -38.8940 N.am   53  GLY53      -0.1942
      9  CA       -13.9660  -36.0030  -40.0480 C.3    53  GLY53       0.2014
     10  C        -15.2950  -36.6810  -40.3290 C.2    53  GLY53       0.2639
     11  O        -16.3600  -36.0920  -40.1170 O.2    53  GLY53      -0.2714
     12  N        -15.2500  -37.9210  -40.8120 N.am   54  TYR54      -0.1959
     13  CA       -16.4760  -38.6200  -41.1800 C.3    54  TYR54       0.1771
     14  C        -17.3340  -38.8580  -39.9400 C.2    54  TYR54       0.2620
     15  O        -16.8500  -39.3640  -38.9230 O.2    54  TYR54      -0.2715
     16  CB       -16.1510  -39.9460  -41.8710 C.3    54  TYR54       0.0574
     17  CG       -17.3510  -40.5950  -42.5150 C.ar   54  TYR54      -0.0198
     18  CD1      -17.7390  -40.2520  -43.8040 C.ar   54  TYR54      -0.0009
     19  CD2      -18.1000  -41.5460  -41.8360 C.ar   54  TYR54      -0.0009
     20  CE1      -18.8350  -40.8380  -44.3990 C.ar   54  TYR54       0.0417
     21  CE2      -19.2000  -42.1400  -42.4240 C.ar   54  TYR54       0.0417
     22  CZ       -19.5630  -41.7800  -43.7050 C.ar   54  TYR54       0.1957
     23  OH       -20.6580  -42.3620  -44.3000 O.3    54  TYR54      -0.2866
     24  N        -18.6120  -38.4840  -40.0260 N.am   55  GLY55      -0.1940
     25  CA       -19.5050  -38.5100  -38.8840 C.3    55  GLY55       0.2014
     26  C        -19.6160  -37.1990  -38.1310 C.2    55  GLY55       0.2638
     27  O        -20.5890  -37.0070  -37.3840 O.2    55  GLY55      -0.2714
     28  N        -18.6380  -36.3040  -38.2750 N.am   56  ASP56      -0.1971
     29  CA       -18.7370  -34.9260  -37.8010 C.3    56  ASP56       0.1709
     30  C        -18.6590  -34.8100  -36.2870 C.2    56  ASP56       0.2293
     31  O        -18.9840  -33.7510  -35.7220 O.2    56  ASP56      -0.2864
     32  CB       -20.0310  -34.2910  -38.3180 C.3    56  ASP56       0.1436
     33  CG       -20.2140  -34.5010  -39.8040 C.2    56  ASP56       0.3671
     34  OD1      -19.2940  -34.1430  -40.5690 O.co2  56  ASP56      -0.2456
     35  OD2      -21.2560  -35.0600  -40.2100 O.co2  56  ASP56      -0.2456
     36  N         -9.0310  -34.6550  -36.1650 N.3    62  PHE62      -0.1241
     37  CA        -7.7740  -34.8250  -36.8890 C.3    62  PHE62       0.1605
     38  C         -6.5660  -34.2830  -36.1320 C.2    62  PHE62       0.2264
     39  O         -5.4360  -34.5040  -36.5830 O.2    62  PHE62      -0.2867
     40  CB        -7.8480  -34.1390  -38.2630 C.3    62  PHE62       0.0534
     41  CG        -8.7710  -34.8150  -39.2400 C.ar   62  PHE62      -0.0203
     42  CD1       -8.7800  -36.1930  -39.3750 C.ar   62  PHE62      -0.0042
     43  CD2       -9.6240  -34.0660  -40.0300 C.ar   62  PHE62      -0.0042
     44  CE1       -9.6270  -36.8110  -40.2710 C.ar   62  PHE62      -0.0003
     45  CE2      -10.4700  -34.6760  -40.9260 C.ar   62  PHE62      -0.0003
     46  CZ       -10.4700  -36.0520  -41.0520 C.ar   62  PHE62      -0.0000
     47  N        -14.6050  -25.2420  -39.9290 N.3    70  TYR70      -0.1241
     48  CA       -16.0190  -24.9950  -40.1890 C.3    70  TYR70       0.1605
     49  C        -16.5750  -23.8810  -39.3080 C.2    70  TYR70       0.2264
     50  O        -17.6420  -23.3380  -39.6200 O.2    70  TYR70      -0.2867
     51  CB       -16.8410  -26.2730  -39.9670 C.3    70  TYR70       0.0534
     52  CG       -16.6430  -27.3640  -41.0070 C.ar   70  TYR70      -0.0201
     53  CD1      -16.1740  -27.0690  -42.2810 C.ar   70  TYR70      -0.0009
     54  CD2      -16.9450  -28.6890  -40.7110 C.ar   70  TYR70      -0.0009
     55  CE1      -15.9910  -28.0650  -43.2260 C.ar   70  TYR70       0.0417
     56  CE2      -16.7730  -29.6890  -41.6520 C.ar   70  TYR70       0.0417
     57  CZ       -16.2980  -29.3710  -42.9080 C.ar   70  TYR70       0.1957
     58  OH       -16.1270  -30.3630  -43.8440 O.3    70  TYR70      -0.2866
     59  N        -22.6800  -32.6130  -45.1540 N.3    98  GLY98      -0.1225
     60  CA       -22.2800  -32.9860  -46.5020 C.3    98  GLY98       0.1811
     61  C        -22.1550  -31.7760  -47.4070 C.2    98  GLY98       0.2280
     62  O        -21.1720  -31.6230  -48.1380 O.2    98  GLY98      -0.2866
     63  N        -19.0980  -29.7120  -46.2660 N.3   101  TYR101     -0.1241
     64  CA       -17.8290  -30.2470  -46.7490 C.3   101  TYR101      0.1605
     65  C        -17.6030  -29.8930  -48.2130 C.2   101  TYR101      0.2264
     66  O        -16.4710  -29.6180  -48.6260 O.2   101  TYR101     -0.2867
     67  CB       -17.8120  -31.7630  -46.5520 C.3   101  TYR101      0.0534
     68  CG       -16.5990  -32.4780  -47.0950 C.ar  101  TYR101     -0.0201
     69  CD1      -15.3910  -32.4540  -46.4130 C.ar  101  TYR101     -0.0009
     70  CD2      -16.6740  -33.2100  -48.2740 C.ar  101  TYR101     -0.0009
     71  CE1      -14.2840  -33.1210  -46.9010 C.ar  101  TYR101      0.0417
     72  CE2      -15.5720  -33.8800  -48.7680 C.ar  101  TYR101      0.0417
     73  CZ       -14.3810  -33.8340  -48.0750 C.ar  101  TYR101      0.1957
     74  OH       -13.2780  -34.5010  -48.5620 O.3   101  TYR101     -0.2866
     75  N         -3.7460  -35.7090  -46.7160 N.3   148  LYS148     -0.1245
     76  CA        -5.0680  -36.3190  -46.6940 C.3   148  LYS148      0.1561
     77  C         -5.8430  -35.9870  -47.9640 C.2   148  LYS148      0.2260
     78  O         -6.4050  -36.8760  -48.6150 O.2   148  LYS148     -0.2867
     79  CB        -5.8250  -35.8430  -45.4590 C.3   148  LYS148      0.0271
     80  CG        -7.1650  -36.5080  -45.2830 C.3   148  LYS148      0.0035
     81  CD        -7.6350  -36.4330  -43.8360 C.3   148  LYS148      0.0206
     82  CE        -8.3680  -37.7020  -43.4660 C.3   148  LYS148      0.1093
     83  NZ        -7.4700  -38.8830  -43.3910 N.3   148  LYS148     -0.1314
     84  N         -8.6610  -38.4820  -49.0470 N.3   153  GLY153     -0.1225
     85  CA        -9.2520  -38.6120  -47.7340 C.3   153  GLY153      0.1811
     86  C         -8.8370  -39.8460  -46.9660 C.2   153  GLY153      0.2280
     87  O         -9.3230  -40.0480  -45.8450 O.2   153  GLY153     -0.2866
@<TRIPOS>BOND
     1    84    85    1
     2    72    70   ar
     3    72    73   ar
     4    66    65    2
     5    78    77    2
     6    74    73    1
     7    70    68   ar
     8    65    64    1
     9    62    61    2
    10    73    71   ar
    11    77    76    1
    12    85    86    1
    13    61    60    1
    14    68    67    1
    15    68    69   ar
    16    86    87    2
    17    71    69   ar
    18    64    67    1
    19    64    63    1
    20    75    76    1
    21    76    79    1
    22    60    59    1
    23    79    80    1
    24    80    81    1
    25    20    18   ar
    26    20    22   ar
    27    23    22    1
    28    58    57    1
    29    81    82    1
    30    18    17   ar
    31    22    21   ar
    32    82    83    1
    33    55    57   ar
    34    55    53   ar
    35    57    56   ar
    36    17    16    1
    37    17    19   ar
    38    21    19   ar
    39    53    52   ar
    40    16    13    1
    41    56    54   ar
    42    13    12    1
    43    13    14    1
    44    46    45   ar
    45    46    44   ar
    46    52    54   ar
    47    52    51    1
    48    45    43   ar
    49    12    10   am
    50    34    33   ar
    51    10    11    2
    52    10     9    1
    53    44    42   ar
    54    35    33   ar
    55    48    51    1
    56    48    47    1
    57    48    49    1
    58     9     8    1
    59    43    41   ar
    60    24    14   am
    61    24    25    1
    62     4     3    2
    63    14    15    2
    64    33    32    1
    65    50    49    2
    66    42    41   ar
    67    41    40    1
    68     3     8   am
    69     3     2    1
    70    25    26    1
    71    32    29    1
    72    28    26   am
    73    28    29    1
    74    40    37    1
    75     6     5    1
    76    26    27    2
    77    29    30    1
    78     1     2    1
    79     2     5    1
    80     5     7    1
    81    37    36    1
    82    37    38    1
    83    39    38    2
    84    30    31    2
