@<TRIPOS>MOLECULE
tmp/5jiwA09.pdb
 129 126 0 0 0
SMALL
GASTEIGER

@<TRIPOS>ATOM
      1  N        -18.1870  -35.8510  -35.6140 N.3    57  SER57      -0.1217
      2  CA       -18.1440  -35.8190  -34.1540 C.3    57  SER57       0.1889
      3  C        -17.0030  -34.9350  -33.6490 C.2    57  SER57       0.2288
      4  O        -15.8540  -35.1120  -34.0670 O.2    57  SER57      -0.2866
      5  CB       -17.9750  -37.2190  -33.5790 C.3    57  SER57       0.2089
      6  OG       -17.7700  -37.1090  -32.1750 O.3    57  SER57      -0.2183
      7  N        -15.5880  -35.3930  -30.9490 N.3    59  TYR59      -0.1241
      8  CA       -14.7640  -36.2320  -30.0830 C.3    59  TYR59       0.1605
      9  C        -13.8410  -37.1560  -30.8780 C.2    59  TYR59       0.2264
     10  O        -13.1500  -37.9870  -30.2800 O.2    59  TYR59      -0.2867
     11  CB       -15.6590  -37.0300  -29.1060 C.3    59  TYR59       0.0534
     12  CG       -16.3920  -36.1050  -28.1500 C.ar   59  TYR59      -0.0201
     13  CD1      -17.6400  -35.5810  -28.4780 C.ar   59  TYR59      -0.0009
     14  CD2      -15.8140  -35.7060  -26.9490 C.ar   59  TYR59      -0.0009
     15  CE1      -18.2930  -34.7070  -27.6350 C.ar   59  TYR59       0.0417
     16  CE2      -16.4720  -34.8300  -26.0920 C.ar   59  TYR59       0.0417
     17  CZ       -17.7080  -34.3300  -26.4460 C.ar   59  TYR59       0.1957
     18  OH       -18.3640  -33.4440  -25.6120 O.3    59  TYR59      -0.2866
     19  N        -11.4830  -35.1660  -25.3540 N.3   215  PRO215     -0.2116
     20  CA       -11.5090  -36.5940  -25.0250 C.3   215  PRO215      0.1372
     21  C        -10.1700  -37.0350  -24.4560 C.2   215  PRO215      0.2244
     22  O         -9.1130  -36.5910  -24.9090 O.2   215  PRO215     -0.2868
     23  CB       -11.7820  -37.2600  -26.3780 C.3   215  PRO215      0.0268
     24  CG       -11.1940  -36.3190  -27.3680 C.3   215  PRO215      0.0207
     25  CD       -11.4200  -34.9360  -26.8100 C.3   215  PRO215      0.0892
     26  N        -14.5380  -48.7040  -28.4930 N.3   258  TRP258     -0.1241
     27  CA       -14.4650  -47.3710  -29.0860 C.3   258  TRP258      0.1605
     28  C        -13.5260  -47.3220  -30.2850 C.2   258  TRP258      0.2264
     29  O        -13.8090  -46.6280  -31.2680 O.2   258  TRP258     -0.2867
     30  CB       -14.0020  -46.3570  -28.0430 C.3   258  TRP258      0.0550
     31  CG       -14.8910  -46.2530  -26.8560 C.ar  258  TRP258      0.0003
     32  CD1      -16.1720  -46.7100  -26.7380 C.ar  258  TRP258      0.0946
     33  CD2      -14.5600  -45.6510  -25.6050 C.ar  258  TRP258      0.0152
     34  NE1      -16.6610  -46.4250  -25.4840 N.ar  258  TRP258     -0.2442
     35  CE2      -15.6870  -45.7770  -24.7690 C.ar  258  TRP258      0.0810
     36  CE3      -13.4170  -45.0190  -25.1080 C.ar  258  TRP258      0.0012
     37  CZ2      -15.7030  -45.2930  -23.4640 C.ar  258  TRP258      0.0191
     38  CZ3      -13.4360  -44.5380  -23.8140 C.ar  258  TRP258      0.0001
     39  CH2      -14.5700  -44.6770  -23.0070 C.ar  258  TRP258      0.0015
     40  N        -10.3390  -46.0980  -30.2410 N.3   260  ASN260     -0.1240
     41  CA        -9.2610  -45.1290  -30.1250 C.3   260  ASN260      0.1653
     42  C         -7.9360  -45.8380  -29.8550 C.2   260  ASN260      0.2266
     43  O         -7.9020  -46.8650  -29.1710 O.2   260  ASN260     -0.2867
     44  CB        -9.5200  -44.1410  -28.9900 C.3   260  ASN260      0.1155
     45  CG       -10.8090  -43.3800  -29.1600 C.2   260  ASN260      0.2627
     46  OD1      -11.8830  -43.9340  -28.9770 O.2   260  ASN260     -0.2716
     47  ND2      -10.7080  -42.1010  -29.4980 N.am  260  ASN260     -0.0877
     48  N        -13.0270  -29.5630  -19.3970 N.3   291  ARG291     -0.1245
     49  CA       -13.6040  -30.8660  -19.0870 C.3   291  ARG291      0.1563
     50  C        -12.8250  -31.9550  -19.8210 C.2   291  ARG291      0.2260
     51  O        -12.4750  -31.7880  -20.9890 O.2   291  ARG291     -0.2867
     52  CB       -15.0760  -30.8610  -19.5100 C.3   291  ARG291      0.0307
     53  CG       -15.8570  -32.1620  -19.4640 C.3   291  ARG291      0.0489
     54  CD       -17.1170  -31.9600  -20.3160 C.3   291  ARG291      0.2205
     55  NE       -18.1520  -32.9800  -20.1870 N.pl3 291  ARG291     -0.0865
     56  CZ       -18.2440  -34.0740  -20.9380 C.cat 291  ARG291      0.5346
     57  NH1      -17.3340  -34.3460  -21.8680 N.pl3 291  ARG291      0.1354
     58  NH2      -19.2420  -34.9200  -20.7330 N.pl3 291  ARG291      0.1354
     59  N        -13.2530  -35.8290  -20.9710 N.3   293  ALA293     -0.1231
     60  CA       -14.1780  -36.9440  -21.1130 C.3   293  ALA293      0.1694
     61  C        -13.4930  -38.2570  -20.7510 C.2   293  ALA293      0.2592
     62  O        -12.3320  -38.4910  -21.1060 O.2   293  ALA293     -0.2718
     63  CB       -14.7080  -37.0140  -22.5480 C.3   293  ALA293      0.0304
     64  N        -14.2370  -39.1180  -20.0540 N.am  294  HIS294     -0.1976
     65  CA       -13.7400  -40.3920  -19.5260 C.3   294  HIS294      0.1656
     66  C        -12.5340  -40.1720  -18.6090 C.2   294  HIS294      0.2291
     67  O        -11.4990  -40.8310  -18.7370 O.2   294  HIS294     -0.2864
     68  CB       -13.4010  -41.3780  -20.6480 C.3   294  HIS294      0.0771
     69  CG       -13.3700  -42.8100  -20.1980 C.ar  294  HIS294      0.0820
     70  ND1      -14.4530  -43.4310  -19.6100 N.ar  294  HIS294     -0.2267
     71  CD2      -12.3870  -43.7410  -20.2500 C.ar  294  HIS294      0.1154
     72  CE1      -14.1350  -44.6800  -19.3150 C.ar  294  HIS294      0.1986
     73  NE2      -12.8860  -44.8920  -19.6910 N.ar  294  HIS294     -0.2212
     74  N        -15.2440  -35.4940  -16.1200 N.3   340  GLU340     -0.1245
     75  CA       -16.4100  -36.2410  -16.5940 C.3   340  GLU340      0.1567
     76  C        -16.3650  -37.6030  -15.9180 C.2   340  GLU340      0.2260
     77  O        -15.6080  -38.4870  -16.3270 O.2   340  GLU340     -0.2867
     78  CB       -16.4150  -36.3660  -18.1130 C.3   340  GLU340      0.0388
     79  CG       -17.6830  -36.9960  -18.6650 C.3   340  GLU340      0.1160
     80  CD       -17.6530  -38.5090  -18.6940 C.2   340  GLU340      0.3649
     81  OE1      -16.9270  -39.0680  -19.5390 O.co2 340  GLU340     -0.2457
     82  OE2      -18.3580  -39.1440  -17.8850 O.co2 340  GLU340     -0.2457
     83  N        -24.8190  -33.2030  -24.0670 N.3   393  HIS393     -0.1226
     84  CA       -24.9490  -33.3500  -25.5150 C.3   393  HIS393      0.1752
     85  C        -25.3030  -34.7690  -25.9480 C.2   393  HIS393      0.2596
     86  O        -25.8020  -34.9480  -27.0650 O.2   393  HIS393     -0.2718
     87  CB       -23.6330  -32.9520  -26.1740 C.3   393  HIS393      0.0759
     88  CG       -22.4810  -33.7840  -25.7140 C.ar  393  HIS393      0.0818
     89  ND1      -21.8470  -33.5670  -24.5090 N.ar  393  HIS393     -0.2268
     90  CD2      -21.8860  -34.8690  -26.2630 C.ar  393  HIS393      0.1154
     91  CE1      -20.8890  -34.4610  -24.3530 C.ar  393  HIS393      0.1986
     92  NE2      -20.8960  -35.2670  -25.3980 N.ar  393  HIS393     -0.2212
     93  N        -25.0220  -35.7830  -25.1230 N.am  394  ASN394     -0.1974
     94  CA       -25.3210  -37.1710  -25.4590 C.3   394  ASN394      0.1688
     95  C        -26.7350  -37.5750  -25.0760 C.2   394  ASN394      0.2292
     96  O        -27.1740  -38.6660  -25.4630 O.2   394  ASN394     -0.2864
     97  CB       -24.3580  -38.1290  -24.7550 C.3   394  ASN394      0.1181
     98  CG       -22.9860  -38.1760  -25.3990 C.2   394  ASN394      0.2629
     99  OD1      -22.8300  -37.9380  -26.5950 O.2   394  ASN394     -0.2716
    100  ND2      -21.9830  -38.5090  -24.6040 N.am  394  ASN394     -0.0877
    101  N        -26.7530  -35.1560  -29.9740 N.3   463  ASN463     -0.1240
    102  CA       -26.1770  -36.4340  -30.3680 C.3   463  ASN463      0.1653
    103  C        -27.0070  -37.5850  -29.8160 C.2   463  ASN463      0.2266
    104  O        -27.4430  -37.5560  -28.6610 O.2   463  ASN463     -0.2867
    105  CB       -24.7260  -36.5610  -29.8770 C.3   463  ASN463      0.1155
    106  CG       -24.0880  -37.8800  -30.2810 C.2   463  ASN463      0.2627
    107  OD1      -24.1330  -38.2830  -31.4550 O.2   463  ASN463     -0.2716
    108  ND2      -23.4970  -38.5680  -29.3090 N.am  463  ASN463     -0.0877
    109  N        -26.2290  -41.3510  -29.3670 N.3   465  PRO465     -0.2116
    110  CA       -25.1630  -42.3540  -29.4890 C.3   465  PRO465      0.1372
    111  C        -25.6780  -43.6450  -30.1120 C.2   465  PRO465      0.2244
    112  O        -26.7680  -44.1250  -29.7870 O.2   465  PRO465     -0.2868
    113  CB       -24.7030  -42.5610  -28.0410 C.3   465  PRO465      0.0268
    114  CG       -25.0820  -41.2990  -27.3360 C.3   465  PRO465      0.0207
    115  CD       -26.3430  -40.8210  -27.9980 C.3   465  PRO465      0.0892
    116  N        -24.9310  -33.8560  -34.2490 N.3   472  TRP472     -0.1241
    117  CA       -24.1260  -32.6460  -34.1290 C.3   472  TRP472      0.1605
    118  C        -24.6580  -31.5080  -34.9960 C.2   472  TRP472      0.2264
    119  O        -23.9260  -30.5650  -35.2960 O.2   472  TRP472     -0.2867
    120  CB       -22.6530  -32.9300  -34.4630 C.3   472  TRP472      0.0550
    121  CG       -22.1460  -34.2330  -33.8610 C.ar  472  TRP472      0.0003
    122  CD1      -21.8560  -35.3850  -34.5350 C.ar  472  TRP472      0.0946
    123  CD2      -21.8890  -34.5080  -32.4740 C.ar  472  TRP472      0.0152
    124  NE1      -21.4420  -36.3590  -33.6610 N.ar  472  TRP472     -0.2442
    125  CE2      -21.4500  -35.8480  -32.3890 C.ar  472  TRP472      0.0810
    126  CE3      -21.9910  -33.7580  -31.3000 C.ar  472  TRP472      0.0012
    127  CZ2      -21.1050  -36.4480  -31.1780 C.ar  472  TRP472      0.0191
    128  CZ3      -21.6470  -34.3540  -30.0980 C.ar  472  TRP472      0.0001
    129  CH2      -21.2100  -35.6860  -30.0440 C.ar  472  TRP472      0.0015
@<TRIPOS>BOND
     1     1     2    1
     2   119   118    2
     3   118   117    1
     4   122   121   ar
     5   122   124   ar
     6   120   117    1
     7   120   121    1
     8   116   117    1
     9     2     3    1
    10     2     5    1
    11     4     3    2
    12   121   123   ar
    13   124   125   ar
    14     5     6    1
    15   123   125   ar
    16   123   126   ar
    17   125   127   ar
    18   107   106    2
    19   126   128   ar
    20    29    28    2
    21   127   129   ar
    22     7     8    1
    23     9    10    2
    24     9     8    1
    25   102   101    1
    26   102   105    1
    27   102   103    1
    28    28    27    1
    29   106   105    1
    30   106   108   am
    31    40    41    1
    32    41    42    1
    33    41    44    1
    34   111   112    2
    35   111   110    1
    36   128   129   ar
    37     8    11    1
    38    42    43    2
    39   103   104    2
    40    47    45   am
    41   110   109    1
    42   110   113    1
    43   109   115    1
    44    45    44    1
    45    45    46    2
    46    11    12    1
    47    27    26    1
    48    27    30    1
    49    13    12   ar
    50    13    15   ar
    51    12    14   ar
    52    30    31    1
    53   113   114    1
    54   115   114    1
    55    15    17   ar
    56    24    25    1
    57    24    23    1
    58    86    85    2
    59    14    16   ar
    60    31    32   ar
    61    31    33   ar
    62    25    19    1
    63    32    34   ar
    64    99    98    2
    65    17    16   ar
    66    17    18    1
    67    23    20    1
    68    90    88   ar
    69    90    92   ar
    70    87    88    1
    71    87    84    1
    72    85    84    1
    73    85    93   am
    74    88    89   ar
    75    33    36   ar
    76    33    35   ar
    77    84    83    1
    78    34    35   ar
    79    96    95    2
    80    94    93    1
    81    94    95    1
    82    94    97    1
    83    98    97    1
    84    98   100   am
    85    92    91   ar
    86    19    20    1
    87    36    38   ar
    88    20    21    1
    89    22    21    2
    90    35    37   ar
    91    89    91   ar
    92    38    39   ar
    93    37    39   ar
    94    63    60    1
    95    57    56    1
    96    60    59    1
    97    60    61    1
    98    62    61    2
    99    51    50    2
   100    56    58    1
   101    56    55    2
   102    61    64   am
   103    68    69    1
   104    68    65    1
   105    54    55    1
   106    54    53    1
   107    71    69   ar
   108    71    73   ar
   109    69    70   ar
   110    64    65    1
   111    50    49    1
   112    73    72   ar
   113    70    72   ar
   114    81    80   ar
   115    65    66    1
   116    52    53    1
   117    52    49    1
   118    48    49    1
   119    67    66    2
   120    80    79    1
   121    80    82   ar
   122    79    78    1
   123    78    75    1
   124    75    74    1
   125    75    76    1
   126    77    76    2
