@<TRIPOS>MOLECULE
tmp/5jiwA07.pdb
 105 101 0 0 0
SMALL
GASTEIGER

@<TRIPOS>ATOM
      1  N        -14.9200  -49.8440  -22.8070 N.3   246  VAL246     -0.1245
      2  CA       -15.3010  -50.1570  -21.4260 C.3   246  VAL246      0.1561
      3  C        -15.9240  -51.5410  -21.3710 C.2   246  VAL246      0.2260
      4  O        -16.5520  -52.0100  -22.3310 O.2   246  VAL246     -0.2867
      5  CB       -16.2890  -49.1200  -20.8420 C.3   246  VAL246      0.0252
      6  CG1      -15.5930  -47.7790  -20.6450 C.3   246  VAL246      0.0019
      7  CG2      -17.5070  -48.9620  -21.7300 C.3   246  VAL246      0.0019
      8  N        -24.3640  -53.3030  -16.5020 N.3   251  PHE251     -0.1241
      9  CA       -25.2830  -52.3380  -17.1000 C.3   251  PHE251      0.1605
     10  C        -25.4100  -52.6470  -18.5850 C.2   251  PHE251      0.2264
     11  O        -26.4430  -52.3700  -19.2040 O.2   251  PHE251     -0.2867
     12  CB       -24.8090  -50.8920  -16.8780 C.3   251  PHE251      0.0534
     13  CG       -25.2780  -50.2680  -15.5760 C.ar  251  PHE251     -0.0203
     14  CD1      -26.5320  -50.5500  -15.0480 C.ar  251  PHE251     -0.0042
     15  CD2      -24.4600  -49.3800  -14.8900 C.ar  251  PHE251     -0.0042
     16  CE1      -26.9530  -49.9680  -13.8610 C.ar  251  PHE251     -0.0003
     17  CE2      -24.8780  -48.7960  -13.7030 C.ar  251  PHE251     -0.0003
     18  CZ       -26.1250  -49.0910  -13.1890 C.ar  251  PHE251     -0.0000
     19  N        -18.4030  -51.7440  -24.5700 N.3   256  GLN256     -0.1245
     20  CA       -18.2750  -50.8440  -25.7100 C.3   256  GLN256      0.1566
     21  C        -16.8500  -50.8880  -26.2390 C.2   256  GLN256      0.2260
     22  O        -15.8980  -50.7830  -25.4620 O.2   256  GLN256     -0.2867
     23  CB       -18.6260  -49.4000  -25.3250 C.3   256  GLN256      0.0367
     24  CG       -19.9690  -49.2290  -24.6400 C.3   256  GLN256      0.0905
     25  CD       -20.1940  -47.8070  -24.1450 C.2   256  GLN256      0.2608
     26  OE1      -19.4710  -46.8860  -24.5200 O.2   256  GLN256     -0.2717
     27  NE2      -21.1940  -47.6300  -23.2890 N.am  256  GLN256     -0.0878
     28  N        -14.5380  -48.7040  -28.4930 N.3   258  TRP258     -0.1241
     29  CA       -14.4650  -47.3710  -29.0860 C.3   258  TRP258      0.1605
     30  C        -13.5260  -47.3220  -30.2850 C.2   258  TRP258      0.2264
     31  O        -13.8090  -46.6280  -31.2680 O.2   258  TRP258     -0.2867
     32  CB       -14.0020  -46.3570  -28.0430 C.3   258  TRP258      0.0550
     33  CG       -14.8910  -46.2530  -26.8560 C.ar  258  TRP258      0.0003
     34  CD1      -16.1720  -46.7100  -26.7380 C.ar  258  TRP258      0.0946
     35  CD2      -14.5600  -45.6510  -25.6050 C.ar  258  TRP258      0.0152
     36  NE1      -16.6610  -46.4250  -25.4840 N.ar  258  TRP258     -0.2442
     37  CE2      -15.6870  -45.7770  -24.7690 C.ar  258  TRP258      0.0810
     38  CE3      -13.4170  -45.0190  -25.1080 C.ar  258  TRP258      0.0012
     39  CZ2      -15.7030  -45.2930  -23.4640 C.ar  258  TRP258      0.0191
     40  CZ3      -13.4360  -44.5380  -23.8140 C.ar  258  TRP258      0.0001
     41  CH2      -14.5700  -44.6770  -23.0070 C.ar  258  TRP258      0.0015
     42  N        -14.2370  -39.1180  -20.0540 N.3   294  HIS294     -0.1241
     43  CA       -13.7400  -40.3920  -19.5260 C.3   294  HIS294      0.1621
     44  C        -12.5340  -40.1720  -18.6090 C.2   294  HIS294      0.2264
     45  O        -11.4990  -40.8310  -18.7370 O.2   294  HIS294     -0.2867
     46  CB       -13.4010  -41.3780  -20.6480 C.3   294  HIS294      0.0745
     47  CG       -13.3700  -42.8100  -20.1980 C.ar  294  HIS294      0.0817
     48  ND1      -14.4530  -43.4310  -19.6100 N.ar  294  HIS294     -0.2268
     49  CD2      -12.3870  -43.7410  -20.2500 C.ar  294  HIS294      0.1154
     50  CE1      -14.1350  -44.6800  -19.3150 C.ar  294  HIS294      0.1986
     51  NE2      -12.8860  -44.8920  -19.6910 N.ar  294  HIS294     -0.2212
     52  N        -15.2440  -35.4940  -16.1200 N.3   340  GLU340     -0.1245
     53  CA       -16.4100  -36.2410  -16.5940 C.3   340  GLU340      0.1567
     54  C        -16.3650  -37.6030  -15.9180 C.2   340  GLU340      0.2260
     55  O        -15.6080  -38.4870  -16.3270 O.2   340  GLU340     -0.2867
     56  CB       -16.4150  -36.3660  -18.1130 C.3   340  GLU340      0.0388
     57  CG       -17.6830  -36.9960  -18.6650 C.3   340  GLU340      0.1160
     58  CD       -17.6530  -38.5090  -18.6940 C.2   340  GLU340      0.3649
     59  OE1      -16.9270  -39.0680  -19.5390 O.co2 340  GLU340     -0.2457
     60  OE2      -18.3580  -39.1440  -17.8850 O.co2 340  GLU340     -0.2457
     61  N        -19.1970  -39.6220  -15.0410 N.3   342  LEU342     -0.1231
     62  CA       -20.4610  -40.3310  -15.1160 C.3   342  LEU342      0.1693
     63  C        -20.1910  -41.8270  -15.2650 C.2   342  LEU342      0.2593
     64  O        -19.0840  -42.2580  -15.6020 O.2   342  LEU342     -0.2718
     65  CB       -21.3060  -39.8180  -16.2870 C.3   342  LEU342      0.0284
     66  CG       -21.5740  -38.3110  -16.3310 C.3   342  LEU342      0.0019
     67  CD1      -22.2550  -37.9340  -17.6440 C.3   342  LEU342      0.0001
     68  CD2      -22.4150  -37.8420  -15.1470 C.3   342  LEU342      0.0001
     69  N        -21.2130  -42.6230  -15.0050 N.am  343  GLY343     -0.1942
     70  CA       -21.0110  -44.0550  -14.9660 C.3   343  GLY343      0.2014
     71  C        -20.3240  -44.4590  -13.6810 C.2   343  GLY343      0.2638
     72  O        -19.7080  -43.6270  -13.0090 O.2   343  GLY343     -0.2714
     73  N        -20.4160  -45.7400  -13.3310 N.am  344  VAL344     -0.1977
     74  CA       -19.9050  -46.2010  -12.0480 C.3   344  VAL344      0.1596
     75  C        -18.4000  -45.9950  -11.9960 C.2   344  VAL344      0.2287
     76  O        -17.6640  -46.4030  -12.9030 O.2   344  VAL344     -0.2864
     77  CB       -20.2970  -47.6690  -11.8280 C.3   344  VAL344      0.0276
     78  CG1      -19.7130  -48.2010  -10.5280 C.3   344  VAL344      0.0022
     79  CG2      -21.8170  -47.7970  -11.8260 C.3   344  VAL344      0.0022
     80  N        -30.7010  -38.7700  -15.2420 N.3   366  PHE366     -0.1241
     81  CA       -30.3470  -40.0860  -14.7090 C.3   366  PHE366      0.1605
     82  C        -30.7710  -40.2780  -13.2490 C.2   366  PHE366      0.2264
     83  O        -30.4080  -41.2960  -12.6440 O.2   366  PHE366     -0.2867
     84  CB       -28.8340  -40.3170  -14.7930 C.3   366  PHE366      0.0534
     85  CG       -28.2610  -40.2850  -16.1840 C.ar  366  PHE366     -0.0203
     86  CD1      -29.0150  -40.6570  -17.2720 C.ar  366  PHE366     -0.0042
     87  CD2      -26.9370  -39.9050  -16.3820 C.ar  366  PHE366     -0.0042
     88  CE1      -28.4720  -40.6400  -18.5440 C.ar  366  PHE366     -0.0003
     89  CE2      -26.3870  -39.8840  -17.6530 C.ar  366  PHE366     -0.0003
     90  CZ       -27.1570  -40.2590  -18.7300 C.ar  366  PHE366     -0.0000
     91  N        -25.0220  -35.7830  -25.1230 N.3   394  ASN394     -0.1240
     92  CA       -25.3210  -37.1710  -25.4590 C.3   394  ASN394      0.1653
     93  C        -26.7350  -37.5750  -25.0760 C.2   394  ASN394      0.2266
     94  O        -27.1740  -38.6660  -25.4630 O.2   394  ASN394     -0.2867
     95  CB       -24.3580  -38.1290  -24.7550 C.3   394  ASN394      0.1155
     96  CG       -22.9860  -38.1760  -25.3990 C.2   394  ASN394      0.2627
     97  OD1      -22.8300  -37.9380  -26.5950 O.2   394  ASN394     -0.2716
     98  ND2      -21.9830  -38.5090  -24.6040 N.am  394  ASN394     -0.0877
     99  N        -26.2290  -41.3510  -29.3670 N.3   465  PRO465     -0.2116
    100  CA       -25.1630  -42.3540  -29.4890 C.3   465  PRO465      0.1372
    101  C        -25.6780  -43.6450  -30.1120 C.2   465  PRO465      0.2244
    102  O        -26.7680  -44.1250  -29.7870 O.2   465  PRO465     -0.2868
    103  CB       -24.7030  -42.5610  -28.0410 C.3   465  PRO465      0.0268
    104  CG       -25.0820  -41.2990  -27.3360 C.3   465  PRO465      0.0207
    105  CD       -26.3430  -40.8210  -27.9980 C.3   465  PRO465      0.0892
@<TRIPOS>BOND
     1    31    30    2
     2    30    29    1
     3   101   102    2
     4   101   100    1
     5   100    99    1
     6   100   103    1
     7    99   105    1
     8    29    28    1
     9    29    32    1
    10    32    33    1
    11   103   104    1
    12   105   104    1
    13    33    34   ar
    14    33    35   ar
    15    34    36   ar
    16    97    96    2
    17    21    20    1
    18    21    22    2
    19    20    23    1
    20    20    19    1
    21    35    38   ar
    22    35    37   ar
    23    36    37   ar
    24    94    93    2
    25    92    91    1
    26    92    93    1
    27    92    95    1
    28    96    95    1
    29    96    98   am
    30    23    24    1
    31    38    40   ar
    32    37    39   ar
    33    24    25    1
    34    26    25    2
    35    25    27   am
    36    40    41   ar
    37    39    41   ar
    38     1     2    1
    39     4     3    2
    40     7     5    1
    41     2     3    1
    42     2     5    1
    43     5     6    1
    44    46    47    1
    45    46    43    1
    46    49    47   ar
    47    49    51   ar
    48    47    48   ar
    49    42    43    1
    50    51    50   ar
    51    48    50   ar
    52    59    58   ar
    53    43    44    1
    54    11    10    2
    55    45    44    2
    56    90    88   ar
    57    90    89   ar
    58    58    57    1
    59    58    60   ar
    60    57    56    1
    61    10     9    1
    62    88    86   ar
    63    56    53    1
    64    89    87   ar
    65    67    66    1
    66    86    85   ar
    67     9    12    1
    68     9     8    1
    69    12    13    1
    70    53    52    1
    71    53    54    1
    72    87    85   ar
    73    66    65    1
    74    66    68    1
    75    55    54    2
    76    65    62    1
    77    85    84    1
    78    64    63    2
    79    13    14   ar
    80    13    15   ar
    81    63    62    1
    82    63    69   am
    83    80    81    1
    84    62    61    1
    85    14    16   ar
    86    69    70    1
    87    70    71    1
    88    15    17   ar
    89    84    81    1
    90    81    82    1
    91    16    18   ar
    92    17    18   ar
    93    71    73   am
    94    71    72    2
    95    73    74    1
    96    82    83    2
    97    76    75    2
    98    74    75    1
    99    74    77    1
   100    77    79    1
   101    77    78    1
