@<TRIPOS>MOLECULE
tmp/5jixA00.pdb
 73 67 0 0 0
SMALL
GASTEIGER

@<TRIPOS>ATOM
      1  N        -19.8290   16.3560    0.5130 N.3    41  LYS41      -0.1231
      2  CA       -19.8180   15.3100    1.5200 C.3    41  LYS41       0.1693
      3  C        -21.2290   14.7950    1.7630 C.2    41  LYS41       0.2592
      4  O        -22.1560   15.5780    1.9870 O.2    41  LYS41      -0.2718
      5  CB       -19.2610   15.8530    2.8370 C.3    41  LYS41       0.0285
      6  CG       -19.2040   14.7860    3.9140 C.3    41  LYS41       0.0035
      7  CD       -18.5420   15.2960    5.1480 C.3    41  LYS41       0.0206
      8  CE       -18.5220   14.1770    6.1830 C.3    41  LYS41       0.1093
      9  NZ       -17.9190   14.6330    7.4200 N.3    41  LYS41      -0.1314
     10  N        -21.3870   13.4720    1.7810 N.am   42  GLY42      -0.1957
     11  CA       -22.6830   12.8710    2.0160 C.3    42  GLY42       0.1869
     12  C        -23.5390   12.6460    0.7820 C.2    42  GLY42       0.2309
     13  O        -24.5850   11.9860    0.8870 O.2    42  GLY42      -0.2863
     14  N        -17.4570    6.2030    0.0800 N.3    64  LYS64      -0.1245
     15  CA       -17.8500    5.0430    0.8570 C.3    64  LYS64       0.1561
     16  C        -18.7650    4.1610    0.0280 C.2    64  LYS64       0.2260
     17  O        -19.6030    4.6470   -0.7250 O.2    64  LYS64      -0.2867
     18  CB       -18.6650    5.4590    2.0820 C.3    64  LYS64       0.0271
     19  CG       -17.9770    6.2940    3.0950 C.3    64  LYS64       0.0035
     20  CD       -18.9810    6.7150    4.1360 C.3    64  LYS64       0.0206
     21  CE       -18.2800    7.1190    5.4040 C.3    64  LYS64       0.1093
     22  NZ       -19.2360    7.6730    6.4080 N.3    64  LYS64      -0.1314
     23  N        -21.6950    1.4710    0.7000 N.3    66  THR66      -0.1218
     24  CA       -22.5860    0.9370    1.7180 C.3    66  THR66       0.1862
     25  C        -23.6370    0.0710    1.0350 C.2    66  THR66       0.2287
     26  O        -23.9270    0.2320   -0.1530 O.2    66  THR66      -0.2866
     27  CB       -23.2590    2.0230    2.5650 C.3    66  THR66       0.1770
     28  OG1      -24.2760    2.6750    1.7910 O.3    66  THR66      -0.2211
     29  CG2      -22.2380    3.0390    3.0600 C.3    66  THR66       0.0375
     30  N        -27.9580    0.7970    5.7970 N.3    75  PRO75      -0.2116
     31  CA       -26.9100    0.1510    5.0010 C.3    75  PRO75       0.1372
     32  C        -25.6040    0.1050    5.7790 C.2    75  PRO75       0.2244
     33  O        -25.2490    1.0410    6.4990 O.2    75  PRO75      -0.2868
     34  CB       -26.7920    1.0450    3.7640 C.3    75  PRO75       0.0268
     35  CG       -28.1330    1.7290    3.6550 C.3    75  PRO75       0.0207
     36  CD       -28.5700    1.9330    5.0870 C.3    75  PRO75       0.0892
     37  N        -21.4060   -0.3280    6.0520 N.3    77  LEU77      -0.1245
     38  CA       -20.2060    0.1550    5.3830 C.3    77  LEU77       0.1561
     39  C        -19.3310   -1.0230    4.9590 C.2    77  LEU77       0.2260
     40  O        -18.8350   -1.7840    5.8030 O.2    77  LEU77      -0.2867
     41  CB       -19.4460    1.1330    6.2740 C.3    77  LEU77       0.0270
     42  CG       -18.1590    1.7130    5.7080 C.3    77  LEU77       0.0019
     43  CD1      -18.4190    2.5580    4.4560 C.3    77  LEU77       0.0001
     44  CD2      -17.4580    2.5330    6.8020 C.3    77  LEU77       0.0001
     45  N        -14.1230    1.5760    1.3960 N.3    80  THR80      -0.1218
     46  CA       -14.0120    2.9030    0.8090 C.3    80  THR80       0.1862
     47  C        -13.0910    2.8130   -0.3900 C.2    80  THR80       0.2287
     48  O        -12.2540    1.9150   -0.4850 O.2    80  THR80      -0.2866
     49  CB       -13.4600    3.9690    1.7780 C.3    80  THR80       0.1770
     50  OG1      -12.0980    3.6630    2.0860 O.3    80  THR80      -0.2211
     51  CG2      -14.2660    4.0080    3.0710 C.3    80  THR80       0.0375
     52  N        -21.1150    6.8380   -1.7820 N.3   103  ILE103     -0.1231
     53  CA       -21.3670    8.0970   -1.0840 C.3   103  ILE103      0.1692
     54  C        -20.0640    8.8790   -0.9790 C.2   103  ILE103      0.2592
     55  O        -19.0560    8.3660   -0.4780 O.2   103  ILE103     -0.2718
     56  CB       -21.9670    7.8400    0.3090 C.3   103  ILE103      0.0266
     57  CG1      -23.2730    7.0490    0.1860 C.3   103  ILE103      0.0019
     58  CG2      -22.2020    9.1800    1.0220 C.3   103  ILE103      0.0020
     59  CD1      -23.8020    6.5230    1.5090 C.3   103  ILE103      0.0001
     60  N        -20.1000   10.1470   -1.3720 N.am  104  ALA104     -0.1966
     61  CA       -18.9370   11.0010   -1.1650 C.3   104  ALA104      0.1728
     62  C        -18.6510   11.1570    0.3210 C.2   104  ALA104      0.2616
     63  O        -19.5360   11.5070    1.1150 O.2   104  ALA104     -0.2715
     64  CB       -19.1490   12.3690   -1.7980 C.3   104  ALA104      0.0334
     65  N        -17.3990   10.9140    0.6900 N.am  105  GLU105     -0.1977
     66  CA       -16.9280   10.9530    2.0720 C.3   105  GLU105      0.1602
     67  C        -16.3950   12.3190    2.4770 C.2   105  GLU105      0.2287
     68  O        -16.1650   12.5590    3.6760 O.2   105  GLU105     -0.2864
     69  CB       -15.8390    9.8780    2.1770 C.3   105  GLU105      0.0415
     70  CG       -15.0740    9.7310    3.4260 C.3   105  GLU105      0.1163
     71  CD       -14.0960    8.5750    3.2870 C.2   105  GLU105      0.3649
     72  OE1      -14.5260    7.5130    2.7810 O.co2 105  GLU105     -0.2457
     73  OE2      -12.9070    8.7360    3.6350 O.co2 105  GLU105     -0.2457
@<TRIPOS>BOND
     1    64    61    1
     2    52    53    1
     3    60    61    1
     4    60    54   am
     5    61    62    1
     6    53    54    1
     7    53    56    1
     8    54    55    2
     9    17    16    2
    10    48    47    2
    11    47    46    1
    12    26    25    2
    13    16    15    1
    14    14    15    1
    15    57    56    1
    16    57    59    1
    17    56    58    1
    18    62    65   am
    19    62    63    2
    20     1     2    1
    21    65    66    1
    22    23    24    1
    23    12    13    2
    24    12    11    1
    25    46    45    1
    26    46    49    1
    27    15    18    1
    28    25    24    1
    29     2     3    1
    30     2     5    1
    31    24    27    1
    32     3    10   am
    33     3     4    2
    34    49    50    1
    35    49    51    1
    36    10    11    1
    37    28    27    1
    38    66    69    1
    39    66    67    1
    40    18    19    1
    41    69    70    1
    42    67    68    2
    43    27    29    1
    44    72    71   ar
    45     5     6    1
    46    19    20    1
    47    71    70    1
    48    71    73   ar
    49    35    34    1
    50    35    36    1
    51    34    31    1
    52     6     7    1
    53    20    21    1
    54    43    42    1
    55    39    38    1
    56    39    40    2
    57    31    32    1
    58    31    30    1
    59    36    30    1
    60     7     8    1
    61    38    37    1
    62    38    41    1
    63    21    22    1
    64    42    41    1
    65    42    44    1
    66    32    33    2
    67     8     9    1
