@<TRIPOS>MOLECULE
tmp/5jizA00.pdb
 198 188 0 0 0
SMALL
GASTEIGER

@<TRIPOS>ATOM
      1  N        -24.4210   -7.8970    5.0710 N.3    47  ILE47      -0.1245
      2  CA       -25.3270   -6.8420    5.5160 C.3    47  ILE47       0.1561
      3  C        -26.1990   -6.4600    4.3320 C.2    47  ILE47       0.2260
      4  O        -25.7190   -6.3730    3.1990 O.2    47  ILE47      -0.2867
      5  CB       -24.5190   -5.6300    6.0360 C.3    47  ILE47       0.0252
      6  CG1      -23.8990   -5.9680    7.3930 C.3    47  ILE47       0.0019
      7  CG2      -25.3670   -4.3660    6.1110 C.3    47  ILE47       0.0019
      8  CD1      -23.0020   -4.8600    7.9890 C.3    47  ILE47       0.0001
      9  N        -19.0790   -3.1770   -1.2800 N.3    66  VAL66      -0.1245
     10  CA       -19.9980   -2.2400   -0.6320 C.3    66  VAL66       0.1561
     11  C        -20.8430   -1.6180   -1.7220 C.2    66  VAL66       0.2260
     12  O        -20.3030   -0.9770   -2.6270 O.2    66  VAL66      -0.2867
     13  CB       -19.2480   -1.1340    0.1460 C.3    66  VAL66       0.0252
     14  CG1      -20.1970   -0.2560    0.9650 C.3    66  VAL66       0.0019
     15  CG2      -18.2030   -1.7160    1.0750 C.3    66  VAL66       0.0019
     16  N        -24.7290    0.4690   -2.7150 N.3    68  GLN68      -0.1245
     17  CA       -25.7160    1.3390   -2.1070 C.3    68  GLN68       0.1566
     18  C        -26.6900    1.8420   -3.1590 C.2    68  GLN68       0.2260
     19  O        -26.2930    2.2230   -4.2610 O.2    68  GLN68      -0.2867
     20  CB       -25.0280    2.5160   -1.4030 C.3    68  GLN68       0.0367
     21  CG       -25.9590    3.4710   -0.6710 C.3    68  GLN68       0.0905
     22  CD       -25.1710    4.6300   -0.0870 C.2    68  GLN68       0.2608
     23  OE1      -24.7320    5.5030   -0.8210 O.2    68  GLN68      -0.2717
     24  NE2      -24.9360    4.6100    1.2130 N.am   68  GLN68      -0.0878
     25  N        -19.6180    1.1390   -4.3180 N.3    79  ILE79      -0.1231
     26  CA       -18.8860    2.1980   -3.6290 C.3    79  ILE79       0.1692
     27  C        -17.4120    1.8550   -3.5090 C.2    79  ILE79       0.2591
     28  O        -16.5360    2.6820   -3.7690 O.2    79  ILE79      -0.2718
     29  CB       -19.4840    2.4270   -2.2240 C.3    79  ILE79       0.0266
     30  CG1      -20.8870    2.9910   -2.3500 C.3    79  ILE79       0.0019
     31  CG2      -18.5620    3.3390   -1.3690 C.3    79  ILE79       0.0020
     32  CD1      -21.5270    3.3160   -1.0060 C.3    79  ILE79       0.0001
     33  N        -17.1150    0.6670   -3.0150 N.am   80  LYS80      -0.1980
     34  CA       -15.7390    0.2570   -2.8200 C.3    80  LYS80       0.1596
     35  C        -15.7420   -1.2160   -2.4890 C.2    80  LYS80       0.2287
     36  O        -16.7970   -1.8320   -2.3070 O.2    80  LYS80      -0.2864
     37  CB       -15.0420    1.0480   -1.7190 C.3    80  LYS80       0.0298
     38  CG       -15.5330    0.7540   -0.3300 C.3    80  LYS80       0.0038
     39  CD       -14.7510    1.5900    0.6920 C.3    80  LYS80       0.0206
     40  CE       -13.2500    1.2450    0.6880 C.3    80  LYS80       0.1093
     41  NZ       -12.4780    1.9520    1.7460 N.3    80  LYS80      -0.1314
     42  N        -13.6560   -3.9490    0.2300 N.3    82  LEU82      -0.1245
     43  CA       -12.8780   -4.0470    1.4480 C.3    82  LEU82       0.1561
     44  C        -12.2200   -5.4110    1.4690 C.2    82  LEU82       0.2260
     45  O        -12.7610   -6.3810    0.9390 O.2    82  LEU82      -0.2867
     46  CB       -13.7370   -3.8760    2.6990 C.3    82  LEU82       0.0270
     47  CG       -14.5740   -2.6250    2.7230 C.3    82  LEU82       0.0019
     48  CD1      -15.6070   -2.7330    3.8010 C.3    82  LEU82       0.0001
     49  CD2      -13.6900   -1.4110    2.9270 C.3    82  LEU82       0.0001
     50  N        -12.8960   -3.3480    7.9270 N.3    87  TYR87      -0.1227
     51  CA       -14.0130   -3.4790    8.8570 C.3    87  TYR87       0.1736
     52  C        -15.2160   -2.7180    8.3020 C.2    87  TYR87       0.2595
     53  O        -15.0890   -1.8720    7.4060 O.2    87  TYR87      -0.2718
     54  CB       -13.6190   -2.9480   10.2540 C.3    87  TYR87       0.0548
     55  CG       -13.0940   -1.5370   10.2040 C.ar   87  TYR87      -0.0200
     56  CD1      -13.9590   -0.4720   10.2820 C.ar   87  TYR87      -0.0009
     57  CD2      -11.7490   -1.2850    9.9900 C.ar   87  TYR87      -0.0009
     58  CE1      -13.5080    0.8150   10.1880 C.ar   87  TYR87       0.0417
     59  CE2      -11.2800    0.0280    9.8880 C.ar   87  TYR87       0.0417
     60  CZ       -12.1660    1.0610    9.9810 C.ar   87  TYR87       0.1957
     61  OH       -11.7490    2.3830    9.8770 O.3    87  TYR87      -0.2866
     62  N        -16.3860   -3.0120    8.8520 N.am   88  PHE88      -0.1962
     63  CA       -17.6110   -2.3650    8.3970 C.3    88  PHE88       0.1771
     64  C        -18.7040   -2.6240    9.4190 C.2    88  PHE88       0.2620
     65  O        -18.5700   -3.4860   10.2900 O.2    88  PHE88      -0.2715
     66  CB       -18.0360   -2.8620    7.0060 C.3    88  PHE88       0.0574
     67  CG       -18.1880   -4.3720    6.9210 C.ar   88  PHE88      -0.0200
     68  CD1      -19.3740   -4.9850    7.3020 C.ar   88  PHE88      -0.0042
     69  CD2      -17.1490   -5.1680    6.4630 C.ar   88  PHE88      -0.0042
     70  CE1      -19.5170   -6.3860    7.2270 C.ar   88  PHE88      -0.0003
     71  CE2      -17.2820   -6.5610    6.4050 C.ar   88  PHE88      -0.0003
     72  CZ       -18.4650   -7.1570    6.7780 C.ar   88  PHE88      -0.0000
     73  N        -19.7820   -1.8530    9.3160 N.am   89  GLY89      -0.1940
     74  CA       -20.9300   -2.0070   10.1800 C.3    89  GLY89       0.2014
     75  C        -20.9450   -1.0940   11.3840 C.2    89  GLY89       0.2639
     76  O        -21.9410   -1.0790   12.1080 O.2    89  GLY89      -0.2714
     77  N        -19.8860   -0.3210   11.6070 N.am   90  GLU90      -0.1963
     78  CA       -19.8960    0.6510   12.6930 C.3    90  GLU90       0.1733
     79  C        -20.9500    1.7240   12.4960 C.2    90  GLU90       0.2616
     80  O        -21.4210    2.2910   13.4840 O.2    90  GLU90      -0.2715
     81  CB       -18.5280    1.3180   12.8610 C.3    90  GLU90       0.0429
     82  CG       -18.1090    2.2250   11.7190 C.3    90  GLU90       0.1163
     83  CD       -18.1240    1.5110   10.3680 C.2    90  GLU90       0.3649
     84  OE1      -17.4570    0.4480   10.2370 O.co2  90  GLU90      -0.2457
     85  OE2      -18.8540    1.9720    9.4660 O.co2  90  GLU90      -0.2457
     86  N        -21.2760    2.0790   11.2480 N.am   91  LYS91      -0.1963
     87  CA       -22.1100    3.2640   11.0460 C.3    91  LYS91       0.1728
     88  C        -23.4810    3.1030   11.6940 C.2    91  LYS91       0.2616
     89  O        -24.0170    4.0580   12.2650 O.2    91  LYS91      -0.2715
     90  CB       -22.2480    3.5830    9.5690 C.3    91  LYS91       0.0311
     91  CG       -22.8170    4.9710    9.3630 C.3    91  LYS91       0.0038
     92  CD       -23.0430    5.2920    7.9330 C.3    91  LYS91       0.0206
     93  CE       -23.3720    6.7770    7.7300 C.3    91  LYS91       0.1093
     94  NZ       -24.4390    7.3410    8.6390 N.3    91  LYS91      -0.1314
     95  N        -24.0910    1.9240   11.5950 N.am   92  ALA92      -0.1977
     96  CA       -25.4040    1.7440   12.2070 C.3    92  ALA92       0.1597
     97  C        -25.3240    1.9790   13.7040 C.2    92  ALA92       0.2287
     98  O        -26.2500    2.5330   14.3160 O.2    92  ALA92      -0.2864
     99  CB       -25.9490    0.3450   11.9070 C.3    92  ALA92       0.0319
    100  N        -30.5290    2.1800   10.7210 N.3    98  VAL98      -0.1231
    101  CA       -30.4990    0.9320    9.9900 C.3    98  VAL98       0.1692
    102  C        -29.2750    0.8990    9.0910 C.2    98  VAL98       0.2592
    103  O        -28.6040    1.9050    8.8530 O.2    98  VAL98      -0.2718
    104  CB       -31.7860    0.7280    9.1750 C.3    98  VAL98       0.0266
    105  CG1      -32.9870    0.7270   10.1050 C.3    98  VAL98       0.0020
    106  CG2      -31.9060    1.7750    8.0580 C.3    98  VAL98       0.0020
    107  N        -28.9440   -0.3070    8.6270 N.am   99  ARG99      -0.1966
    108  CA       -27.8180   -0.4860    7.7190 C.3    99  ARG99       0.1729
    109  C        -27.9940    0.3890    6.4890 C.2    99  ARG99       0.2617
    110  O        -29.0680    0.4340    5.8770 O.2    99  ARG99      -0.2715
    111  CB       -27.6840   -1.9610    7.3190 C.3    99  ARG99       0.0348
    112  CG       -27.4980   -2.9180    8.4630 C.3    99  ARG99       0.0492
    113  CD       -26.1770   -2.6830    9.1710 C.3    99  ARG99       0.2205
    114  NE       -25.8550   -3.8020   10.0560 N.pl3  99  ARG99      -0.0865
    115  CZ       -24.8520   -3.8050   10.9260 C.cat  99  ARG99       0.5346
    116  NH1      -24.0530   -2.7450   11.0540 N.pl3  99  ARG99       0.1354
    117  NH2      -24.6740   -4.8660   11.7150 N.pl3  99  ARG99       0.1354
    118  N        -26.9100    1.0470    6.0900 N.am  100  SER100     -0.1936
    119  CA       -26.9760    2.0840    5.0810 C.3   100  SER100      0.2055
    120  C        -26.3750    1.6850    3.7380 C.2   100  SER100      0.2642
    121  O        -26.3620    2.4960    2.8140 O.2   100  SER100     -0.2714
    122  CB       -26.2670    3.3490    5.6030 C.3   100  SER100      0.2130
    123  OG       -24.8820    3.1260    5.8110 O.3   100  SER100     -0.2179
    124  N        -25.8780    0.4620    3.6090 N.am  101  ALA101     -0.1977
    125  CA       -25.3190   -0.0530    2.3810 C.3   101  ALA101      0.1597
    126  C        -25.3590   -1.5630    2.5120 C.2   101  ALA101      0.2287
    127  O        -25.5300   -2.0960    3.6110 O.2   101  ALA101     -0.2864
    128  CB       -23.8740    0.4180    2.1350 C.3   101  ALA101      0.0319
    129  N        -23.2460   -5.1200    2.1250 N.3   103  ILE103     -0.1245
    130  CA       -21.9100   -5.6870    2.1570 C.3   103  ILE103      0.1561
    131  C        -22.0350   -7.1090    1.6410 C.2   103  ILE103      0.2260
    132  O        -22.7390   -7.9330    2.2480 O.2   103  ILE103     -0.2867
    133  CB       -21.2790   -5.6750    3.5640 C.3   103  ILE103      0.0252
    134  CG1      -21.2310   -4.2690    4.1750 C.3   103  ILE103      0.0019
    135  CG2      -19.8840   -6.2850    3.4940 C.3   103  ILE103      0.0019
    136  CD1      -20.2770   -3.3220    3.5390 C.3   103  ILE103      0.0001
    137  N        -13.5340    6.9470   14.3190 N.3   134  LEU134     -0.1245
    138  CA       -14.6800    6.3630   13.6280 C.3   134  LEU134      0.1561
    139  C        -15.8480    7.3370   13.5460 C.2   134  LEU134      0.2260
    140  O        -16.5800    7.3500   12.5520 O.2   134  LEU134     -0.2867
    141  CB       -15.1040    5.0680   14.3220 C.3   134  LEU134      0.0270
    142  CG       -14.1360    3.8790   14.2000 C.3   134  LEU134      0.0019
    143  CD1      -14.6780    2.7900   15.0940 C.3   134  LEU134      0.0001
    144  CD2      -14.0010    3.4380   12.7180 C.3   134  LEU134      0.0001
    145  N        -14.9740    9.5080   10.6310 N.3   137  TYR137     -0.1227
    146  CA       -15.1590    8.7770    9.3810 C.3   137  TYR137      0.1736
    147  C        -16.6400    8.6520    9.0330 C.2   137  TYR137      0.2595
    148  O        -17.0440    8.8620    7.8880 O.2   137  TYR137     -0.2718
    149  CB       -14.4930    7.4110    9.5020 C.3   137  TYR137      0.0548
    150  CG       -13.9670    6.7790    8.2280 C.ar  137  TYR137     -0.0200
    151  CD1      -14.3990    7.1800    6.9700 C.ar  137  TYR137     -0.0009
    152  CD2      -13.0370    5.7430    8.3050 C.ar  137  TYR137     -0.0009
    153  CE1      -13.9140    6.5640    5.8150 C.ar  137  TYR137      0.0417
    154  CE2      -12.5430    5.1330    7.1730 C.ar  137  TYR137      0.0417
    155  CZ       -12.9780    5.5450    5.9310 C.ar  137  TYR137      0.1957
    156  OH       -12.4780    4.9220    4.8090 O.3   137  TYR137     -0.2866
    157  N        -17.4690    8.3220   10.0180 N.am  138  VAL138     -0.1980
    158  CA       -18.9020    8.2370    9.7600 C.3   138  VAL138      0.1595
    159  C        -19.4650    9.5860    9.3130 C.2   138  VAL138      0.2287
    160  O        -20.3490    9.6440    8.4520 O.2   138  VAL138     -0.2864
    161  CB       -19.6290    7.6950   10.9970 C.3   138  VAL138      0.0276
    162  CG1      -21.1160    8.0170   10.9230 C.3   138  VAL138      0.0022
    163  CG2      -19.3720    6.1830   11.1230 C.3   138  VAL138      0.0022
    164  N        -18.7170    9.7270    5.7630 N.3   141  LEU141     -0.1245
    165  CA       -19.6080    8.8450    5.0240 C.3   141  LEU141      0.1561
    166  C        -20.9640    9.4960    4.8130 C.2   141  LEU141      0.2260
    167  O        -21.5690    9.3280    3.7540 O.2   141  LEU141     -0.2867
    168  CB       -19.7510    7.4970    5.7350 C.3   141  LEU141      0.0270
    169  CG       -18.5170    6.6280    5.9250 C.3   141  LEU141      0.0019
    170  CD1      -18.9770    5.3020    6.5450 C.3   141  LEU141      0.0001
    171  CD2      -17.7750    6.3770    4.6370 C.3   141  LEU141      0.0001
    172  N        -20.4360   11.6660    1.8760 N.3   144  ASP144     -0.1225
    173  CA       -20.3560   10.8700    0.6580 C.3   144  ASP144      0.1805
    174  C        -21.7420   10.4030    0.2240 C.2   144  ASP144      0.2597
    175  O        -22.0860   10.4520   -0.9680 O.2   144  ASP144     -0.2718
    176  CB       -19.4490    9.6760    0.8710 C.3   144  ASP144      0.1424
    177  CG       -18.0060   10.0530    1.1010 C.2   144  ASP144      0.3668
    178  OD1      -17.6080   11.2010    0.8000 O.co2 144  ASP144     -0.2456
    179  OD2      -17.2600    9.1730    1.5760 O.co2 144  ASP144     -0.2456
    180  N        -22.5480    9.9360    1.1800 N.am  145  ASP145     -0.1974
    181  CA       -23.8990    9.5050    0.8730 C.3   145  ASP145      0.1709
    182  C        -24.6920   10.6410    0.2370 C.2   145  ASP145      0.2293
    183  O        -25.4160   10.4300   -0.7390 O.2   145  ASP145     -0.2864
    184  CB       -24.5970    9.0090    2.1400 C.3   145  ASP145      0.1436
    185  CG       -24.0840    7.6780    2.6420 C.2   145  ASP145      0.3671
    186  OD1      -23.2230    7.0550    1.9890 O.co2 145  ASP145     -0.2456
    187  OD2      -24.5740    7.2600    3.7170 O.co2 145  ASP145     -0.2456
    188  N        -23.5290   11.3630   -3.4300 N.3   148  ARG148     -0.1245
    189  CA       -23.9270   10.4120   -4.4590 C.3   148  ARG148      0.1563
    190  C        -25.4340   10.2000   -4.4900 C.2   148  ARG148      0.2260
    191  O        -25.9220    9.3630   -5.2610 O.2   148  ARG148     -0.2867
    192  CB       -23.1900    9.0740   -4.2720 C.3   148  ARG148      0.0307
    193  CG       -23.7640    8.1590   -3.2030 C.3   148  ARG148      0.0489
    194  CD       -23.1200    6.7640   -3.2730 C.3   148  ARG148      0.2205
    195  NE       -21.7210    6.8120   -2.8810 N.pl3 148  ARG148     -0.0865
    196  CZ       -21.2810    6.7860   -1.6270 C.cat 148  ARG148      0.5346
    197  NH1      -22.1300    6.6730   -0.6100 N.pl3 148  ARG148      0.1354
    198  NH2      -19.9820    6.8760   -1.3910 N.pl3 148  ARG148      0.1354
@<TRIPOS>BOND
     1   191   190    2
     2   190   189    1
     3   189   192    1
     4   189   188    1
     5    25    26    1
     6   192   193    1
     7    19    18    2
     8    28    27    2
     9    26    27    1
    10    26    29    1
    11    27    33   am
    12   194   193    1
    13   194   195    1
    14    18    17    1
    15    33    34    1
    16   195   196    2
    17    34    35    1
    18    34    37    1
    19    16    17    1
    20    12    11    2
    21    35    36    2
    22    30    29    1
    23    30    32    1
    24    29    31    1
    25    17    20    1
    26    11    10    1
    27    37    38    1
    28   196   198    1
    29   196   197    1
    30    20    21    1
    31     9    10    1
    32   175   174    2
    33    23    22    2
    34   183   182    2
    35    21    22    1
    36    10    13    1
    37    38    39    1
    38    22    24   am
    39    13    14    1
    40    13    15    1
    41   174   173    1
    42   174   180   am
    43    42    43    1
    44   182   181    1
    45   173   176    1
    46   173   172    1
    47    40    39    1
    48    40    41    1
    49   178   177   ar
    50   176   177    1
    51   181   180    1
    52   181   184    1
    53    45    44    2
    54   177   179   ar
    55    43    44    1
    56    43    46    1
    57   131   130    1
    58   131   132    2
    59   186   185   ar
    60   129   130    1
    61   128   125    1
    62   184   185    1
    63   130   133    1
    64   125   126    1
    65   125   124    1
    66   126   127    2
    67   185   187   ar
    68    46    47    1
    69    47    49    1
    70    47    48    1
    71   121   120    2
    72     4     3    2
    73   135   133    1
    74   136   134    1
    75   133   134    1
    76   124   120   am
    77   120   119    1
    78   167   166    2
    79     3     2    1
    80   171   169    1
    81   156   155    1
    82   166   165    1
    83   165   168    1
    84   165   164    1
    85     1     2    1
    86   119   122    1
    87   119   118    1
    88     2     5    1
    89   122   123    1
    90   168   169    1
    91   153   155   ar
    92   153   151   ar
    93   110   109    2
    94   169   170    1
    95   155   154   ar
    96     5     7    1
    97     5     6    1
    98   118   109   am
    99    71    69   ar
   100    71    72   ar
   101    69    67   ar
   102   109   108    1
   103    72    70   ar
   104    67    66    1
   105    67    68   ar
   106   151   150   ar
   107    66    63    1
   108   154   152   ar
   109    70    68   ar
   110   111   108    1
   111   111   112    1
   112     6     8    1
   113    53    52    2
   114   108   107    1
   115    93    92    1
   116    93    94    1
   117   148   147    2
   118    50    51    1
   119    92    91    1
   120   106   104    1
   121   150   152   ar
   122   150   149    1
   123    52    62   am
   124    52    51    1
   125    63    62    1
   126    63    64    1
   127   160   159    2
   128   112   113    1
   129   107   102   am
   130   103   102    2
   131    51    54    1
   132   147   146    1
   133   147   157   am
   134   102   101    1
   135   113   114    1
   136   104   101    1
   137   104   105    1
   138   159   158    1
   139    73    64   am
   140    73    74    1
   141    91    90    1
   142   146   149    1
   143   146   145    1
   144    64    65    2
   145    85    83   ar
   146    90    87    1
   147   158   157    1
   148   158   161    1
   149    61    60    1
   150    59    60   ar
   151    59    57   ar
   152    60    58   ar
   153   101   100    1
   154    57    55   ar
   155   114   115    2
   156    74    75    1
   157    58    56   ar
   158    55    54    1
   159    55    56   ar
   160    84    83   ar
   161    83    82    1
   162   162   161    1
   163   115   116    1
   164   115   117    1
   165   161   163    1
   166    87    86    1
   167    87    88    1
   168    86    79   am
   169    75    77   am
   170    75    76    2
   171    95    88   am
   172    95    96    1
   173    77    78    1
   174    88    89    2
   175    82    81    1
   176    99    96    1
   177    96    97    1
   178    79    78    1
   179    79    80    2
   180   140   139    2
   181    78    81    1
   182   144   142    1
   183   139   138    1
   184   138   137    1
   185   138   141    1
   186    97    98    2
   187   142   141    1
   188   142   143    1
