@<TRIPOS>MOLECULE
tmp/5jj4C00.pdb
 227 222 0 0 0
SMALL
GASTEIGER

@<TRIPOS>ATOM
      1  N         24.5030  -10.1090  169.9300 N.3    12  ASN12      -0.1240
      2  CA        25.2780  -10.5510  168.7800 C.3    12  ASN12       0.1653
      3  C         24.3760  -10.8580  167.5900 C.2    12  ASN12       0.2266
      4  O         23.2320  -11.2700  167.7570 O.2    12  ASN12      -0.2867
      5  CB        26.1370  -11.7620  169.1350 C.3    12  ASN12       0.1155
      6  CG        27.1130  -12.1160  168.0390 C.2    12  ASN12       0.2627
      7  OD1       27.9110  -11.2800  167.6140 O.2    12  ASN12      -0.2716
      8  ND2       27.0620  -13.3570  167.5770 N.am   12  ASN12      -0.0877
      9  N         24.0710  -13.1240  165.3470 N.3    14  ASP14      -0.1225
     10  CA        23.6580  -14.4650  164.9260 C.3    14  ASP14       0.1805
     11  C         22.4930  -14.9700  165.7810 C.2    14  ASP14       0.2597
     12  O         21.9570  -16.0510  165.5360 O.2    14  ASP14      -0.2718
     13  CB        24.8300  -15.4570  164.9430 C.3    14  ASP14       0.1424
     14  CG        25.4920  -15.5750  166.3020 C.2    14  ASP14       0.3668
     15  OD1       25.0290  -14.9210  167.2590 O.co2  14  ASP14      -0.2456
     16  OD2       26.4810  -16.3320  166.4150 O.co2  14  ASP14      -0.2456
     17  N         22.1090  -14.1820  166.7820 N.am   15  LYS15      -0.1979
     18  CA        20.9080  -14.4560  167.5600 C.3    15  LYS15       0.1596
     19  C         19.7170  -13.7920  166.8760 C.2    15  LYS15       0.2287
     20  O         19.8920  -13.0240  165.9290 O.2    15  LYS15      -0.2864
     21  CB        21.0490  -13.9210  168.9870 C.3    15  LYS15       0.0298
     22  CG        22.2780  -14.4220  169.7340 C.3    15  LYS15       0.0038
     23  CD        22.3790  -15.9390  169.7220 C.3    15  LYS15       0.0206
     24  CE        23.5350  -16.4250  170.5860 C.3    15  LYS15       0.1093
     25  NZ        24.8330  -15.8070  170.2070 N.3    15  LYS15      -0.1314
     26  N         31.9460   -7.2380  166.8640 N.3    42  LYS42      -0.1245
     27  CA        32.8920   -7.1680  167.9740 C.3    42  LYS42       0.1561
     28  C         32.3000   -6.4460  169.1880 C.2    42  LYS42       0.2260
     29  O         33.0090   -5.7060  169.8680 O.2    42  LYS42      -0.2867
     30  CB        34.1740   -6.4440  167.5350 C.3    42  LYS42       0.0271
     31  CG        34.8440   -7.0360  166.3080 C.3    42  LYS42       0.0035
     32  CD        36.0010   -6.1770  165.8190 C.3    42  LYS42       0.0206
     33  CE        36.5640   -6.7040  164.5080 C.3    42  LYS42       0.1093
     34  NZ        37.4480   -7.8770  164.7990 N.3    42  LYS42      -0.1314
     35  N         31.3670   -7.6310  171.9770 N.3    44  GLU44      -0.1231
     36  CA        32.0080   -8.1530  173.1740 C.3    44  GLU44       0.1699
     37  C         33.3230   -7.4250  173.4600 C.2    44  GLU44       0.2592
     38  O         33.6940   -7.2240  174.6160 O.2    44  GLU44      -0.2718
     39  CB        32.2420   -9.6630  173.0390 C.3    44  GLU44       0.0402
     40  CG        33.3830  -10.0940  172.1130 C.3    44  GLU44       0.1161
     41  CD        33.0890   -9.8830  170.6400 C.2    44  GLU44       0.3649
     42  OE1       31.9940   -9.3810  170.3050 O.co2  44  GLU44      -0.2457
     43  OE2       33.9560  -10.2340  169.8100 O.co2  44  GLU44      -0.2457
     44  N         34.0130   -7.0270  172.3950 N.am   45  GLU45      -0.1979
     45  CA        35.2700   -6.2890  172.5030 C.3    45  GLU45       0.1602
     46  C         35.0120   -4.8070  172.7410 C.2    45  GLU45       0.2287
     47  O         35.7400   -4.1550  173.4840 O.2    45  GLU45      -0.2864
     48  CB        36.1000   -6.4670  171.2260 C.3    45  GLU45       0.0415
     49  CG        37.0790   -7.6410  171.2620 C.3    45  GLU45       0.1163
     50  CD        37.6520   -7.9870  169.8960 C.2    45  GLU45       0.3649
     51  OE1       37.3040   -7.3110  168.9060 O.co2  45  GLU45      -0.2457
     52  OE2       38.4550   -8.9410  169.8110 O.co2  45  GLU45      -0.2457
     53  N         25.4960  -11.6390  175.7860 N.3    62  TRP62      -0.1227
     54  CA        26.5660  -12.4960  175.2970 C.3    62  TRP62       0.1737
     55  C         26.5890  -13.7380  176.1660 C.2    62  TRP62       0.2595
     56  O         26.0280  -13.7300  177.2610 O.2    62  TRP62      -0.2718
     57  CB        27.9200  -11.7800  175.3610 C.3    62  TRP62       0.0564
     58  CG        28.9920  -12.4520  174.5440 C.ar   62  TRP62       0.0003
     59  CD1       29.8170  -13.4650  174.9410 C.ar   62  TRP62       0.0946
     60  CD2       29.3470  -12.1570  173.1880 C.ar   62  TRP62       0.0152
     61  NE1       30.6610  -13.8180  173.9160 N.ar   62  TRP62      -0.2442
     62  CE2       30.3930  -13.0290  172.8300 C.ar   62  TRP62       0.0810
     63  CE3       28.8810  -11.2400  172.2440 C.ar   62  TRP62       0.0012
     64  CZ2       30.9800  -13.0080  171.5680 C.ar   62  TRP62       0.0191
     65  CZ3       29.4660  -11.2230  170.9930 C.ar   62  TRP62       0.0001
     66  CH2       30.5030  -12.1000  170.6660 C.ar   62  TRP62       0.0015
     67  N         27.2230  -14.8040  175.6840 N.am   63  ALA63      -0.1980
     68  CA        27.3810  -16.0110  176.4860 C.3    63  ALA63       0.1597
     69  C         28.0660  -15.6430  177.7990 C.2    63  ALA63       0.2287
     70  O         28.8340  -14.6850  177.8540 O.2    63  ALA63      -0.2864
     71  CB        28.1750  -17.0610  175.7290 C.3    63  ALA63       0.0319
     72  N         30.4460  -16.6120  179.4690 N.3    65  ASP65      -0.1225
     73  CA        31.8800  -16.8110  179.6420 C.3    65  ASP65       0.1805
     74  C         32.6680  -15.5060  179.7270 C.2    65  ASP65       0.2597
     75  O         33.8480  -15.5140  180.0790 O.2    65  ASP65      -0.2718
     76  CB        32.4370  -17.6640  178.5000 C.3    65  ASP65       0.1424
     77  CG        32.3910  -16.9540  177.1640 C.2    65  ASP65       0.3668
     78  OD1       31.3280  -16.9800  176.5120 O.co2  65  ASP65      -0.2456
     79  OD2       33.4210  -16.3710  176.7650 O.co2  65  ASP65      -0.2456
     80  N         32.0180  -14.3880  179.4190 N.am   66  ARG66      -0.1979
     81  CA        32.7250  -13.1210  179.2840 C.3    66  ARG66       0.1597
     82  C         32.4090  -12.0780  180.3510 C.2    66  ARG66       0.2287
     83  O         32.9460  -10.9760  180.3040 O.2    66  ARG66      -0.2864
     84  CB        32.4330  -12.5180  177.9140 C.3    66  ARG66       0.0334
     85  CG        33.6180  -11.7880  177.3400 C.3    66  ARG66       0.0492
     86  CD        33.4170  -11.4340  175.8930 C.3    66  ARG66       0.2205
     87  NE        34.6610  -11.4800  175.1210 N.pl3  66  ARG66      -0.0865
     88  CZ        35.7360  -10.7290  175.3580 C.cat  66  ARG66       0.5346
     89  NH1       35.7590   -9.8650  176.3650 N.pl3  66  ARG66       0.1354
     90  NH2       36.8020  -10.8490  174.5830 N.pl3  66  ARG66       0.1354
     91  N         23.0230  -22.8340  175.2960 N.3   111  GLU111     -0.1245
     92  CA        23.4050  -23.2180  173.9460 C.3   111  GLU111      0.1567
     93  C         24.4890  -24.2830  173.9830 C.2   111  GLU111      0.2260
     94  O         25.3720  -24.2550  174.8400 O.2   111  GLU111     -0.2867
     95  CB        23.9360  -22.0030  173.1900 C.3   111  GLU111      0.0388
     96  CG        22.9950  -20.8060  173.1880 C.3   111  GLU111      0.1160
     97  CD        23.7140  -19.4850  172.9840 C.2   111  GLU111      0.3649
     98  OE1       24.9640  -19.4520  173.0500 O.co2 111  GLU111     -0.2457
     99  OE2       23.0200  -18.4710  172.7580 O.co2 111  GLU111     -0.2457
    100  N         32.6480  -23.9940  160.8120 N.3   150  ASN150     -0.1240
    101  CA        33.5530  -22.8730  161.0370 C.3   150  ASN150      0.1653
    102  C         34.8530  -23.3170  161.6990 C.2   150  ASN150      0.2266
    103  O         34.8370  -23.9820  162.7370 O.2   150  ASN150     -0.2867
    104  CB        32.8720  -21.8060  161.8990 C.3   150  ASN150      0.1155
    105  CG        33.6950  -20.5330  162.0110 C.2   150  ASN150      0.2627
    106  OD1       34.5730  -20.2750  161.1920 O.2   150  ASN150     -0.2716
    107  ND2       33.4100  -19.7290  163.0280 N.am  150  ASN150     -0.0877
    108  N         36.8510  -19.8940  164.4540 N.3   153  GLU153     -0.1231
    109  CA        36.5570  -19.6200  165.8560 C.3   153  GLU153      0.1684
    110  C         36.7690  -20.8800  166.6920 C.2   153  GLU153      0.2434
    111  O         36.2080  -21.9310  166.3830 O.2   153  GLU153     -0.2733
    112  CB        35.1230  -19.1030  166.0100 C.3   153  GLU153      0.0402
    113  CG        34.9330  -17.6580  165.5540 C.3   153  GLU153      0.1161
    114  CD        35.7700  -16.6680  166.3560 C.2   153  GLU153      0.3649
    115  OE1       35.9710  -16.9020  167.5660 O.co2 153  GLU153     -0.2457
    116  OE2       36.2310  -15.6620  165.7740 O.co2 153  GLU153     -0.2457
    117  N         37.5780  -20.7770  167.7610 N.am  154  PRO154     -0.2718
    118  CA        37.9710  -21.9600  168.5370 C.3   154  PRO154      0.1535
    119  C         36.7980  -22.6720  169.2010 C.2   154  PRO154      0.2599
    120  O         36.9280  -23.8330  169.5920 O.2   154  PRO154     -0.2715
    121  CB        38.9130  -21.3820  169.6000 C.3   154  PRO154      0.0310
    122  CG        38.5140  -19.9560  169.7200 C.3   154  PRO154      0.0237
    123  CD        38.1190  -19.5390  168.3460 C.3   154  PRO154      0.0939
    124  N         35.6730  -21.9750  169.3140 N.am  155  TYR155     -0.1960
    125  CA        34.4580  -22.5180  169.9140 C.3   155  TYR155      0.1771
    126  C         33.9950  -23.7730  169.1920 C.2   155  TYR155      0.2619
    127  O         33.4750  -24.6970  169.8110 O.2   155  TYR155     -0.2715
    128  CB        33.3540  -21.4610  169.8570 C.3   155  TYR155      0.0574
    129  CG        32.0240  -21.8820  170.4410 C.ar  155  TYR155     -0.0198
    130  CD1       31.8410  -21.9700  171.8140 C.ar  155  TYR155     -0.0009
    131  CD2       30.9430  -22.1680  169.6180 C.ar  155  TYR155     -0.0009
    132  CE1       30.6220  -22.3460  172.3520 C.ar  155  TYR155      0.0417
    133  CE2       29.7190  -22.5440  170.1440 C.ar  155  TYR155      0.0417
    134  CZ        29.5640  -22.6310  171.5110 C.ar  155  TYR155      0.1957
    135  OH        28.3460  -23.0060  172.0300 O.3   155  TYR155     -0.2866
    136  N         34.2030  -23.8030  167.8800 N.am  156  PHE156     -0.1974
    137  CA        33.6730  -24.8700  167.0390 C.3   156  PHE156      0.1639
    138  C         34.5150  -26.1500  167.0370 C.2   156  PHE156      0.2290
    139  O         33.9740  -27.2500  166.9230 O.2   156  PHE156     -0.2864
    140  CB        33.5090  -24.3590  165.6090 C.3   156  PHE156      0.0560
    141  CG        32.3500  -23.4240  165.4350 C.ar  156  PHE156     -0.0200
    142  CD1       32.4650  -22.0860  165.7690 C.ar  156  PHE156     -0.0042
    143  CD2       31.1410  -23.8860  164.9480 C.ar  156  PHE156     -0.0042
    144  CE1       31.3980  -21.2270  165.6130 C.ar  156  PHE156     -0.0003
    145  CE2       30.0700  -23.0330  164.7900 C.ar  156  PHE156     -0.0003
    146  CZ        30.1980  -21.7010  165.1240 C.ar  156  PHE156     -0.0000
    147  N         32.3290  -19.3890  159.0240 N.3   210  TYR210     -0.1241
    148  CA        30.9620  -19.6720  159.4430 C.3   210  TYR210      0.1605
    149  C         29.9750  -19.6020  158.2780 C.2   210  TYR210      0.2264
    150  O         29.1450  -20.4960  158.1080 O.2   210  TYR210     -0.2867
    151  CB        30.5290  -18.7110  160.5550 C.3   210  TYR210      0.0534
    152  CG        29.1530  -19.0100  161.1010 C.ar  210  TYR210     -0.0201
    153  CD1       28.0140  -18.5410  160.4580 C.ar  210  TYR210     -0.0009
    154  CD2       28.9900  -19.7680  162.2540 C.ar  210  TYR210     -0.0009
    155  CE1       26.7540  -18.8160  160.9450 C.ar  210  TYR210      0.0417
    156  CE2       27.7290  -20.0470  162.7510 C.ar  210  TYR210      0.0417
    157  CZ        26.6160  -19.5680  162.0910 C.ar  210  TYR210      0.1957
    158  OH        25.3610  -19.8420  162.5780 O.3   210  TYR210     -0.2866
    159  N         20.7760  -21.3770  166.8110 N.3   230  TRP230     -0.1241
    160  CA        20.5690  -20.2090  165.9510 C.3   230  TRP230      0.1605
    161  C         20.6030  -20.5460  164.4590 C.2   230  TRP230      0.2264
    162  O         20.0150  -19.8390  163.6400 O.2   230  TRP230     -0.2867
    163  CB        21.6150  -19.1310  166.2500 C.3   230  TRP230      0.0550
    164  CG        23.0190  -19.6450  166.2750 C.ar  230  TRP230      0.0003
    165  CD1       23.8760  -19.7350  165.2200 C.ar  230  TRP230      0.0946
    166  CD2       23.7330  -20.1410  167.4160 C.ar  230  TRP230      0.0152
    167  NE1       25.0800  -20.2580  165.6290 N.ar  230  TRP230     -0.2442
    168  CE2       25.0170  -20.5160  166.9740 C.ar  230  TRP230      0.0810
    169  CE3       23.4100  -20.3050  168.7670 C.ar  230  TRP230      0.0012
    170  CZ2       25.9770  -21.0430  167.8330 C.ar  230  TRP230      0.0191
    171  CZ3       24.3670  -20.8290  169.6190 C.ar  230  TRP230      0.0001
    172  CH2       25.6330  -21.1910  169.1490 C.ar  230  TRP230      0.0015
    173  N         27.6670  -22.7020  176.4000 N.3   260  GLY260     -0.1225
    174  CA        27.3930  -21.3120  176.7000 C.3   260  GLY260      0.1811
    175  C         26.0380  -21.1530  177.3590 C.2   260  GLY260      0.2280
    176  O         25.1760  -22.0260  177.2590 O.2   260  GLY260     -0.2866
    177  N         31.0070  -23.5590  180.4580 N.3   330  MET330     -0.1245
    178  CA        32.1610  -22.6680  180.4070 C.3   330  MET330      0.1570
    179  C         32.4290  -22.0150  181.7610 C.2   330  MET330      0.2261
    180  O         31.4960  -21.7460  182.5180 O.2   330  MET330     -0.2867
    181  CB        31.9600  -21.5690  179.3590 C.3   330  MET330      0.0387
    182  CG        31.9710  -22.0570  177.9220 C.3   330  MET330      0.0595
    183  SD        32.4610  -20.7820  176.7480 S.3   330  MET330     -0.1393
    184  CE        30.8810  -20.0360  176.3620 C.3   330  MET330      0.0692
    185  N         38.9500  -14.8970  178.3520 N.3   337  SER337     -0.1217
    186  CA        39.1200  -14.2220  177.0680 C.3   337  SER337      0.1889
    187  C         40.5400  -14.4140  176.5470 C.2   337  SER337      0.2288
    188  O         40.7380  -14.7100  175.3680 O.2   337  SER337     -0.2866
    189  CB        38.7750  -12.7350  177.1740 C.3   337  SER337      0.2089
    190  OG        39.5740  -12.0870  178.1440 O.3   337  SER337     -0.2183
    191  N         40.6040  -17.7720  175.2280 N.3   340  TRP340     -0.1227
    192  CA        39.9230  -17.9120  173.9420 C.3   340  TRP340      0.1737
    193  C         40.7410  -17.3570  172.7730 C.2   340  TRP340      0.2595
    194  O         40.8320  -17.9890  171.7210 O.2   340  TRP340     -0.2718
    195  CB        38.5470  -17.2360  173.9790 C.3   340  TRP340      0.0564
    196  CG        37.4290  -18.1230  174.4630 C.ar  340  TRP340      0.0003
    197  CD1       36.5390  -17.8480  175.4610 C.ar  340  TRP340      0.0946
    198  CD2       37.0810  -19.4230  173.9640 C.ar  340  TRP340      0.0152
    199  NE1       35.6600  -18.8940  175.6130 N.ar  340  TRP340     -0.2442
    200  CE2       35.9730  -19.8730  174.7080 C.ar  340  TRP340      0.0810
    201  CE3       37.6010  -20.2480  172.9640 C.ar  340  TRP340      0.0012
    202  CZ2       35.3750  -21.1120  174.4820 C.ar  340  TRP340      0.0191
    203  CZ3       37.0050  -21.4770  172.7390 C.ar  340  TRP340      0.0001
    204  CH2       35.9040  -21.8960  173.4950 C.ar  340  TRP340      0.0015
    205  N         41.3210  -16.1740  172.9520 N.am  341  TYR341     -0.1976
    206  CA        42.1500  -15.5650  171.9150 C.3   341  TYR341      0.1639
    207  C         43.3370  -16.4530  171.5640 C.2   341  TYR341      0.2290
    208  O         43.7810  -16.4900  170.4140 O.2   341  TYR341     -0.2864
    209  CB        42.6690  -14.2010  172.3680 C.3   341  TYR341      0.0560
    210  CG        41.6520  -13.0870  172.2930 C.ar  341  TYR341     -0.0198
    211  CD1       41.1430  -12.6680  171.0700 C.ar  341  TYR341     -0.0009
    212  CD2       41.2160  -12.4390  173.4410 C.ar  341  TYR341     -0.0009
    213  CE1       40.2220  -11.6480  170.9950 C.ar  341  TYR341      0.0417
    214  CE2       40.2930  -11.4160  173.3740 C.ar  341  TYR341      0.0417
    215  CZ        39.8010  -11.0250  172.1500 C.ar  341  TYR341      0.1957
    216  OH        38.8850  -10.0050  172.0800 O.3   341  TYR341     -0.2866
    217  N         42.4220  -19.8150  169.6570 N.3   344  ARG344     -0.1245
    218  CA        42.0520  -19.4630  168.2880 C.3   344  ARG344      0.1563
    219  C         43.2830  -19.4870  167.3890 C.2   344  ARG344      0.2260
    220  O         43.3150  -20.2090  166.3920 O.2   344  ARG344     -0.2867
    221  CB        41.3920  -18.0830  168.2190 C.3   344  ARG344      0.0307
    222  CG        40.9780  -17.6800  166.7990 C.3   344  ARG344      0.0489
    223  CD        40.3470  -16.3000  166.7420 C.3   344  ARG344      0.2205
    224  NE        41.2260  -15.2760  167.2990 N.pl3 344  ARG344     -0.0865
    225  CZ        42.1910  -14.6650  166.6170 C.cat 344  ARG344      0.5346
    226  NH1       42.4080  -14.9690  165.3430 N.pl3 344  ARG344      0.1354
    227  NH2       42.9450  -13.7470  167.2080 N.pl3 344  ARG344      0.1354
@<TRIPOS>BOND
     1   150   149    2
     2   149   148    1
     3   147   148    1
     4   148   151    1
     5   153   155   ar
     6   153   152   ar
     7   151   152    1
     8   100   101    1
     9   155   157   ar
    10   101   102    1
    11   101   104    1
    12   152   154   ar
    13   106   105    2
    14   102   103    2
    15   104   105    1
    16   105   107   am
    17   157   158    1
    18   157   156   ar
    19   154   156   ar
    20   162   161    2
    21   108   109    1
    22   161   160    1
    23    33    34    1
    24    33    32    1
    25   145   143   ar
    26   145   146   ar
    27    10    13    1
    28    10     9    1
    29    10    11    1
    30    13    14    1
    31   143   141   ar
    32   146   144   ar
    33   165   167   ar
    34   165   164   ar
    35   226   225    1
    36   141   140    1
    37   141   142   ar
    38    12    11    2
    39   113   112    1
    40   113   114    1
    41   140   137    1
    42   144   142   ar
    43   167   168   ar
    44   116   114   ar
    45    11    17   am
    46    32    31    1
    47   109   112    1
    48   109   110    1
    49    20    19    2
    50   160   163    1
    51   160   159    1
    52   163   164    1
    53   164   166   ar
    54    14    16   ar
    55    14    15   ar
    56    31    30    1
    57   114   115   ar
    58   111   110    2
    59   220   219    2
    60   225   227    1
    61   225   224    2
    62   110   117   am
    63   223   222    1
    64   223   224    1
    65    17    18    1
    66   222   221    1
    67    26    27    1
    68    19    18    1
    69   139   138    2
    70   168   166   ar
    71   168   170   ar
    72   138   137    1
    73   137   136    1
    74   219   218    1
    75   166   169   ar
    76    30    27    1
    77    18    21    1
    78     8     6   am
    79     3     4    2
    80     3     2    1
    81     7     6    2
    82   117   123    1
    83   117   118    1
    84   170   172   ar
    85   136   126   am
    86    27    28    1
    87     6     5    1
    88   221   218    1
    89   218   217    1
    90   123   122    1
    91   118   119    1
    92   118   121    1
    93   169   171   ar
    94     2     5    1
    95     2     1    1
    96    51    50   ar
    97    21    22    1
    98   172   171   ar
    99    28    29    2
   100   126   127    2
   101   126   125    1
   102   119   124   am
   103   119   120    2
   104   124   125    1
   105   121   122    1
   106   131   133   ar
   107   131   129   ar
   108    23    22    1
   109    23    24    1
   110    43    41   ar
   111    52    50   ar
   112   128   125    1
   113   128   129    1
   114    50    49    1
   115   133   134   ar
   116    25    24    1
   117    42    41   ar
   118   208   207    2
   119   129   130   ar
   120    41    40    1
   121    66    65   ar
   122    66    64   ar
   123    65    63   ar
   124   213   211   ar
   125   213   215   ar
   126   211   210   ar
   127    48    49    1
   128    48    45    1
   129   134   135    1
   130   134   132   ar
   131   207   206    1
   132    64    62   ar
   133   194   193    2
   134   130   132   ar
   135   206   209    1
   136   206   205    1
   137    35    36    1
   138   216   215    1
   139    40    39    1
   140   215   214   ar
   141    63    60   ar
   142   210   209    1
   143   210   212   ar
   144    44    45    1
   145    44    37   am
   146    45    46    1
   147   203   201   ar
   148   203   204   ar
   149    46    47    2
   150    99    97   ar
   151   193   205   am
   152   193   192    1
   153    62    60   ar
   154    62    61   ar
   155   201   198   ar
   156    97    98   ar
   157    97    96    1
   158    39    36    1
   159    36    37    1
   160    96    95    1
   161    60    58   ar
   162    95    92    1
   163   214   212   ar
   164    37    38    2
   165   204   202   ar
   166    61    59   ar
   167   192   195    1
   168   192   191    1
   169    92    93    1
   170    92    91    1
   171   198   196   ar
   172   198   200   ar
   173   195   196    1
   174    93    94    2
   175   196   197   ar
   176   202   200   ar
   177    58    59   ar
   178    58    57    1
   179    90    88    1
   180   200   199   ar
   181    87    88    2
   182    87    86    1
   183    54    57    1
   184    54    53    1
   185    54    55    1
   186    88    89    1
   187   188   187    2
   188   197   199   ar
   189    67    55   am
   190    67    68    1
   191    71    68    1
   192    86    85    1
   193    55    56    2
   194   184   183    1
   195   173   174    1
   196    68    69    1
   197    78    77   ar
   198   187   186    1
   199   174   175    1
   200   183   182    1
   201    79    77   ar
   202   186   189    1
   203   186   185    1
   204    77    76    1
   205   189   190    1
   206   176   175    2
   207    85    84    1
   208    69    70    2
   209    84    81    1
   210   182   181    1
   211    76    73    1
   212    81    80    1
   213    81    82    1
   214   181   178    1
   215    80    74   am
   216    72    73    1
   217    73    74    1
   218    74    75    2
   219    83    82    2
   220   178   177    1
   221   178   179    1
   222   179   180    2
