@<TRIPOS>MOLECULE
tmp/5jj5A00.pdb
 161 158 0 0 0
SMALL
GASTEIGER

@<TRIPOS>ATOM
      1  N         -4.1630   -6.6990  -14.8210 N.3    30  TRP30      -0.1241
      2  CA        -3.5230   -6.0060  -15.9280 C.3    30  TRP30       0.1605
      3  C         -3.2600   -4.5310  -15.6440 C.2    30  TRP30       0.2264
      4  O         -4.1310   -3.8140  -15.1510 O.2    30  TRP30      -0.2867
      5  CB        -4.3840   -6.1420  -17.1880 C.3    30  TRP30       0.0550
      6  CG        -3.7160   -5.6410  -18.4290 C.ar   30  TRP30       0.0003
      7  CD1       -3.7390   -4.3670  -18.9170 C.ar   30  TRP30       0.0946
      8  CD2       -2.9200   -6.4070  -19.3420 C.ar   30  TRP30       0.0152
      9  NE1       -3.0070   -4.2920  -20.0770 N.ar   30  TRP30      -0.2442
     10  CE2       -2.4930   -5.5300  -20.3590 C.ar   30  TRP30       0.0810
     11  CE3       -2.5250   -7.7480  -19.3960 C.ar   30  TRP30       0.0012
     12  CZ2       -1.6920   -5.9520  -21.4220 C.ar   30  TRP30       0.0191
     13  CZ3       -1.7280   -8.1650  -20.4510 C.ar   30  TRP30       0.0001
     14  CH2       -1.3220   -7.2700  -21.4490 C.ar   30  TRP30       0.0015
     15  N         -0.3550  -11.8120  -19.7540 N.3    50  ASN50      -0.1225
     16  CA        -0.8990  -12.9580  -20.4660 C.3    50  ASN50       0.1785
     17  C         -1.1990  -12.6240  -21.9220 C.2    50  ASN50       0.2597
     18  O         -1.8830  -13.3800  -22.6110 O.2    50  ASN50      -0.2718
     19  CB        -2.1630  -13.4700  -19.7690 C.3    50  ASN50       0.1169
     20  CG        -3.2710  -12.4300  -19.7200 C.2    50  ASN50       0.2627
     21  OD1       -3.0390  -11.2410  -19.9440 O.2    50  ASN50      -0.2716
     22  ND2       -4.4840  -12.8760  -19.4160 N.am   50  ASN50      -0.0877
     23  N         -0.6790  -11.4910  -22.3820 N.am   51  TYR51      -0.1976
     24  CA        -0.9200  -11.0270  -23.7460 C.3    51  TYR51       0.1639
     25  C          0.1640  -10.0480  -24.1900 C.2    51  TYR51       0.2290
     26  O          0.5580   -9.1630  -23.4300 O.2    51  TYR51      -0.2864
     27  CB        -2.2990  -10.3650  -23.8530 C.3    51  TYR51       0.0560
     28  CG        -2.7190  -10.0440  -25.2700 C.ar   51  TYR51      -0.0198
     29  CD1       -3.2180  -11.0330  -26.1030 C.ar   51  TYR51      -0.0009
     30  CD2       -2.6190   -8.7540  -25.7740 C.ar   51  TYR51      -0.0009
     31  CE1       -3.5990  -10.7550  -27.4000 C.ar   51  TYR51       0.0417
     32  CE2       -3.0020   -8.4620  -27.0700 C.ar   51  TYR51       0.0417
     33  CZ        -3.4920   -9.4690  -27.8780 C.ar   51  TYR51       0.1957
     34  OH        -3.8750   -9.1960  -29.1710 O.3    51  TYR51      -0.2866
     35  N         -7.8350   -2.1440  -11.9190 N.3   100  TYR100     -0.1241
     36  CA        -8.2690   -2.7370  -13.1730 C.3   100  TYR100      0.1605
     37  C         -8.0930   -4.2380  -13.0520 C.2   100  TYR100      0.2264
     38  O         -6.9710   -4.7400  -13.1170 O.2   100  TYR100     -0.2867
     39  CB        -7.4680   -2.1770  -14.3480 C.3   100  TYR100      0.0534
     40  CG        -7.9400   -2.6220  -15.7170 C.ar  100  TYR100     -0.0201
     41  CD1       -9.2920   -2.7610  -16.0020 C.ar  100  TYR100     -0.0009
     42  CD2       -7.0290   -2.8700  -16.7350 C.ar  100  TYR100     -0.0009
     43  CE1       -9.7220   -3.1560  -17.2610 C.ar  100  TYR100      0.0417
     44  CE2       -7.4470   -3.2610  -17.9940 C.ar  100  TYR100      0.0417
     45  CZ        -8.7930   -3.4030  -18.2530 C.ar  100  TYR100      0.1957
     46  OH        -9.2040   -3.7950  -19.5080 O.3   100  TYR100     -0.2866
     47  N        -13.4270   -5.7320  -15.0180 N.3   125  TRP125     -0.1241
     48  CA       -12.8010   -5.2230  -16.2380 C.3   125  TRP125      0.1605
     49  C        -13.4600   -3.9620  -16.7900 C.2   125  TRP125      0.2264
     50  O        -13.2880   -3.6300  -17.9630 O.2   125  TRP125     -0.2867
     51  CB       -12.7920   -6.3040  -17.3210 C.3   125  TRP125      0.0550
     52  CG       -12.1040   -7.5620  -16.8990 C.ar  125  TRP125      0.0003
     53  CD1      -12.6670   -8.7970  -16.7580 C.ar  125  TRP125      0.0946
     54  CD2      -10.7230   -7.7070  -16.5470 C.ar  125  TRP125      0.0152
     55  NE1      -11.7200   -9.7040  -16.3480 N.ar  125  TRP125     -0.2442
     56  CE2      -10.5180   -9.0600  -16.2120 C.ar  125  TRP125      0.0810
     57  CE3       -9.6400   -6.8240  -16.4860 C.ar  125  TRP125      0.0012
     58  CZ2       -9.2740   -9.5520  -15.8230 C.ar  125  TRP125      0.0191
     59  CZ3       -8.4050   -7.3160  -16.1010 C.ar  125  TRP125      0.0001
     60  CH2       -8.2330   -8.6670  -15.7730 C.ar  125  TRP125      0.0015
     61  N        -13.3910   -7.5260  -32.0560 N.3   180  MET180     -0.1245
     62  CA       -12.5500   -8.6980  -32.2420 C.3   180  MET180      0.1570
     63  C        -13.1810   -9.6020  -33.2860 C.2   180  MET180      0.2261
     64  O        -14.1210  -10.3420  -32.9960 O.2   180  MET180     -0.2867
     65  CB       -12.3400   -9.4680  -30.9400 C.3   180  MET180      0.0387
     66  CG       -11.5380  -10.7470  -31.1550 C.3   180  MET180      0.0595
     67  SD       -11.2140  -11.6880  -29.6590 S.3   180  MET180     -0.1393
     68  CE       -10.1870  -10.5320  -28.7550 C.3   180  MET180      0.0692
     69  N        -17.0160   -9.9220  -31.6870 N.3   190  TRP190     -0.1241
     70  CA       -17.1680   -9.1080  -30.4900 C.3   190  TRP190      0.1605
     71  C        -17.1050   -7.6220  -30.7990 C.2   190  TRP190      0.2264
     72  O        -16.3410   -7.1910  -31.6600 O.2   190  TRP190     -0.2867
     73  CB       -16.0820   -9.4540  -29.4690 C.3   190  TRP190      0.0550
     74  CG       -16.2440  -10.7910  -28.8340 C.ar  190  TRP190      0.0003
     75  CD1      -15.6450  -11.9580  -29.2100 C.ar  190  TRP190      0.0946
     76  CD2      -17.0580  -11.1040  -27.7000 C.ar  190  TRP190      0.0152
     77  NE1      -16.0370  -12.9800  -28.3790 N.ar  190  TRP190     -0.2442
     78  CE2      -16.9060  -12.4810  -27.4430 C.ar  190  TRP190      0.0810
     79  CE3      -17.9030  -10.3530  -26.8780 C.ar  190  TRP190      0.0012
     80  CZ2      -17.5660  -13.1220  -26.3990 C.ar  190  TRP190      0.0191
     81  CZ3      -18.5570  -10.9920  -25.8400 C.ar  190  TRP190      0.0001
     82  CH2      -18.3850  -12.3620  -25.6100 C.ar  190  TRP190      0.0015
     83  N        -16.5350   -4.1080  -28.4930 N.3   192  TYR192     -0.1241
     84  CA       -16.2620   -3.5820  -27.1640 C.3   192  TYR192      0.1605
     85  C        -17.0600   -2.3080  -26.9330 C.2   192  TYR192      0.2264
     86  O        -17.1010   -1.4260  -27.7890 O.2   192  TYR192     -0.2867
     87  CB       -14.7620   -3.3420  -26.9790 C.3   192  TYR192      0.0534
     88  CG       -13.9600   -4.6230  -27.0190 C.ar  192  TYR192     -0.0201
     89  CD1      -13.7650   -5.3800  -25.8700 C.ar  192  TYR192     -0.0009
     90  CD2      -13.4120   -5.0870  -28.2090 C.ar  192  TYR192     -0.0009
     91  CE1      -13.0390   -6.5590  -25.9040 C.ar  192  TYR192      0.0417
     92  CE2      -12.6850   -6.2630  -28.2540 C.ar  192  TYR192      0.0417
     93  CZ       -12.5020   -6.9950  -27.0990 C.ar  192  TYR192      0.1957
     94  OH       -11.7800   -8.1660  -27.1400 O.3   192  TYR192     -0.2866
     95  N        -15.5460   -0.3100  -21.8030 N.3   196  ASP196     -0.1239
     96  CA       -14.2200   -0.9050  -21.9310 C.3   196  ASP196      0.1674
     97  C        -13.1560    0.1580  -22.1750 C.2   196  ASP196      0.2266
     98  O        -13.3260    1.0290  -23.0240 O.2   196  ASP196     -0.2867
     99  CB       -14.1900   -1.9350  -23.0590 C.3   196  ASP196      0.1410
    100  CG       -12.9140   -2.7570  -23.0550 C.2   196  ASP196      0.3668
    101  OD1      -11.8780   -2.2550  -23.5380 O.co2 196  ASP196     -0.2456
    102  OD2      -12.9440   -3.9030  -22.5600 O.co2 196  ASP196     -0.2456
    103  N        -10.3640    0.1150  -23.6760 N.3   198  ARG198     -0.1245
    104  CA        -9.7090    0.1380  -24.9790 C.3   198  ARG198      0.1563
    105  C        -10.5970    0.8160  -26.0210 C.2   198  ARG198      0.2260
    106  O        -10.1190    1.2670  -27.0600 O.2   198  ARG198     -0.2867
    107  CB        -9.3310   -1.2790  -25.4220 C.3   198  ARG198      0.0307
    108  CG       -10.3370   -1.9780  -26.3240 C.3   198  ARG198      0.0489
    109  CD       -10.0850   -3.4760  -26.3290 C.3   198  ARG198      0.2205
    110  NE       -10.4760   -4.0860  -25.0620 N.pl3 198  ARG198     -0.0865
    111  CZ       -10.1300   -5.3100  -24.6790 C.cat 198  ARG198      0.5346
    112  NH1       -9.3680   -6.0600  -25.4630 N.pl3 198  ARG198      0.1354
    113  NH2      -10.5410   -5.7830  -23.5090 N.pl3 198  ARG198      0.1354
    114  N        -18.3010   -5.3980  -20.8820 N.3   222  PHE222     -0.1227
    115  CA       -17.4500   -4.4550  -21.5790 C.3   222  PHE222      0.1736
    116  C        -17.4480   -4.7700  -23.0670 C.2   222  PHE222      0.2595
    117  O        -16.9240   -4.0040  -23.8770 O.2   222  PHE222     -0.2718
    118  CB       -16.0330   -4.5310  -21.0170 C.3   222  PHE222      0.0547
    119  CG       -15.5020   -5.9350  -20.9300 C.ar  222  PHE222     -0.0202
    120  CD1      -14.8030   -6.4930  -21.9880 C.ar  222  PHE222     -0.0042
    121  CD2      -15.7160   -6.7030  -19.7980 C.ar  222  PHE222     -0.0042
    122  CE1      -14.3220   -7.7870  -21.9130 C.ar  222  PHE222     -0.0003
    123  CE2      -15.2380   -7.9960  -19.7190 C.ar  222  PHE222     -0.0003
    124  CZ       -14.5390   -8.5380  -20.7770 C.ar  222  PHE222     -0.0000
    125  N        -18.0250   -5.9150  -23.4150 N.am  223  ALA223     -0.1980
    126  CA       -18.0640   -6.3640  -24.8000 C.3   223  ALA223      0.1597
    127  C        -19.3620   -7.0990  -25.1020 C.2   223  ALA223      0.2287
    128  O        -19.9450   -7.7430  -24.2300 O.2   223  ALA223     -0.2864
    129  CB       -16.8700   -7.2550  -25.1060 C.3   223  ALA223      0.0319
    130  N         -8.0460   -6.9180  -33.7470 N.3   243  TYR243     -0.1241
    131  CA        -6.7990   -7.6630  -33.6980 C.3   243  TYR243      0.1605
    132  C         -6.7370   -8.5750  -34.9150 C.2   243  TYR243      0.2264
    133  O         -7.7730   -8.9960  -35.4300 O.2   243  TYR243     -0.2867
    134  CB        -6.6910   -8.4900  -32.4160 C.3   243  TYR243      0.0534
    135  CG        -6.9250   -7.7240  -31.1310 C.ar  243  TYR243     -0.0201
    136  CD1       -5.9170   -6.9560  -30.5630 C.ar  243  TYR243     -0.0009
    137  CD2       -8.1470   -7.7940  -30.4710 C.ar  243  TYR243     -0.0009
    138  CE1       -6.1210   -6.2660  -29.3830 C.ar  243  TYR243      0.0417
    139  CE2       -8.3610   -7.1110  -29.2900 C.ar  243  TYR243      0.0417
    140  CZ        -7.3450   -6.3480  -28.7520 C.ar  243  TYR243      0.1957
    141  OH        -7.5530   -5.6630  -27.5790 O.3   243  TYR243     -0.2866
    142  N         -1.9350   -9.0570  -33.5630 N.3   274  ASP274     -0.1239
    143  CA        -2.3080   -9.7730  -32.3470 C.3   274  ASP274      0.1674
    144  C         -1.0910  -10.2850  -31.5780 C.2   274  ASP274      0.2266
    145  O         -0.0800  -10.6610  -32.1750 O.2   274  ASP274     -0.2867
    146  CB        -3.2450  -10.9370  -32.6930 C.3   274  ASP274      0.1410
    147  CG        -3.8110  -11.6250  -31.4610 C.2   274  ASP274      0.3668
    148  OD1       -4.7400  -11.0660  -30.8390 O.co2 274  ASP274     -0.2456
    149  OD2       -3.3370  -12.7300  -31.1220 O.co2 274  ASP274     -0.2456
    150  N         -0.4860   -4.4550  -29.5850 N.3   279  ALA279     -0.1245
    151  CA        -1.8200   -4.9710  -29.3110 C.3   279  ALA279      0.1562
    152  C         -2.1600   -4.8720  -27.8280 C.2   279  ALA279      0.2260
    153  O         -3.2840   -4.5320  -27.4590 O.2   279  ALA279     -0.2867
    154  CB        -1.9350   -6.4100  -29.7870 C.3   279  ALA279      0.0290
    155  N         -5.4180   -1.4250  -24.3610 N.3   283  THR283     -0.1218
    156  CA        -5.9550   -1.0680  -23.0510 C.3   283  THR283      0.1862
    157  C         -4.8660   -0.2860  -22.3320 C.2   283  THR283      0.2287
    158  O         -3.9820   -0.8760  -21.7120 O.2   283  THR283     -0.2866
    159  CB        -6.3620   -2.2970  -22.2170 C.3   283  THR283      0.1770
    160  OG1       -5.2250   -3.1470  -22.0320 O.3   283  THR283     -0.2211
    161  CG2       -7.4600   -3.0830  -22.9170 C.3   283  THR283      0.0375
@<TRIPOS>BOND
     1   133   132    2
     2   132   131    1
     3   130   131    1
     4   131   134    1
     5   142   143    1
     6    63    64    2
     7    63    62    1
     8   146   143    1
     9   146   147    1
    10   134   135    1
    11   143   144    1
    12    62    61    1
    13    62    65    1
    14   145   144    2
    15    69    70    1
    16    72    71    2
    17   147   149   ar
    18   147   148   ar
    19    66    65    1
    20    66    67    1
    21   135   136   ar
    22   135   137   ar
    23    71    70    1
    24   136   138   ar
    25    70    73    1
    26   137   139   ar
    27   154   151    1
    28    67    68    1
    29   150   151    1
    30    73    74    1
    31   138   140   ar
    32   151   152    1
    33   139   140   ar
    34    75    74   ar
    35    75    77   ar
    36    34    33    1
    37    74    76   ar
    38   140   141    1
    39    83    84    1
    40    77    78   ar
    41    92    90   ar
    42    92    93   ar
    43    90    88   ar
    44    33    31   ar
    45    33    32   ar
    46   152   153    2
    47    86    85    2
    48    76    78   ar
    49    76    79   ar
    50    78    80   ar
    51    31    29   ar
    52    84    87    1
    53    84    85    1
    54    94    93    1
    55    93    91   ar
    56    32    30   ar
    57   106   105    2
    58    88    87    1
    59    88    89   ar
    60    79    81   ar
    61    80    82   ar
    62   109   108    1
    63   109   110    1
    64   108   107    1
    65    29    28   ar
    66   105   104    1
    67    91    89   ar
    68    81    82   ar
    69    30    28   ar
    70   112   111    1
    71   107   104    1
    72    28    27    1
    73   129   126    1
    74   127   126    1
    75   127   128    2
    76   110   111    2
    77   104   103    1
    78   126   125    1
    79   111   113    1
    80   155   156    1
    81    25    24    1
    82    25    26    2
    83   117   116    2
    84    27    24    1
    85    24    23    1
    86   101   100   ar
    87   125   116   am
    88   116   115    1
    89    99   100    1
    90    99    96    1
    91   100   102   ar
    92   156   157    1
    93   156   159    1
    94    98    97    2
    95   161   159    1
    96    18    17    2
    97    23    17   am
    98   157   158    2
    99   159   160    1
   100    97    96    1
   101   120   122   ar
   102   120   119   ar
   103    96    95    1
   104    17    16    1
   105   122   124   ar
   106   115   118    1
   107   115   114    1
   108    14    12   ar
   109    14    13   ar
   110    12    10   ar
   111   118   119    1
   112   119   121   ar
   113   124   123   ar
   114    16    19    1
   115    16    15    1
   116    13    11   ar
   117    10     9   ar
   118    10     8   ar
   119     9     7   ar
   120    21    20    2
   121   121   123   ar
   122    19    20    1
   123    20    22   am
   124    46    45    1
   125    11     8   ar
   126     8     6   ar
   127     7     6   ar
   128     6     5    1
   129    45    44   ar
   130    45    43   ar
   131    44    42   ar
   132    50    49    2
   133    51    52    1
   134    51    48    1
   135    43    41   ar
   136     5     2    1
   137    52    53   ar
   138    52    54   ar
   139    49    48    1
   140    53    55   ar
   141    42    40   ar
   142    54    57   ar
   143    54    56   ar
   144    57    59   ar
   145    55    56   ar
   146    48    47    1
   147    56    58   ar
   148    59    60   ar
   149    41    40   ar
   150     2     3    1
   151     2     1    1
   152    58    60   ar
   153    40    39    1
   154     3     4    2
   155    39    36    1
   156    36    37    1
   157    36    35    1
   158    38    37    2
