@<TRIPOS>MOLECULE
tmp/5jjdB03.pdb
 158 153 0 0 0
SMALL
GASTEIGER

@<TRIPOS>ATOM
      1  N        -70.3280   -9.7670  -47.0480 N.3    72  PHE72      -0.1241
      2  CA       -70.8770   -8.6320  -47.7830 C.3    72  PHE72       0.1605
      3  C        -70.8630   -8.8780  -49.2850 C.2    72  PHE72       0.2264
      4  O        -71.7260   -8.3620  -50.0040 O.2    72  PHE72      -0.2867
      5  CB       -70.0950   -7.3590  -47.4600 C.3    72  PHE72       0.0534
      6  CG       -70.6680   -6.1230  -48.0910 C.ar   72  PHE72      -0.0203
      7  CD1      -71.9380   -5.6830  -47.7560 C.ar   72  PHE72      -0.0042
      8  CD2      -69.9370   -5.3970  -49.0150 C.ar   72  PHE72      -0.0042
      9  CE1      -72.4720   -4.5480  -48.3350 C.ar   72  PHE72      -0.0003
     10  CE2      -70.4640   -4.2580  -49.5970 C.ar   72  PHE72      -0.0003
     11  CZ       -71.7350   -3.8330  -49.2550 C.ar   72  PHE72      -0.0000
     12  N        -76.9840  -13.1330  -49.6070 N.3    78  ARG78      -0.1245
     13  CA       -77.5920  -11.8060  -49.6190 C.3    78  ARG78       0.1563
     14  C        -79.0130  -11.8410  -49.0730 C.2    78  ARG78       0.2260
     15  O        -79.4110  -10.9550  -48.3090 O.2    78  ARG78      -0.2867
     16  CB       -77.5860  -11.2410  -51.0380 C.3    78  ARG78       0.0307
     17  CG       -77.9630   -9.7670  -51.1160 C.3    78  ARG78       0.0489
     18  CD       -77.0460   -9.0080  -52.0630 C.3    78  ARG78       0.2205
     19  NE       -75.6480   -9.1490  -51.6750 N.pl3  78  ARG78      -0.0865
     20  CZ       -74.6170   -8.7340  -52.4010 C.cat  78  ARG78       0.5346
     21  NH1      -74.8120   -8.1390  -53.5690 N.pl3  78  ARG78       0.1354
     22  NH2      -73.3860   -8.9180  -51.9530 N.pl3  78  ARG78       0.1354
     23  N        -79.7460  -11.3720  -45.1100 N.3    81  TRP81      -0.1227
     24  CA       -79.6120  -10.1340  -44.3460 C.3    81  TRP81       0.1737
     25  C        -80.0670   -8.8860  -45.0890 C.2    81  TRP81       0.2595
     26  O        -80.4640   -7.9200  -44.4290 O.2    81  TRP81      -0.2718
     27  CB       -78.1570   -9.9410  -43.8980 C.3    81  TRP81       0.0564
     28  CG       -77.1750   -9.8770  -45.0240 C.ar   81  TRP81       0.0003
     29  CD1      -76.4600  -10.9130  -45.5480 C.ar   81  TRP81       0.0946
     30  CD2      -76.7960   -8.7120  -45.7660 C.ar   81  TRP81       0.0152
     31  NE1      -75.6610  -10.4670  -46.5730 N.ar   81  TRP81      -0.2442
     32  CE2      -75.8470   -9.1190  -46.7250 C.ar   81  TRP81       0.0810
     33  CE3      -77.1680   -7.3660  -45.7120 C.ar   81  TRP81       0.0012
     34  CZ2      -75.2640   -8.2260  -47.6240 C.ar   81  TRP81       0.0191
     35  CZ3      -76.5910   -6.4810  -46.6050 C.ar   81  TRP81       0.0001
     36  CH2      -75.6480   -6.9140  -47.5490 C.ar   81  TRP81       0.0015
     37  N        -80.0270   -8.8570  -46.4180 N.am   82  GLU82      -0.1979
     38  CA       -80.4970   -7.7040  -47.1730 C.3    82  GLU82       0.1602
     39  C        -82.0190   -7.6900  -47.2080 C.2    82  GLU82       0.2287
     40  O        -82.6580   -8.7360  -47.3520 O.2    82  GLU82      -0.2864
     41  CB       -79.9280   -7.7380  -48.5930 C.3    82  GLU82       0.0415
     42  CG       -80.6230   -6.8270  -49.5950 C.3    82  GLU82       0.1163
     43  CD       -80.5170   -5.3670  -49.2270 C.2    82  GLU82       0.3649
     44  OE1      -79.5560   -4.9990  -48.5210 O.co2  82  GLU82      -0.2457
     45  OE2      -81.3940   -4.5860  -49.6470 O.co2  82  GLU82      -0.2457
     46  N        -83.8170   -4.6890  -48.7990 N.3    84  THR84      -0.1203
     47  CA       -84.3200   -3.7150  -49.7580 C.3    84  THR84       0.1994
     48  C        -84.2990   -4.2060  -51.1990 C.2    84  THR84       0.2617
     49  O        -85.0220   -3.6480  -52.0300 O.2    84  THR84      -0.2717
     50  CB       -83.5140   -2.4070  -49.6810 C.3    84  THR84       0.1784
     51  OG1      -82.2930   -2.5410  -50.4180 O.3    84  THR84      -0.2211
     52  CG2      -83.1960   -2.0460  -48.2320 C.3    84  THR84       0.0376
     53  N        -83.5010   -5.2260  -51.5160 N.am   85  ILE85      -0.1979
     54  CA       -83.4420   -5.7390  -52.8800 C.3    85  ILE85       0.1595
     55  C        -84.6920   -6.5560  -53.1670 C.2    85  ILE85       0.2287
     56  O        -85.1080   -7.3940  -52.3580 O.2    85  ILE85      -0.2864
     57  CB       -82.1760   -6.5810  -53.0910 C.3    85  ILE85       0.0276
     58  CG1      -80.9330   -5.6880  -53.0310 C.3    85  ILE85       0.0022
     59  CG2      -82.2500   -7.3320  -54.4270 C.3    85  ILE85       0.0022
     60  CD1      -79.6030   -6.4330  -53.1790 C.3    85  ILE85       0.0001
     61  N        -79.5990   -5.6400  -60.1450 N.3   103  GLN103     -0.1245
     62  CA       -80.5830   -5.8310  -59.0930 C.3   103  GLN103      0.1566
     63  C        -81.6290   -4.7320  -59.1650 C.2   103  GLN103      0.2260
     64  O        -81.3590   -3.6140  -59.6160 O.2   103  GLN103     -0.2867
     65  CB       -79.9320   -5.8590  -57.7010 C.3   103  GLN103      0.0367
     66  CG       -79.3660   -4.5350  -57.2220 C.3   103  GLN103      0.0905
     67  CD       -78.5190   -4.6830  -55.9630 C.2   103  GLN103      0.2608
     68  OE1      -78.0020   -5.7610  -55.6690 O.2   103  GLN103     -0.2717
     69  NE2      -78.3700   -3.5940  -55.2200 N.am  103  GLN103     -0.0878
     70  N        -84.4660   -2.7560  -56.6510 N.3   105  HIS105     -0.1241
     71  CA       -84.8190   -2.4760  -55.2690 C.3   105  HIS105      0.1621
     72  C        -86.3290   -2.3560  -55.1390 C.2   105  HIS105      0.2264
     73  O        -87.0050   -1.8540  -56.0420 O.2   105  HIS105     -0.2867
     74  CB       -84.1440   -1.1930  -54.7850 C.3   105  HIS105      0.0745
     75  CG       -82.6610   -1.3170  -54.6410 C.ar  105  HIS105      0.0817
     76  ND1      -82.0400   -1.4510  -53.4180 N.ar  105  HIS105     -0.2268
     77  CD2      -81.6760   -1.3440  -55.5690 C.ar  105  HIS105      0.1154
     78  CE1      -80.7350   -1.5480  -53.5980 C.ar  105  HIS105      0.1986
     79  NE2      -80.4880   -1.4860  -54.8950 N.ar  105  HIS105     -0.2212
     80  N        -73.8720   -2.8960  -61.3960 N.3   118  TYR118     -0.1241
     81  CA       -72.6000   -2.5660  -60.7740 C.3   118  TYR118      0.1605
     82  C        -71.6630   -3.7630  -60.7590 C.2   118  TYR118      0.2264
     83  O        -72.0930   -4.9190  -60.7320 O.2   118  TYR118     -0.2867
     84  CB       -72.8020   -2.0520  -59.3430 C.3   118  TYR118      0.0534
     85  CG       -73.3940   -3.0550  -58.3690 C.ar  118  TYR118     -0.0201
     86  CD1      -74.7670   -3.2600  -58.2970 C.ar  118  TYR118     -0.0009
     87  CD2      -72.5800   -3.7730  -57.4980 C.ar  118  TYR118     -0.0009
     88  CE1      -75.3120   -4.1620  -57.3980 C.ar  118  TYR118      0.0417
     89  CE2      -73.1160   -4.6760  -56.5940 C.ar  118  TYR118      0.0417
     90  CZ       -74.4820   -4.8660  -56.5500 C.ar  118  TYR118      0.1957
     91  OH       -75.0190   -5.7620  -55.6530 O.3   118  TYR118     -0.2866
     92  N        -68.2890   -1.7080  -54.8410 N.3   140  ASN140     -0.1240
     93  CA       -69.4360   -1.8590  -55.7260 C.3   140  ASN140      0.1653
     94  C        -69.6240   -0.5320  -56.4480 C.2   140  ASN140      0.2266
     95  O        -70.0030    0.4660  -55.8250 O.2   140  ASN140     -0.2867
     96  CB       -70.6900   -2.2400  -54.9400 C.3   140  ASN140      0.1155
     97  CG       -70.5670   -3.5880  -54.2660 C.2   140  ASN140      0.2627
     98  OD1      -69.9780   -4.5190  -54.8160 O.2   140  ASN140     -0.2716
     99  ND2      -71.1300   -3.7020  -53.0680 N.am  140  ASN140     -0.0877
    100  N        -73.9740    4.1780  -58.4890 N.3   159  ILE159     -0.1245
    101  CA       -73.4440    4.0030  -57.1450 C.3   159  ILE159      0.1561
    102  C        -71.9280    3.8910  -57.1920 C.2   159  ILE159      0.2260
    103  O        -71.3430    3.3930  -58.1600 O.2   159  ILE159     -0.2867
    104  CB       -74.0460    2.7600  -56.4410 C.3   159  ILE159      0.0252
    105  CG1      -73.6350    1.4640  -57.1510 C.3   159  ILE159      0.0019
    106  CG2      -75.5580    2.8720  -56.3850 C.3   159  ILE159      0.0019
    107  CD1      -73.8650    0.2160  -56.3240 C.3   159  ILE159      0.0001
    108  N        -69.8660    2.3980  -54.0140 N.3   161  VAL161     -0.1245
    109  CA       -69.9670    1.8940  -52.6490 C.3   161  VAL161      0.1561
    110  C        -68.6980    1.1270  -52.3110 C.2   161  VAL161      0.2260
    111  O        -68.1680    0.3840  -53.1450 O.2   161  VAL161     -0.2867
    112  CB       -71.2050    0.9920  -52.4670 C.3   161  VAL161      0.0252
    113  CG1      -71.2220    0.3680  -51.0670 C.3   161  VAL161      0.0019
    114  CG2      -72.4800    1.7800  -52.7130 C.3   161  VAL161      0.0019
    115  N        -67.5850    2.2840  -44.0690 N.3   189  TYR189     -0.1241
    116  CA       -68.5460    2.1130  -45.1490 C.3   189  TYR189      0.1605
    117  C        -68.8500    3.4730  -45.7570 C.2   189  TYR189      0.2264
    118  O        -69.2050    4.4130  -45.0370 O.2   189  TYR189     -0.2867
    119  CB       -69.8310    1.4500  -44.6400 C.3   189  TYR189      0.0534
    120  CG       -70.8950    1.2800  -45.6990 C.ar  189  TYR189     -0.0201
    121  CD1      -71.9070    2.2160  -45.8500 C.ar  189  TYR189     -0.0009
    122  CD2      -70.8860    0.1820  -46.5500 C.ar  189  TYR189     -0.0009
    123  CE1      -72.8810    2.0650  -46.8180 C.ar  189  TYR189      0.0417
    124  CE2      -71.8560    0.0230  -47.5210 C.ar  189  TYR189      0.0417
    125  CZ       -72.8490    0.9680  -47.6490 C.ar  189  TYR189      0.1957
    126  OH       -73.8140    0.8100  -48.6120 O.3   189  TYR189     -0.2866
    127  N        -82.5250    3.5910  -43.3410 N.3   211  GLU211     -0.1231
    128  CA       -82.1450    2.2960  -43.8940 C.3   211  GLU211      0.1699
    129  C        -80.6700    1.9700  -43.7060 C.2   211  GLU211      0.2592
    130  O        -80.3190    0.7900  -43.5900 O.2   211  GLU211     -0.2718
    131  CB       -82.4940    2.2450  -45.3860 C.3   211  GLU211      0.0402
    132  CG       -83.9910    2.2460  -45.6670 C.3   211  GLU211      0.1161
    133  CD       -84.6720    0.9760  -45.1920 C.2   211  GLU211      0.3649
    134  OE1      -84.2530   -0.1190  -45.6220 O.co2 211  GLU211     -0.2457
    135  OE2      -85.6170    1.0700  -44.3820 O.co2 211  GLU211     -0.2457
    136  N        -79.7920    2.9790  -43.6750 N.am  212  TYR212     -0.1976
    137  CA       -78.3660    2.6950  -43.5130 C.3   212  TYR212      0.1639
    138  C        -78.0500    2.1900  -42.1120 C.2   212  TYR212      0.2290
    139  O        -77.3850    1.1460  -41.9890 O.2   212  TYR212     -0.2864
    140  CB       -77.5460    3.9350  -43.8780 C.3   212  TYR212      0.0560
    141  CG       -77.4220    4.1560  -45.3710 C.ar  212  TYR212     -0.0198
    142  CD1      -78.3210    4.9650  -46.0520 C.ar  212  TYR212     -0.0009
    143  CD2      -76.4070    3.5490  -46.1000 C.ar  212  TYR212     -0.0009
    144  CE1      -78.2120    5.1670  -47.4180 C.ar  212  TYR212      0.0417
    145  CE2      -76.2920    3.7450  -47.4660 C.ar  212  TYR212      0.0417
    146  CZ       -77.1970    4.5540  -48.1190 C.ar  212  TYR212      0.1957
    147  OH       -77.0870    4.7530  -49.4760 O.3   212  TYR212     -0.2866
    148  N        -79.3190   -1.4120  -41.8860 N.3   215  PHE215     -0.1241
    149  CA       -78.5640   -2.3990  -42.6510 C.3   215  PHE215      0.1605
    150  C        -77.2380   -2.7280  -41.9730 C.2   215  PHE215      0.2264
    151  O        -76.8380   -3.8970  -41.9180 O.2   215  PHE215     -0.2867
    152  CB       -78.3370   -1.8940  -44.0790 C.3   215  PHE215      0.0534
    153  CG       -76.9340   -2.0910  -44.5770 C.ar  215  PHE215     -0.0203
    154  CD1      -76.4940   -3.3390  -44.9790 C.ar  215  PHE215     -0.0042
    155  CD2      -76.0580   -1.0210  -44.6470 C.ar  215  PHE215     -0.0042
    156  CE1      -75.1980   -3.5170  -45.4350 C.ar  215  PHE215     -0.0003
    157  CE2      -74.7650   -1.1910  -45.1040 C.ar  215  PHE215     -0.0003
    158  CZ       -74.3340   -2.4410  -45.4980 C.ar  215  PHE215     -0.0000
@<TRIPOS>BOND
     1    80    81    1
     2    81    82    1
     3    81    84    1
     4    82    83    2
     5    61    62    1
     6    64    63    2
     7    84    85    1
     8    63    62    1
     9    62    65    1
    10   100   101    1
    11    85    86   ar
    12    85    87   ar
    13    86    88   ar
    14   103   102    2
    15    65    66    1
    16    87    89   ar
    17    88    90   ar
    18    66    67    1
    19   102   101    1
    20   105   104    1
    21   105   107    1
    22   101   104    1
    23    70    71    1
    24    89    90   ar
    25    90    91    1
    26    94    95    2
    27    94    93    1
    28   104   106    1
    29    73    72    2
    30    67    68    2
    31    67    69   am
    32    93    96    1
    33    93    92    1
    34    77    79   ar
    35    77    75   ar
    36    71    72    1
    37    71    74    1
    38    96    97    1
    39    79    78   ar
    40    98    97    2
    41    74    75    1
    42    75    76   ar
    43    59    57    1
    44    97    99   am
    45   108   109    1
    46    78    76   ar
    47    21    20    1
    48    60    58    1
    49    55    54    1
    50    55    56    2
    51   111   110    2
    52    57    58    1
    53    57    54    1
    54    54    53    1
    55   114   112    1
    56   109   112    1
    57   109   110    1
    58   112   113    1
    59    20    22    1
    60    20    19    2
    61    18    19    1
    62    18    17    1
    63    49    48    2
    64    53    48   am
    65    48    47    1
    66    17    16    1
    67    16    13    1
    68    51    50    1
    69     4     3    2
    70    47    50    1
    71    47    46    1
    72    50    52    1
    73    45    43   ar
    74    13    12    1
    75    13    14    1
    76    10    11   ar
    77    10     8   ar
    78    42    43    1
    79    42    41    1
    80   147   146    1
    81     3     2    1
    82    11     9   ar
    83    43    44   ar
    84    14    15    2
    85     8     6   ar
    86   126   125    1
    87    41    38    1
    88     9     7   ar
    89   146   145   ar
    90   146   144   ar
    91     6     7   ar
    92     6     5    1
    93     2     5    1
    94     2     1    1
    95   125   124   ar
    96   125   123   ar
    97    34    36   ar
    98    34    32   ar
    99    36    35   ar
   100   124   122   ar
   101   145   143   ar
   102   144   142   ar
   103    40    39    2
   104    39    38    1
   105    38    37    1
   106   123   121   ar
   107    32    31   ar
   108    32    30   ar
   109    35    33   ar
   110    31    29   ar
   111   122   120   ar
   112    37    25   am
   113   143   141   ar
   114   142   141   ar
   115   121   120   ar
   116    30    33   ar
   117    30    28   ar
   118   117   116    1
   119   117   118    2
   120   120   119    1
   121   132   131    1
   122   132   133    1
   123   134   133   ar
   124    29    28   ar
   125   158   156   ar
   126   158   157   ar
   127   156   154   ar
   128   131   128    1
   129   141   140    1
   130   133   135   ar
   131   116   119    1
   132   116   115    1
   133    23    24    1
   134   157   155   ar
   135    25    26    2
   136    25    24    1
   137    28    27    1
   138   154   153   ar
   139   155   153   ar
   140   153   152    1
   141    24    27    1
   142   152   149    1
   143   128   129    1
   144   128   127    1
   145   140   137    1
   146   129   136   am
   147   129   130    2
   148   136   137    1
   149   137   138    1
   150   149   150    1
   151   149   148    1
   152   138   139    2
   153   150   151    2
