@<TRIPOS>MOLECULE
tmp/5jjdB00.pdb
 103 95 0 0 0
SMALL
GASTEIGER

@<TRIPOS>ATOM
      1  N        -79.5990   -5.6400  -60.1450 N.3   103  GLN103     -0.1245
      2  CA       -80.5830   -5.8310  -59.0930 C.3   103  GLN103      0.1566
      3  C        -81.6290   -4.7320  -59.1650 C.2   103  GLN103      0.2260
      4  O        -81.3590   -3.6140  -59.6160 O.2   103  GLN103     -0.2867
      5  CB       -79.9320   -5.8590  -57.7010 C.3   103  GLN103      0.0367
      6  CG       -79.3660   -4.5350  -57.2220 C.3   103  GLN103      0.0905
      7  CD       -78.5190   -4.6830  -55.9630 C.2   103  GLN103      0.2608
      8  OE1      -78.0020   -5.7610  -55.6690 O.2   103  GLN103     -0.2717
      9  NE2      -78.3700   -3.5940  -55.2200 N.am  103  GLN103     -0.0878
     10  N        -84.4660   -2.7560  -56.6510 N.3   105  HIS105     -0.1241
     11  CA       -84.8190   -2.4760  -55.2690 C.3   105  HIS105      0.1621
     12  C        -86.3290   -2.3560  -55.1390 C.2   105  HIS105      0.2264
     13  O        -87.0050   -1.8540  -56.0420 O.2   105  HIS105     -0.2867
     14  CB       -84.1440   -1.1930  -54.7850 C.3   105  HIS105      0.0745
     15  CG       -82.6610   -1.3170  -54.6410 C.ar  105  HIS105      0.0817
     16  ND1      -82.0400   -1.4510  -53.4180 N.ar  105  HIS105     -0.2268
     17  CD2      -81.6760   -1.3440  -55.5690 C.ar  105  HIS105      0.1154
     18  CE1      -80.7350   -1.5480  -53.5980 C.ar  105  HIS105      0.1986
     19  NE2      -80.4880   -1.4860  -54.8950 N.ar  105  HIS105     -0.2212
     20  N        -86.1350    1.7580  -58.3800 N.3   114  ARG114     -0.1245
     21  CA       -84.7560    1.8950  -58.8240 C.3   114  ARG114      0.1563
     22  C        -84.1510    0.5280  -59.1040 C.2   114  ARG114      0.2260
     23  O        -84.3920   -0.4340  -58.3680 O.2   114  ARG114     -0.2867
     24  CB       -83.9010    2.6210  -57.7780 C.3   114  ARG114      0.0307
     25  CG       -83.6660    4.0970  -58.0730 C.3   114  ARG114      0.0489
     26  CD       -84.9280    4.9130  -57.8750 C.3   114  ARG114      0.2205
     27  NE       -84.7280    6.3220  -58.2020 N.pl3 114  ARG114     -0.0865
     28  CZ       -85.6590    7.2620  -58.0680 C.cat 114  ARG114      0.5346
     29  NH1      -86.8640    6.9510  -57.6080 N.pl3 114  ARG114      0.1354
     30  NH2      -85.3860    8.5180  -58.3920 N.pl3 114  ARG114      0.1354
     31  N        -80.0900   -1.0420  -60.4660 N.3   116  VAL116     -0.1245
     32  CA       -78.6860   -0.6570  -60.5020 C.3   116  VAL116      0.1561
     33  C        -77.8980   -1.7790  -61.1570 C.2   116  VAL116      0.2260
     34  O        -78.2530   -2.9570  -61.0570 O.2   116  VAL116     -0.2867
     35  CB       -78.1580   -0.3310  -59.0820 C.3   116  VAL116      0.0252
     36  CG1      -78.3350   -1.5190  -58.1630 C.3   116  VAL116      0.0019
     37  CG2      -76.6980    0.1040  -59.1250 C.3   116  VAL116      0.0019
     38  N        -79.9860    3.9240  -61.1520 N.3   157  ALA157     -0.1245
     39  CA       -79.1580    4.6680  -60.2170 C.3   157  ALA157      0.1562
     40  C        -77.6860    4.3480  -60.4400 C.2   157  ALA157      0.2260
     41  O        -77.3270    3.2620  -60.9030 O.2   157  ALA157     -0.2867
     42  CB       -79.5420    4.3420  -58.7740 C.3   157  ALA157      0.0290
     43  N        -73.9740    4.1780  -58.4890 N.3   159  ILE159     -0.1245
     44  CA       -73.4440    4.0030  -57.1450 C.3   159  ILE159      0.1561
     45  C        -71.9280    3.8910  -57.1920 C.2   159  ILE159      0.2260
     46  O        -71.3430    3.3930  -58.1600 O.2   159  ILE159     -0.2867
     47  CB       -74.0460    2.7600  -56.4410 C.3   159  ILE159      0.0252
     48  CG1      -73.6350    1.4640  -57.1510 C.3   159  ILE159      0.0019
     49  CG2      -75.5580    2.8720  -56.3850 C.3   159  ILE159      0.0019
     50  CD1      -73.8650    0.2160  -56.3240 C.3   159  ILE159      0.0001
     51  N        -69.8660    2.3980  -54.0140 N.3   161  VAL161     -0.1245
     52  CA       -69.9670    1.8940  -52.6490 C.3   161  VAL161      0.1561
     53  C        -68.6980    1.1270  -52.3110 C.2   161  VAL161      0.2260
     54  O        -68.1680    0.3840  -53.1450 O.2   161  VAL161     -0.2867
     55  CB       -71.2050    0.9920  -52.4670 C.3   161  VAL161      0.0252
     56  CG1      -71.2220    0.3680  -51.0670 C.3   161  VAL161      0.0019
     57  CG2      -72.4800    1.7800  -52.7130 C.3   161  VAL161      0.0019
     58  N        -67.5850    2.2840  -44.0690 N.3   189  TYR189     -0.1241
     59  CA       -68.5460    2.1130  -45.1490 C.3   189  TYR189      0.1605
     60  C        -68.8500    3.4730  -45.7570 C.2   189  TYR189      0.2264
     61  O        -69.2050    4.4130  -45.0370 O.2   189  TYR189     -0.2867
     62  CB       -69.8310    1.4500  -44.6400 C.3   189  TYR189      0.0534
     63  CG       -70.8950    1.2800  -45.6990 C.ar  189  TYR189     -0.0201
     64  CD1      -71.9070    2.2160  -45.8500 C.ar  189  TYR189     -0.0009
     65  CD2      -70.8860    0.1820  -46.5500 C.ar  189  TYR189     -0.0009
     66  CE1      -72.8810    2.0650  -46.8180 C.ar  189  TYR189      0.0417
     67  CE2      -71.8560    0.0230  -47.5210 C.ar  189  TYR189      0.0417
     68  CZ       -72.8490    0.9680  -47.6490 C.ar  189  TYR189      0.1957
     69  OH       -73.8140    0.8100  -48.6120 O.3   189  TYR189     -0.2866
     70  N        -74.4930    7.5810  -53.8640 N.3   193  VAL193     -0.1245
     71  CA       -75.5920    7.1160  -54.7000 C.3   193  VAL193      0.1561
     72  C        -76.1670    8.3020  -55.4580 C.2   193  VAL193      0.2260
     73  O        -76.4360    9.3560  -54.8670 O.2   193  VAL193     -0.2867
     74  CB       -76.6860    6.4270  -53.8660 C.3   193  VAL193      0.0252
     75  CG1      -77.7850    5.8930  -54.7750 C.3   193  VAL193      0.0019
     76  CG2      -76.0930    5.3080  -53.0280 C.3   193  VAL193      0.0019
     77  N        -79.5390    8.9080  -57.2020 N.3   195  PRO195     -0.2116
     78  CA       -80.8410    8.2530  -57.4100 C.3   195  PRO195      0.1372
     79  C        -81.2870    8.2440  -58.8580 C.2   195  PRO195      0.2244
     80  O        -81.9540    7.2930  -59.2840 O.2   195  PRO195     -0.2868
     81  CB       -81.7940    9.0770  -56.5320 C.3   195  PRO195      0.0268
     82  CG       -80.9190    9.7530  -55.5350 C.3   195  PRO195      0.0207
     83  CD       -79.6300   10.0190  -56.2390 C.3   195  PRO195      0.0892
     84  N        -85.8600   11.4070  -49.5020 N.3   204  LEU204     -0.1245
     85  CA       -84.6450   10.6510  -49.7900 C.3   204  LEU204      0.1561
     86  C        -83.7040   10.6330  -48.5920 C.2   204  LEU204      0.2260
     87  O        -83.0440    9.6210  -48.3280 O.2   204  LEU204     -0.2867
     88  CB       -83.9380   11.2400  -51.0120 C.3   204  LEU204      0.0270
     89  CG       -84.6950   11.1580  -52.3400 C.3   204  LEU204      0.0019
     90  CD1      -83.9700   11.9550  -53.4140 C.3   204  LEU204      0.0001
     91  CD2      -84.8780    9.7120  -52.7810 C.3   204  LEU204      0.0001
     92  N        -79.7920    2.9790  -43.6750 N.3   212  TYR212     -0.1241
     93  CA       -78.3660    2.6950  -43.5130 C.3   212  TYR212      0.1605
     94  C        -78.0500    2.1900  -42.1120 C.2   212  TYR212      0.2264
     95  O        -77.3850    1.1460  -41.9890 O.2   212  TYR212     -0.2867
     96  CB       -77.5460    3.9350  -43.8780 C.3   212  TYR212      0.0534
     97  CG       -77.4220    4.1560  -45.3710 C.ar  212  TYR212     -0.0201
     98  CD1      -78.3210    4.9650  -46.0520 C.ar  212  TYR212     -0.0009
     99  CD2      -76.4070    3.5490  -46.1000 C.ar  212  TYR212     -0.0009
    100  CE1      -78.2120    5.1670  -47.4180 C.ar  212  TYR212      0.0417
    101  CE2      -76.2920    3.7450  -47.4660 C.ar  212  TYR212      0.0417
    102  CZ       -77.1970    4.5540  -48.1190 C.ar  212  TYR212      0.1957
    103  OH       -77.0870    4.7530  -49.4760 O.3   212  TYR212     -0.2866
@<TRIPOS>BOND
     1    33    34    2
     2    33    32    1
     3    38    39    1
     4    41    40    2
     5    32    31    1
     6    32    35    1
     7    40    39    1
     8    39    42    1
     9     1     2    1
    10     4     3    2
    11    80    79    2
    12     3     2    1
    13    37    35    1
    14    22    21    1
    15    22    23    2
    16     2     5    1
    17    35    36    1
    18    79    78    1
    19    21    20    1
    20    21    24    1
    21    43    44    1
    22    30    28    1
    23    27    28    2
    24    27    26    1
    25    46    45    2
    26    25    26    1
    27    25    24    1
    28    28    29    1
    29     5     6    1
    30    78    77    1
    31    78    81    1
    32     6     7    1
    33    77    83    1
    34    45    44    1
    35    48    47    1
    36    48    50    1
    37    44    47    1
    38    10    11    1
    39    81    82    1
    40    47    49    1
    41    83    82    1
    42    13    12    2
    43     7     8    2
    44     7     9   am
    45    17    19   ar
    46    17    15   ar
    47    72    73    2
    48    72    71    1
    49    11    12    1
    50    11    14    1
    51    19    18   ar
    52    14    15    1
    53    75    74    1
    54    71    74    1
    55    71    70    1
    56    15    16   ar
    57    51    52    1
    58    74    76    1
    59    18    16   ar
    60    90    89    1
    61    54    53    2
    62    91    89    1
    63    57    55    1
    64    52    55    1
    65    52    53    1
    66    55    56    1
    67    89    88    1
    68    88    85    1
    69    85    84    1
    70    85    86    1
    71   103   102    1
    72    69    68    1
    73    86    87    2
    74   102   101   ar
    75   102   100   ar
    76    68    67   ar
    77    68    66   ar
    78    67    65   ar
    79   101    99   ar
    80   100    98   ar
    81    66    64   ar
    82    65    63   ar
    83    99    97   ar
    84    98    97   ar
    85    64    63   ar
    86    60    59    1
    87    60    61    2
    88    63    62    1
    89    97    96    1
    90    59    62    1
    91    59    58    1
    92    96    93    1
    93    92    93    1
    94    93    94    1
    95    94    95    2
