@<TRIPOS>MOLECULE
tmp/5jjfA04.pdb
 82 78 0 0 0
SMALL
GASTEIGER

@<TRIPOS>ATOM
      1  N        -15.2180   19.3850   54.0090 N.3   120  ILE120     -0.1245
      2  CA       -15.0450   18.4920   55.1510 C.3   120  ILE120      0.1561
      3  C        -15.6660   17.1160   54.8940 C.2   120  ILE120      0.2260
      4  O        -15.3140   16.1270   55.5460 O.2   120  ILE120     -0.2867
      5  CB       -15.6390   19.1180   56.4440 C.3   120  ILE120      0.0252
      6  CG1      -14.8500   18.6790   57.6790 C.3   120  ILE120      0.0019
      7  CG2      -17.1240   18.8060   56.5830 C.3   120  ILE120      0.0019
      8  CD1      -13.4950   19.3400   57.8010 C.3   120  ILE120      0.0001
      9  N        -13.9090   13.5410   54.4780 N.3   123  TYR123     -0.1227
     10  CA       -13.6130   12.6030   55.5660 C.3   123  TYR123      0.1736
     11  C        -14.6690   11.5020   55.6780 C.2   123  TYR123      0.2595
     12  O        -14.3980   10.4210   56.2120 O.2   123  TYR123     -0.2718
     13  CB       -13.4440   13.3320   56.9030 C.3   123  TYR123      0.0548
     14  CG       -12.2000   14.1880   56.9710 C.ar  123  TYR123     -0.0200
     15  CD1      -10.9400   13.6070   57.0390 C.ar  123  TYR123     -0.0009
     16  CD2      -12.2820   15.5820   56.9820 C.ar  123  TYR123     -0.0009
     17  CE1       -9.7950   14.3780   57.0970 C.ar  123  TYR123      0.0417
     18  CE2      -11.1410   16.3610   57.0390 C.ar  123  TYR123      0.0417
     19  CZ        -9.8990   15.7570   57.1020 C.ar  123  TYR123      0.1957
     20  OH        -8.7540   16.5240   57.1640 O.3   123  TYR123     -0.2866
     21  N        -15.8690   11.7820   55.1790 N.am  124  ALA124     -0.1980
     22  CA       -16.9110   10.7680   55.0820 C.3   124  ALA124      0.1597
     23  C        -16.4980    9.7310   54.0470 C.2   124  ALA124      0.2287
     24  O        -16.6790    8.5220   54.2460 O.2   124  ALA124     -0.2864
     25  CB       -18.2330   11.3980   54.6950 C.3   124  ALA124      0.0319
     26  N        -13.3340    9.1950   53.1060 N.3   126  PHE126     -0.1227
     27  CA       -12.2430    8.4780   53.7630 C.3   126  PHE126      0.1736
     28  C        -12.8050    7.3530   54.6410 C.2   126  PHE126      0.2596
     29  O        -12.3440    6.2010   54.5680 O.2   126  PHE126     -0.2718
     30  CB       -11.3860    9.4180   54.6260 C.3   126  PHE126      0.0547
     31  CG       -10.3200    8.7030   55.4040 C.ar  126  PHE126     -0.0202
     32  CD1       -9.0900    8.4320   54.8260 C.ar  126  PHE126     -0.0042
     33  CD2      -10.5560    8.2670   56.7000 C.ar  126  PHE126     -0.0042
     34  CE1       -8.1020    7.7590   55.5370 C.ar  126  PHE126     -0.0003
     35  CE2       -9.5810    7.5790   57.4130 C.ar  126  PHE126     -0.0003
     36  CZ        -8.3530    7.3200   56.8240 C.ar  126  PHE126     -0.0000
     37  N        -13.7950    7.7050   55.4660 N.am  127  GLY127     -0.1957
     38  CA       -14.4300    6.7720   56.3860 C.3   127  GLY127      0.1869
     39  C        -15.0180    5.5570   55.6890 C.2   127  GLY127      0.2309
     40  O        -14.9070    4.4330   56.1760 O.2   127  GLY127     -0.2863
     41  N         -3.0790    6.6240   57.0460 N.3   175  PHE175     -0.1241
     42  CA        -2.5150    7.6110   57.9620 C.3   175  PHE175      0.1605
     43  C         -1.7710    8.6900   57.1880 C.2   175  PHE175      0.2264
     44  O         -1.7490    9.8480   57.5910 O.2   175  PHE175     -0.2867
     45  CB        -1.5650    6.9520   58.9550 C.3   175  PHE175      0.0534
     46  CG        -2.2550    6.1170   59.9840 C.ar  175  PHE175     -0.0203
     47  CD1       -2.7440    6.6920   61.1500 C.ar  175  PHE175     -0.0042
     48  CD2       -2.4020    4.7470   59.7980 C.ar  175  PHE175     -0.0042
     49  CE1       -3.3790    5.9190   62.1060 C.ar  175  PHE175     -0.0003
     50  CE2       -3.0340    3.9680   60.7490 C.ar  175  PHE175     -0.0003
     51  CZ        -3.5250    4.5560   61.9080 C.ar  175  PHE175     -0.0000
     52  N         -4.4650   10.9560   55.8290 N.3   178  LEU178     -0.1231
     53  CA        -5.0010   11.8190   56.8900 C.3   178  LEU178      0.1693
     54  C         -4.0620   12.9420   57.3160 C.2   178  LEU178      0.2591
     55  O         -4.5060   14.0640   57.5820 O.2   178  LEU178     -0.2718
     56  CB        -5.3610   10.9840   58.1240 C.3   178  LEU178      0.0284
     57  CG        -6.6230   10.1330   58.0380 C.3   178  LEU178      0.0019
     58  CD1       -6.7370    9.2410   59.2830 C.3   178  LEU178      0.0001
     59  CD2       -7.8600   11.0170   57.8810 C.3   178  LEU178      0.0001
     60  N         -2.7720   12.6340   57.4030 N.am  179  LEU179     -0.1980
     61  CA        -1.7840   13.5880   57.9020 C.3   179  LEU179      0.1596
     62  C         -1.1840   14.4380   56.7830 C.2   179  LEU179      0.2287
     63  O         -0.6250   15.5220   57.0300 O.2   179  LEU179     -0.2864
     64  CB        -0.6800   12.8440   58.6570 C.3   179  LEU179      0.0297
     65  CG        -1.0810   12.2280   60.0000 C.3   179  LEU179      0.0022
     66  CD1        0.0120   11.3110   60.5130 C.3   179  LEU179      0.0001
     67  CD2       -1.3730   13.3240   61.0340 C.3   179  LEU179      0.0001
     68  N         -5.0570   16.8100   56.9330 N.3   184  VAL184     -0.1245
     69  CA        -4.7700   18.0120   57.7140 C.3   184  VAL184      0.1561
     70  C         -3.4610   18.6850   57.3010 C.2   184  VAL184      0.2260
     71  O         -3.0570   19.6800   57.9040 O.2   184  VAL184     -0.2867
     72  CB        -4.7190   17.7040   59.2260 C.3   184  VAL184      0.0252
     73  CG1       -6.1110   17.4030   59.7640 C.3   184  VAL184      0.0019
     74  CG2       -3.7660   16.5420   59.5080 C.3   184  VAL184      0.0019
     75  N         -0.2150   18.0900   57.6460 N.3   186  LEU186     -0.1245
     76  CA         0.8960   18.2290   58.5840 C.3   186  LEU186      0.1561
     77  C          2.2020   17.7310   57.9700 C.2   186  LEU186      0.2260
     78  O          3.2780   18.1800   58.3460 O.2   186  LEU186     -0.2867
     79  CB         0.6040   17.5020   59.8940 C.3   186  LEU186      0.0270
     80  CG        -0.3520   18.2000   60.8680 C.3   186  LEU186      0.0019
     81  CD1       -0.5980   17.3280   62.0870 C.3   186  LEU186      0.0001
     82  CD2        0.1730   19.5920   61.2680 C.3   186  LEU186      0.0001
@<TRIPOS>BOND
     1    26    27    1
     2    27    30    1
     3    27    28    1
     4     1     2    1
     5    23    24    2
     6    23    22    1
     7     9    10    1
     8    29    28    2
     9    30    31    1
    10    28    37   am
    11    25    22    1
    12    32    31   ar
    13    32    34   ar
    14     3     2    1
    15     3     4    2
    16    22    21    1
    17     2     5    1
    18    21    11   am
    19    31    33   ar
    20    37    38    1
    21    34    36   ar
    22    10    11    1
    23    10    13    1
    24    11    12    2
    25    39    40    2
    26    39    38    1
    27    52    53    1
    28     5     7    1
    29     5     6    1
    30    33    35   ar
    31    62    63    2
    32    62    61    1
    33    36    35   ar
    34    53    54    1
    35    53    56    1
    36    13    14    1
    37    68    69    1
    38    14    16   ar
    39    14    15   ar
    40    16    18   ar
    41    18    19   ar
    42    15    17   ar
    43    41    42    1
    44    17    19   ar
    45    19    20    1
    46    43    44    2
    47    43    42    1
    48    70    69    1
    49    70    71    2
    50    54    60   am
    51    54    55    2
    52    60    61    1
    53    75    76    1
    54     6     8    1
    55    69    72    1
    56    59    57    1
    57    61    64    1
    58    42    45    1
    59    77    78    2
    60    77    76    1
    61    57    56    1
    62    57    58    1
    63    76    79    1
    64    64    65    1
    65    45    46    1
    66    72    74    1
    67    72    73    1
    68    48    46   ar
    69    48    50   ar
    70    79    80    1
    71    46    47   ar
    72    65    66    1
    73    65    67    1
    74    50    51   ar
    75    80    82    1
    76    80    81    1
    77    47    49   ar
    78    51    49   ar
