@<TRIPOS>MOLECULE
tmp/5jjfA08.pdb
 87 81 0 0 0
SMALL
GASTEIGER

@<TRIPOS>ATOM
      1  N         12.8840    3.0510   40.4470 N.3    13  GLY13      -0.1225
      2  CA        12.7020    1.9030   41.3330 C.3    13  GLY13       0.1811
      3  C         11.7100    0.8970   40.7780 C.2    13  GLY13       0.2280
      4  O         11.9540   -0.3150   40.7980 O.2    13  GLY13      -0.2866
      5  N         13.2130   -0.9130   37.7440 N.3    16  VAL16      -0.1245
      6  CA        14.1780   -1.9210   38.1570 C.3    16  VAL16       0.1561
      7  C         13.4560   -3.1980   38.5820 C.2    16  VAL16       0.2260
      8  O         13.8450   -4.3010   38.1880 O.2    16  VAL16      -0.2867
      9  CB        15.0910   -1.4110   39.2850 C.3    16  VAL16       0.0252
     10  CG1       15.8780   -2.5580   39.8890 C.3    16  VAL16       0.0019
     11  CG2       16.0360   -0.3380   38.7510 C.3    16  VAL16       0.0019
     12  N          3.6080  -14.7030   54.4940 N.3   161  ARG161     -0.1245
     13  CA         4.6310  -13.6650   54.4640 C.3   161  ARG161      0.1563
     14  C          4.1630  -12.4510   53.6490 C.2   161  ARG161      0.2260
     15  O          4.3020  -11.3030   54.0790 O.2   161  ARG161     -0.2867
     16  CB         5.9290  -14.2440   53.9020 C.3   161  ARG161      0.0307
     17  CG         7.0660  -13.2560   53.8170 C.3   161  ARG161      0.0489
     18  CD         8.3980  -13.9640   53.6850 C.3   161  ARG161      0.2205
     19  NE         8.9250  -14.3540   54.9870 N.pl3 161  ARG161     -0.0865
     20  CZ         8.7870  -15.5640   55.5160 C.cat 161  ARG161      0.5346
     21  NH1        8.1440  -16.5120   54.8470 N.pl3 161  ARG161      0.1354
     22  NH2        9.3010  -15.8250   56.7110 N.pl3 161  ARG161      0.1354
     23  N          8.5770    5.3490   48.9050 N.3   198  TYR198     -0.1241
     24  CA         9.1700    4.2450   49.6540 C.3   198  TYR198      0.1605
     25  C          8.1530    3.1410   49.8970 C.2   198  TYR198      0.2264
     26  O          8.4280    1.9660   49.6760 O.2   198  TYR198     -0.2867
     27  CB         9.7010    4.7490   50.9930 C.3   198  TYR198      0.0534
     28  CG        10.3940    3.6760   51.8190 C.ar  198  TYR198     -0.0201
     29  CD1       11.0240    2.5900   51.2190 C.ar  198  TYR198     -0.0009
     30  CD2       10.4110    3.7560   53.1940 C.ar  198  TYR198     -0.0009
     31  CE1       11.6530    1.6180   51.9860 C.ar  198  TYR198      0.0417
     32  CE2       11.0430    2.8120   53.9630 C.ar  198  TYR198      0.0417
     33  CZ        11.6590    1.7370   53.3570 C.ar  198  TYR198      0.1957
     34  OH        12.2810    0.7880   54.1420 O.3   198  TYR198     -0.2866
     35  N          7.2420    1.3450   46.7050 N.3   201  LEU201     -0.1231
     36  CA         8.3360    0.4490   46.3280 C.3   201  LEU201      0.1693
     37  C          8.3570   -0.8420   47.1540 C.2   201  LEU201      0.2591
     38  O          8.6260   -1.9240   46.6240 O.2   201  LEU201     -0.2718
     39  CB         9.6770    1.1660   46.4260 C.3   201  LEU201      0.0284
     40  CG         9.9370    2.1630   45.2850 C.3   201  LEU201      0.0019
     41  CD1       11.1940    2.9750   45.5910 C.3   201  LEU201      0.0001
     42  CD2       10.0600    1.4430   43.9340 C.3   201  LEU201      0.0001
     43  N          8.0760   -0.7390   48.4470 N.am  202  VAL202     -0.1980
     44  CA         8.0720   -1.9490   49.2810 C.3   202  VAL202      0.1595
     45  C          6.8600   -2.8320   48.9950 C.2   202  VAL202      0.2287
     46  O          6.9870   -4.0520   48.8990 O.2   202  VAL202     -0.2864
     47  CB         8.1350   -1.6350   50.7910 C.3   202  VAL202      0.0276
     48  CG1        8.1630   -2.9480   51.5930 C.3   202  VAL202      0.0022
     49  CG2        9.3660   -0.8220   51.0990 C.3   202  VAL202      0.0022
     50  N          7.5430   -3.6800   44.7200 N.3   205  VAL205     -0.1231
     51  CA         8.8250   -4.2620   44.3380 C.3   205  VAL205      0.1692
     52  C          9.3610   -5.1620   45.4600 C.2   205  VAL205      0.2592
     53  O          9.9140   -6.2340   45.1980 O.2   205  VAL205     -0.2718
     54  CB         9.8530   -3.1650   43.9530 C.3   205  VAL205      0.0266
     55  CG1       11.2010   -3.7780   43.6540 C.3   205  VAL205      0.0020
     56  CG2        9.3490   -2.3560   42.7450 C.3   205  VAL205      0.0020
     57  N          9.1880   -4.7500   46.7140 N.am  206  GLY206     -0.1957
     58  CA         9.5890   -5.6150   47.8220 C.3   206  GLY206      0.1869
     59  C          8.7940   -6.9170   47.8750 C.2   206  GLY206      0.2309
     60  O          9.3540   -8.0080   48.0170 O.2   206  GLY206     -0.2863
     61  N          9.9910   -9.1900   45.1280 N.3   209  PHE209     -0.1227
     62  CA        11.2940   -9.7820   45.4090 C.3   209  PHE209      0.1736
     63  C         11.1670  -10.9030   46.4400 C.2   209  PHE209      0.2595
     64  O         11.8460  -11.9250   46.3410 O.2   209  PHE209     -0.2718
     65  CB        12.2730   -8.7210   45.9120 C.3   209  PHE209      0.0547
     66  CG        12.9040   -7.9130   44.8150 C.ar  209  PHE209     -0.0202
     67  CD1       13.1040   -8.4600   43.5630 C.ar  209  PHE209     -0.0042
     68  CD2       13.2970   -6.6050   45.0380 C.ar  209  PHE209     -0.0042
     69  CE1       13.6850   -7.7140   42.5460 C.ar  209  PHE209     -0.0003
     70  CE2       13.8790   -5.8540   44.0220 C.ar  209  PHE209     -0.0003
     71  CZ        14.0670   -6.4070   42.7820 C.ar  209  PHE209     -0.0000
     72  N         10.2930  -10.7100   47.4190 N.am  210  ILE210     -0.1980
     73  CA         9.9920  -11.7830   48.3670 C.3   210  ILE210      0.1595
     74  C          9.4340  -12.9980   47.6100 C.2   210  ILE210      0.2287
     75  O          9.8400  -14.1480   47.8430 O.2   210  ILE210     -0.2864
     76  CB         9.0200  -11.3020   49.4740 C.3   210  ILE210      0.0276
     77  CG1        9.7200  -10.2800   50.3730 C.3   210  ILE210      0.0022
     78  CG2        8.5330  -12.4810   50.3220 C.3   210  ILE210      0.0022
     79  CD1        8.7760   -9.4470   51.2470 C.3   210  ILE210      0.0001
     80  N         12.2300  -14.6720   45.4880 N.3   213  ASP213     -0.1239
     81  CA        13.1120  -15.4420   46.3600 C.3   213  ASP213      0.1674
     82  C         12.4900  -16.7830   46.7870 C.2   213  ASP213      0.2266
     83  O         13.1850  -17.8000   46.8860 O.2   213  ASP213     -0.2867
     84  CB        13.5170  -14.6050   47.5750 C.3   213  ASP213      0.1410
     85  CG        14.3440  -15.3950   48.5770 C.2   213  ASP213      0.3668
     86  OD1       15.5220  -15.6910   48.2780 O.co2 213  ASP213     -0.2456
     87  OD2       13.8170  -15.7110   49.6660 O.co2 213  ASP213     -0.2456
@<TRIPOS>BOND
     1     5     6    1
     2     6     7    1
     3     6     9    1
     4     8     7    2
     5    11     9    1
     6     9    10    1
     7     1     2    1
     8     3     4    2
     9     3     2    1
    10    69    71   ar
    11    69    67   ar
    12    56    54    1
    13    71    70   ar
    14    67    66   ar
    15    55    54    1
    16    42    40    1
    17    54    51    1
    18    70    68   ar
    19    51    50    1
    20    51    52    1
    21    66    68   ar
    22    66    65    1
    23    61    62    1
    24    53    52    2
    25    40    41    1
    26    40    39    1
    27    62    65    1
    28    62    63    1
    29    52    57   am
    30    80    81    1
    31    36    39    1
    32    36    35    1
    33    36    37    1
    34    64    63    2
    35    81    82    1
    36    81    84    1
    37    63    72   am
    38    38    37    2
    39    57    58    1
    40    82    83    2
    41    37    43   am
    42    72    73    1
    43    84    85    1
    44    74    75    2
    45    74    73    1
    46    58    59    1
    47    59    60    2
    48    86    85   ar
    49    73    76    1
    50    43    44    1
    51    85    87   ar
    52    46    45    2
    53    23    24    1
    54    45    44    1
    55    44    47    1
    56    76    78    1
    57    76    77    1
    58    24    25    1
    59    24    27    1
    60    26    25    2
    61    77    79    1
    62    47    49    1
    63    47    48    1
    64    27    28    1
    65    29    28   ar
    66    29    31   ar
    67    28    30   ar
    68    31    33   ar
    69    30    32   ar
    70    33    32   ar
    71    33    34    1
    72    14    15    2
    73    14    13    1
    74    18    17    1
    75    18    19    1
    76    17    16    1
    77    16    13    1
    78    13    12    1
    79    21    20    1
    80    19    20    2
    81    20    22    1
