@<TRIPOS>MOLECULE
tmp/5jjiB02.pdb
 88 81 0 0 0
SMALL
GASTEIGER

@<TRIPOS>ATOM
      1  N         22.8640   -3.7940   -8.8770 N.3   129  LEU129     -0.1245
      2  CA        21.4940   -3.3310   -9.0320 C.3   129  LEU129      0.1561
      3  C         20.5730   -4.2230   -8.2160 C.2   129  LEU129      0.2260
      4  O         20.9530   -5.3170   -7.7890 O.2   129  LEU129     -0.2867
      5  CB        21.0430   -3.3410  -10.4990 C.3   129  LEU129      0.0270
      6  CG        21.6050   -2.3230  -11.4880 C.3   129  LEU129      0.0019
      7  CD1       21.0730   -2.6170  -12.8780 C.3   129  LEU129      0.0001
      8  CD2       21.2420   -0.9100  -11.0670 C.3   129  LEU129      0.0001
      9  N         15.8480   -7.2650  -11.1980 N.3   132  ASN132     -0.1225
     10  CA        14.8000   -6.7860  -12.0910 C.3   132  ASN132      0.1785
     11  C         14.3590   -7.8400  -13.1010 C.2   132  ASN132      0.2597
     12  O         13.6580   -7.5010  -14.0620 O.2   132  ASN132     -0.2718
     13  CB        15.2510   -5.5120  -12.8230 C.3   132  ASN132      0.1169
     14  CG        16.5710   -5.6860  -13.5580 C.2   132  ASN132      0.2627
     15  OD1       16.9890   -6.8020  -13.8650 O.2   132  ASN132     -0.2716
     16  ND2       17.2330   -4.5710  -13.8470 N.am  132  ASN132     -0.0877
     17  N         14.7470   -9.1000  -12.9140 N.am  133  SER133     -0.1952
     18  CA        14.3460  -10.1890  -13.7980 C.3   133  SER133      0.1924
     19  C         13.7830  -11.3160  -12.9470 C.2   133  SER133      0.2314
     20  O         14.5070  -11.9070  -12.1400 O.2   133  SER133     -0.2863
     21  CB        15.5240  -10.6880  -14.6400 C.3   133  SER133      0.2116
     22  OG        15.1130  -11.7090  -15.5310 O.3   133  SER133     -0.2180
     23  N         16.7020  -12.6740  -10.3610 N.3   159  ARG159     -0.1245
     24  CA        18.1120  -12.9280  -10.6190 C.3   159  ARG159      0.1563
     25  C         18.9710  -11.9580   -9.8180 C.2   159  ARG159      0.2260
     26  O         18.7560  -10.7420   -9.8570 O.2   159  ARG159     -0.2867
     27  CB        18.4080  -12.8000  -12.1110 C.3   159  ARG159      0.0307
     28  CG        17.5990  -13.7480  -12.9760 C.3   159  ARG159      0.0489
     29  CD        17.8360  -13.4890  -14.4510 C.3   159  ARG159      0.2205
     30  NE        16.8320  -14.1430  -15.2840 N.pl3 159  ARG159     -0.0865
     31  CZ        16.9980  -15.3240  -15.8690 C.cat 159  ARG159      0.5346
     32  NH1       18.1360  -15.9870  -15.7180 N.pl3 159  ARG159      0.1354
     33  NH2       16.0260  -15.8410  -16.6080 N.pl3 159  ARG159      0.1354
     34  N         29.0800  -12.9420  -17.7860 N.3   242  LYS242     -0.1245
     35  CA        27.6940  -12.5670  -18.0800 C.3   242  LYS242      0.1561
     36  C         26.7470  -13.7600  -17.9780 C.2   242  LYS242      0.2260
     37  O         25.8600  -13.9440  -18.8140 O.2   242  LYS242     -0.2867
     38  CB        27.5830  -11.9080  -19.4580 C.3   242  LYS242      0.0271
     39  CG        28.3170  -10.5840  -19.5910 C.3   242  LYS242      0.0035
     40  CD        28.3150  -10.1090  -21.0380 C.3   242  LYS242      0.0206
     41  CE        28.7590   -8.6590  -21.1510 C.3   242  LYS242      0.1093
     42  NZ        30.0910   -8.4340  -20.5250 N.3   242  LYS242     -0.1314
     43  N         24.1380  -16.3130  -15.4650 N.3   244  ASP244     -0.1239
     44  CA        23.2110  -16.3070  -14.3350 C.3   244  ASP244      0.1674
     45  C         23.5290  -17.4960  -13.4390 C.2   244  ASP244      0.2266
     46  O         23.1500  -18.6310  -13.7360 O.2   244  ASP244     -0.2867
     47  CB        21.7700  -16.3550  -14.8260 C.3   244  ASP244      0.1410
     48  CG        21.2520  -14.9970  -15.2270 C.2   244  ASP244      0.3668
     49  OD1       21.4190  -14.0510  -14.4310 O.co2 244  ASP244     -0.2456
     50  OD2       20.6900  -14.8750  -16.3350 O.co2 244  ASP244     -0.2456
     51  N         22.6290   -8.4030   -8.4930 N.3   291  ASN291     -0.1225
     52  CA        22.2720   -8.2060   -9.8880 C.3   291  ASN291      0.1785
     53  C         23.2790   -7.2560  -10.5210 C.2   291  ASN291      0.2597
     54  O         23.6530   -6.2450   -9.9220 O.2   291  ASN291     -0.2718
     55  CB        20.8560   -7.6450  -10.0110 C.3   291  ASN291      0.1169
     56  CG        20.3720   -7.6140  -11.4380 C.2   291  ASN291      0.2627
     57  OD1       20.8480   -8.3720  -12.2810 O.2   291  ASN291     -0.2716
     58  ND2       19.4160   -6.7380  -11.7210 N.am  291  ASN291     -0.0877
     59  N         23.7280   -7.5910  -11.7280 N.am  292  VAL292     -0.1966
     60  CA        24.8040   -6.8650  -12.3940 C.3   292  VAL292      0.1727
     61  C         24.2510   -6.2320  -13.6630 C.2   292  VAL292      0.2616
     62  O         23.6770   -6.9270  -14.5110 O.2   292  VAL292     -0.2715
     63  CB        25.9960   -7.7800  -12.7090 C.3   292  VAL292      0.0290
     64  CG1       26.9840   -7.0690  -13.6130 C.3   292  VAL292      0.0023
     65  CG2       26.6700   -8.2210  -11.4200 C.3   292  VAL292      0.0023
     66  N         24.4330   -4.9160  -13.7940 N.am  293  GLU293     -0.1977
     67  CA        23.9460   -4.2090  -14.9730 C.3   293  GLU293      0.1602
     68  C         24.6750   -4.6520  -16.2350 C.2   293  GLU293      0.2287
     69  O         24.0850   -4.6590  -17.3220 O.2   293  GLU293     -0.2864
     70  CB        24.1010   -2.7010  -14.7680 C.3   293  GLU293      0.0415
     71  CG        23.3210   -1.8350  -15.7360 C.3   293  GLU293      0.1163
     72  CD        23.4270   -0.3590  -15.3970 C.2   293  GLU293      0.3649
     73  OE1       24.5610    0.1190  -15.1800 O.co2 293  GLU293     -0.2457
     74  OE2       22.3800    0.3220  -15.3410 O.co2 293  GLU293     -0.2457
     75  N         25.6880   -7.6160  -17.1210 N.3   295  GLY295     -0.1210
     76  CA        25.1680   -8.8770  -17.6170 C.3   295  GLY295      0.1956
     77  C         25.4220   -9.9900  -16.6190 C.2   295  GLY295      0.2612
     78  O         26.4120  -10.0150  -15.8940 O.2   295  GLY295     -0.2717
     79  N         24.4940  -10.9420  -16.5800 N.am  296  GLY296     -0.1942
     80  CA        24.5800  -12.0380  -15.6360 C.3   296  GLY296      0.2014
     81  C         24.2800  -11.6010  -14.2180 C.2   296  GLY296      0.2639
     82  O         24.1350  -10.4050  -13.9490 O.2   296  GLY296     -0.2714
     83  N         24.1870  -12.5580  -13.3000 N.am  297  SER297     -0.1949
     84  CA        23.8950  -12.2420  -11.9090 C.3   297  SER297      0.1924
     85  C         24.3230  -13.4140  -11.0410 C.2   297  SER297      0.2314
     86  O         24.6530  -14.4950  -11.5340 O.2   297  SER297     -0.2863
     87  CB        22.4090  -11.9290  -11.7060 C.3   297  SER297      0.2116
     88  OG        21.6140  -13.0800  -11.9310 O.3   297  SER297     -0.2180
@<TRIPOS>BOND
     1    41    40    1
     2    41    42    1
     3    40    39    1
     4    39    38    1
     5    38    35    1
     6    37    36    2
     7    35    36    1
     8    35    34    1
     9    76    75    1
    10    76    77    1
    11    69    68    2
    12    77    79   am
    13    77    78    2
    14    33    31    1
    15    79    80    1
    16    50    48   ar
    17    68    67    1
    18    31    32    1
    19    31    30    2
    20    71    72    1
    21    71    70    1
    22    80    81    1
    23    22    21    1
    24    43    44    1
    25    72    74   ar
    26    72    73   ar
    27    30    29    1
    28    48    47    1
    29    48    49   ar
    30    67    70    1
    31    67    66    1
    32    47    44    1
    33    21    18    1
    34    62    61    2
    35    29    28    1
    36    44    45    1
    37    81    82    2
    38    81    83   am
    39    12    11    2
    40    15    14    2
    41    16    14   am
    42    18    19    1
    43    18    17    1
    44    66    61   am
    45    46    45    2
    46    61    60    1
    47    64    63    1
    48    14    13    1
    49    83    84    1
    50    11    17   am
    51    11    10    1
    52    28    27    1
    53    19    20    2
    54     7     6    1
    55    13    10    1
    56    63    60    1
    57    63    65    1
    58    60    59    1
    59    57    56    2
    60    27    24    1
    61    10     9    1
    62    88    87    1
    63    84    87    1
    64    84    85    1
    65    59    53   am
    66    58    56   am
    67    86    85    2
    68     6     8    1
    69     6     5    1
    70    56    55    1
    71    24    23    1
    72    24    25    1
    73    53    54    2
    74    53    52    1
    75     5     2    1
    76    55    52    1
    77    52    51    1
    78    26    25    2
    79     2     1    1
    80     2     3    1
    81     3     4    2
