@<TRIPOS>MOLECULE
tmp/5jjjA02.pdb
 83 80 0 0 0
SMALL
GASTEIGER

@<TRIPOS>ATOM
      1  N        -42.1780   41.7940  -19.1800 N.3   119  ILE119     -0.1231
      2  CA       -41.1980   42.4440  -18.3300 C.3   119  ILE119      0.1692
      3  C        -41.7720   42.7210  -16.9440 C.2   119  ILE119      0.2591
      4  O        -41.0310   42.9800  -15.9920 O.2   119  ILE119     -0.2718
      5  CB       -40.7100   43.7650  -18.9870 C.3   119  ILE119      0.0266
      6  CG1      -39.2400   44.0320  -18.6530 C.3   119  ILE119      0.0019
      7  CG2      -41.6390   44.9370  -18.6510 C.3   119  ILE119      0.0020
      8  CD1      -38.2850   43.2180  -19.5110 C.3   119  ILE119      0.0001
      9  N        -43.0940   42.6470  -16.8250 N.am  120  GLU120     -0.1979
     10  CA       -43.7510   42.9080  -15.5470 C.3   120  GLU120      0.1602
     11  C        -43.5210   41.7900  -14.5220 C.2   120  GLU120      0.2287
     12  O        -43.8650   41.9310  -13.3460 O.2   120  GLU120     -0.2864
     13  CB       -45.2460   43.1650  -15.7420 C.3   120  GLU120      0.0415
     14  CG       -46.0040   42.0170  -16.3870 C.3   120  GLU120      0.1163
     15  CD       -46.0050   42.0800  -17.9040 C.2   120  GLU120      0.3649
     16  OE1      -45.0030   42.5430  -18.4960 O.co2 120  GLU120     -0.2457
     17  OE2      -47.0150   41.6560  -18.5050 O.co2 120  GLU120     -0.2457
     18  N        -40.7850   41.1960  -13.3680 N.3   122  TYR122     -0.1227
     19  CA       -39.8460   41.8160  -12.4280 C.3   122  TYR122      0.1736
     20  C        -40.5450   42.6370  -11.3530 C.2   122  TYR122      0.2595
     21  O        -39.9910   42.8520  -10.2880 O.2   122  TYR122     -0.2718
     22  CB       -38.8200   42.6920  -13.1520 C.3   122  TYR122      0.0548
     23  CG       -37.8000   41.9030  -13.9250 C.ar  122  TYR122     -0.0200
     24  CD1      -36.8070   41.1800  -13.2680 C.ar  122  TYR122     -0.0009
     25  CD2      -37.8280   41.8740  -15.3170 C.ar  122  TYR122     -0.0009
     26  CE1      -35.8620   40.4490  -13.9850 C.ar  122  TYR122      0.0417
     27  CE2      -36.8990   41.1480  -16.0400 C.ar  122  TYR122      0.0417
     28  CZ       -35.9150   40.4370  -15.3730 C.ar  122  TYR122      0.1957
     29  OH       -34.9910   39.7130  -16.1040 O.3   122  TYR122     -0.2866
     30  N        -41.7470   43.1220  -11.6410 N.am  123  ALA123     -0.1980
     31  CA       -42.5220   43.8140  -10.6250 C.3   123  ALA123      0.1597
     32  C        -42.9690   42.7780   -9.5970 C.2   123  ALA123      0.2287
     33  O        -42.8500   42.9840   -8.3830 O.2   123  ALA123     -0.2864
     34  CB       -43.7100   44.5030  -11.2470 C.3   123  ALA123      0.0319
     35  N        -41.5100   40.0180   -9.0190 N.3   125  PHE125     -0.1227
     36  CA       -40.3010   39.6750   -8.2810 C.3   125  PHE125      0.1736
     37  C        -40.0360   40.7220   -7.2090 C.2   125  PHE125      0.2596
     38  O        -39.7070   40.3860   -6.0650 O.2   125  PHE125     -0.2718
     39  CB       -39.0800   39.5510   -9.2020 C.3   125  PHE125      0.0547
     40  CG       -37.8000   39.3050   -8.4550 C.ar  125  PHE125     -0.0202
     41  CD1      -37.4430   38.0190   -8.0750 C.ar  125  PHE125     -0.0042
     42  CD2      -36.9760   40.3590   -8.0950 C.ar  125  PHE125     -0.0042
     43  CE1      -36.2730   37.7800   -7.3610 C.ar  125  PHE125     -0.0003
     44  CE2      -35.7960   40.1300   -7.3700 C.ar  125  PHE125     -0.0003
     45  CZ       -35.4430   38.8400   -7.0060 C.ar  125  PHE125     -0.0000
     46  N        -40.1840   41.9880   -7.5950 N.am  126  GLY126     -0.1957
     47  CA       -40.0650   43.1010   -6.6710 C.3   126  GLY126      0.1869
     48  C        -40.8350   42.8690   -5.3840 C.2   126  GLY126      0.2309
     49  O        -40.2800   42.9840   -4.2920 O.2   126  GLY126     -0.2863
     50  N        -31.5370   35.2830   -6.3110 N.3   174  PHE174     -0.1241
     51  CA       -30.4710   35.4910   -7.2950 C.3   174  PHE174      0.1605
     52  C        -30.4850   34.4500   -8.4080 C.2   174  PHE174      0.2264
     53  O        -30.1960   34.7570   -9.5720 O.2   174  PHE174     -0.2867
     54  CB       -29.0960   35.5470   -6.6300 C.3   174  PHE174      0.0534
     55  CG       -28.8840   36.7900   -5.8160 C.ar  174  PHE174     -0.0203
     56  CD1      -28.4280   37.9520   -6.4150 C.ar  174  PHE174     -0.0042
     57  CD2      -29.1760   36.8060   -4.4580 C.ar  174  PHE174     -0.0042
     58  CE1      -28.2390   39.0980   -5.6720 C.ar  174  PHE174     -0.0003
     59  CE2      -28.9960   37.9520   -3.7070 C.ar  174  PHE174     -0.0003
     60  CZ       -28.5250   39.1000   -4.3110 C.ar  174  PHE174     -0.0000
     61  N        -33.2410   35.5410  -10.7010 N.3   177  LEU177     -0.1231
     62  CA       -32.8390   36.6300  -11.5890 C.3   177  LEU177      0.1693
     63  C        -31.8360   36.1990  -12.6690 C.2   177  LEU177      0.2591
     64  O        -31.9810   36.5580  -13.8410 O.2   177  LEU177     -0.2718
     65  CB       -32.2630   37.7950  -10.7820 C.3   177  LEU177      0.0284
     66  CG       -33.2510   38.6300   -9.9730 C.3   177  LEU177      0.0019
     67  CD1      -32.5140   39.5570   -9.0140 C.3   177  LEU177      0.0001
     68  CD2      -34.1480   39.4280  -10.9070 C.3   177  LEU177      0.0001
     69  N        -30.8240   35.4310  -12.2830 N.am  178  LEU178     -0.1980
     70  CA       -29.7900   35.0340  -13.2390 C.3   178  LEU178      0.1596
     71  C        -30.2110   33.8470  -14.0960 C.2   178  LEU178      0.2287
     72  O        -29.6600   33.6300  -15.1800 O.2   178  LEU178     -0.2864
     73  CB       -28.4780   34.7300  -12.5230 C.3   178  LEU178      0.0297
     74  CG       -27.9230   35.9450  -11.7820 C.3   178  LEU178      0.0022
     75  CD1      -26.7320   35.5570  -10.9180 C.3   178  LEU178      0.0001
     76  CD2      -27.5400   37.0220  -12.7890 C.3   178  LEU178      0.0001
     77  N        -32.7250   36.7860  -16.3690 N.3   183  VAL183     -0.1245
     78  CA       -31.9480   37.1460  -17.5570 C.3   183  VAL183      0.1561
     79  C        -31.4350   35.9370  -18.3410 C.2   183  VAL183      0.2260
     80  O        -30.8260   36.0980  -19.3970 O.2   183  VAL183     -0.2867
     81  CB       -30.7820   38.1490  -17.2450 C.3   183  VAL183      0.0252
     82  CG1      -31.3330   39.5330  -16.9340 C.3   183  VAL183      0.0019
     83  CG2      -29.8810   37.6480  -16.1020 C.3   183  VAL183      0.0019
@<TRIPOS>BOND
     1     8     6    1
     2    80    79    2
     3     1     2    1
     4     5     6    1
     5     5     7    1
     6     5     2    1
     7    17    15   ar
     8    16    15   ar
     9    79    78    1
    10     2     3    1
    11    15    14    1
    12    78    81    1
    13    78    77    1
    14    81    82    1
    15    81    83    1
    16     3     9   am
    17     3     4    2
    18     9    10    1
    19    14    13    1
    20    29    28    1
    21    27    28   ar
    22    27    25   ar
    23    13    10    1
    24    10    11    1
    25    28    26   ar
    26    25    23   ar
    27    72    71    2
    28    11    12    2
    29    71    70    1
    30    26    24   ar
    31    23    24   ar
    32    23    22    1
    33    64    63    2
    34    18    19    1
    35    70    73    1
    36    70    69    1
    37    22    19    1
    38    76    74    1
    39    63    69   am
    40    63    62    1
    41    73    74    1
    42    19    20    1
    43    74    75    1
    44    30    20   am
    45    30    31    1
    46    62    65    1
    47    62    61    1
    48    20    21    2
    49    34    31    1
    50    68    66    1
    51    65    66    1
    52    31    32    1
    53    66    67    1
    54    32    33    2
    55    53    52    2
    56    39    40    1
    57    39    36    1
    58    35    36    1
    59    40    42   ar
    60    40    41   ar
    61    52    51    1
    62    36    37    1
    63    42    44   ar
    64    41    43   ar
    65    46    37   am
    66    46    47    1
    67    44    45   ar
    68    43    45   ar
    69    51    54    1
    70    51    50    1
    71    37    38    2
    72    47    48    1
    73    54    55    1
    74    56    55   ar
    75    56    58   ar
    76    55    57   ar
    77    58    60   ar
    78    48    49    2
    79    57    59   ar
    80    60    59   ar
