@<TRIPOS>MOLECULE
tmp/5jjjA04.pdb
 88 84 0 0 0
SMALL
GASTEIGER

@<TRIPOS>ATOM
      1  N        -41.5100   40.0180   -9.0190 N.3   125  PHE125     -0.1241
      2  CA       -40.3010   39.6750   -8.2810 C.3   125  PHE125      0.1605
      3  C        -40.0360   40.7220   -7.2090 C.2   125  PHE125      0.2264
      4  O        -39.7070   40.3860   -6.0650 O.2   125  PHE125     -0.2867
      5  CB       -39.0800   39.5510   -9.2020 C.3   125  PHE125      0.0534
      6  CG       -37.8000   39.3050   -8.4550 C.ar  125  PHE125     -0.0203
      7  CD1      -37.4430   38.0190   -8.0750 C.ar  125  PHE125     -0.0042
      8  CD2      -36.9760   40.3590   -8.0950 C.ar  125  PHE125     -0.0042
      9  CE1      -36.2730   37.7800   -7.3610 C.ar  125  PHE125     -0.0003
     10  CE2      -35.7960   40.1300   -7.3700 C.ar  125  PHE125     -0.0003
     11  CZ       -35.4430   38.8400   -7.0060 C.ar  125  PHE125     -0.0000
     12  N        -39.5470   40.1300   -3.2050 N.3   129  ALA129     -0.1245
     13  CA       -38.3100   40.5130   -2.5620 C.3   129  ALA129      0.1562
     14  C        -38.6170   41.3530   -1.3380 C.2   129  ALA129      0.2260
     15  O        -38.0210   41.1490   -0.2780 O.2   129  ALA129     -0.2867
     16  CB       -37.4000   41.2610   -3.5410 C.3   129  ALA129      0.0290
     17  N        -39.7340   39.2290    1.3720 N.3   132  PHE132     -0.1227
     18  CA       -38.6340   38.4490    1.9050 C.3   132  PHE132      0.1736
     19  C        -37.8760   39.2300    2.9740 C.2   132  PHE132      0.2595
     20  O        -37.5020   38.6760    4.0110 O.2   132  PHE132     -0.2718
     21  CB       -37.6600   38.0390    0.7980 C.3   132  PHE132      0.0547
     22  CG       -36.5060   37.2320    1.3030 C.ar  132  PHE132     -0.0202
     23  CD1      -36.7270   36.0210    1.9570 C.ar  132  PHE132     -0.0042
     24  CD2      -35.2010   37.6900    1.1670 C.ar  132  PHE132     -0.0042
     25  CE1      -35.6560   35.2630    2.4400 C.ar  132  PHE132     -0.0003
     26  CE2      -34.1260   36.9350    1.6470 C.ar  132  PHE132     -0.0003
     27  CZ       -34.3510   35.7190    2.2800 C.ar  132  PHE132     -0.0000
     28  N        -37.6330   40.5100    2.6960 N.am  133  LEU133     -0.1980
     29  CA       -36.9670   41.3880    3.6460 C.3   133  LEU133      0.1596
     30  C        -37.8180   41.4750    4.9050 C.2   133  LEU133      0.2287
     31  O        -37.2960   41.5300    6.0180 O.2   133  LEU133     -0.2864
     32  CB       -36.7330   42.7760    3.0380 C.3   133  LEU133      0.0297
     33  CG       -35.8220   42.8030    1.8030 C.3   133  LEU133      0.0022
     34  CD1      -35.6730   44.2280    1.2600 C.3   133  LEU133      0.0001
     35  CD2      -34.4470   42.1710    2.0880 C.3   133  LEU133      0.0001
     36  N        -37.1520   38.2650    6.7410 N.3   136  VAL136     -0.1245
     37  CA       -35.8260   38.2950    7.3470 C.3   136  VAL136      0.1561
     38  C        -35.8270   39.1440    8.6120 C.2   136  VAL136      0.2260
     39  O        -35.2280   38.7690    9.6330 O.2   136  VAL136     -0.2867
     40  CB       -34.7770   38.8360    6.3710 C.3   136  VAL136      0.0252
     41  CG1      -33.4560   39.1200    7.1010 C.3   136  VAL136      0.0019
     42  CG2      -34.5790   37.8520    5.2470 C.3   136  VAL136      0.0019
     43  N        -31.5710   32.2280    6.6820 N.3   166  VAL166     -0.1231
     44  CA       -31.4710   33.5900    6.1570 C.3   166  VAL166      0.1692
     45  C        -30.4150   33.6890    5.0600 C.2   166  VAL166      0.2591
     46  O        -30.6840   34.2230    3.9840 O.2   166  VAL166     -0.2718
     47  CB       -31.1820   34.6190    7.2940 C.3   166  VAL166      0.0266
     48  CG1      -30.6170   35.9140    6.7360 C.3   166  VAL166      0.0020
     49  CG2      -32.4460   34.8760    8.1080 C.3   166  VAL166      0.0020
     50  N        -29.2240   33.1560    5.3220 N.am  167  ILE167     -0.1980
     51  CA       -28.1610   33.1560    4.3240 C.3   167  ILE167      0.1595
     52  C        -28.5320   32.4120    3.0240 C.2   167  ILE167      0.2287
     53  O        -28.3810   32.9490    1.9150 O.2   167  ILE167     -0.2864
     54  CB       -26.8730   32.5540    4.8740 C.3   167  ILE167      0.0276
     55  CG1      -26.2730   33.4550    5.9450 C.3   167  ILE167      0.0022
     56  CG2      -25.8560   32.3720    3.7570 C.3   167  ILE167      0.0022
     57  CD1      -25.0260   32.8630    6.5640 C.3   167  ILE167      0.0001
     58  N        -31.5600   33.6580    0.9760 N.3   170  ALA170     -0.1245
     59  CA       -31.2420   34.8970    0.2630 C.3   170  ALA170      0.1562
     60  C        -30.6180   34.6070   -1.1040 C.2   170  ALA170      0.2260
     61  O        -30.5310   35.4850   -1.9550 O.2   170  ALA170     -0.2867
     62  CB       -30.3330   35.7920    1.0930 C.3   170  ALA170      0.0290
     63  N        -33.5250   34.1300   -4.6750 N.3   173  PRO173     -0.2102
     64  CA       -33.9090   35.1760   -5.6330 C.3   173  PRO173      0.1504
     65  C        -32.8050   35.5160   -6.6510 C.2   173  PRO173      0.2575
     66  O        -33.1320   35.9560   -7.7570 O.2   173  PRO173     -0.2718
     67  CB       -34.2270   36.3810   -4.7460 C.3   173  PRO173      0.0282
     68  CG       -33.5250   36.1100   -3.4430 C.3   173  PRO173      0.0208
     69  CD       -33.6090   34.6140   -3.2850 C.3   173  PRO173      0.0893
     70  N        -31.5370   35.2830   -6.3110 N.am  174  PHE174     -0.1977
     71  CA       -30.4710   35.4910   -7.2950 C.3   174  PHE174      0.1639
     72  C        -30.4850   34.4500   -8.4080 C.2   174  PHE174      0.2290
     73  O        -30.1960   34.7570   -9.5720 O.2   174  PHE174     -0.2864
     74  CB       -29.0960   35.5470   -6.6300 C.3   174  PHE174      0.0560
     75  CG       -28.8840   36.7900   -5.8160 C.ar  174  PHE174     -0.0200
     76  CD1      -28.4280   37.9520   -6.4150 C.ar  174  PHE174     -0.0042
     77  CD2      -29.1760   36.8060   -4.4580 C.ar  174  PHE174     -0.0042
     78  CE1      -28.2390   39.0980   -5.6720 C.ar  174  PHE174     -0.0003
     79  CE2      -28.9960   37.9520   -3.7070 C.ar  174  PHE174     -0.0003
     80  CZ       -28.5250   39.1000   -4.3110 C.ar  174  PHE174     -0.0000
     81  N        -33.2410   35.5410  -10.7010 N.3   177  LEU177     -0.1245
     82  CA       -32.8390   36.6300  -11.5890 C.3   177  LEU177      0.1561
     83  C        -31.8360   36.1990  -12.6690 C.2   177  LEU177      0.2260
     84  O        -31.9810   36.5580  -13.8410 O.2   177  LEU177     -0.2867
     85  CB       -32.2630   37.7950  -10.7820 C.3   177  LEU177      0.0270
     86  CG       -33.2510   38.6300   -9.9730 C.3   177  LEU177      0.0019
     87  CD1      -32.5140   39.5570   -9.0140 C.3   177  LEU177      0.0001
     88  CD2      -34.1480   39.4280  -10.9070 C.3   177  LEU177      0.0001
@<TRIPOS>BOND
     1    84    83    2
     2    83    82    1
     3    82    85    1
     4    82    81    1
     5    88    86    1
     6    85    86    1
     7    86    87    1
     8    73    72    2
     9     5     6    1
    10     5     2    1
    11     1     2    1
    12     6     8   ar
    13     6     7   ar
    14    72    71    1
    15     2     3    1
    16     8    10   ar
    17     7     9   ar
    18    66    65    2
    19    10    11   ar
    20     9    11   ar
    21    71    74    1
    22    71    70    1
    23     3     4    2
    24    65    70   am
    25    65    64    1
    26    74    75    1
    27    76    75   ar
    28    76    78   ar
    29    75    77   ar
    30    78    80   ar
    31    64    67    1
    32    64    63    1
    33    67    68    1
    34    63    69    1
    35    77    79   ar
    36    80    79   ar
    37    16    13    1
    38    68    69    1
    39    12    13    1
    40    13    14    1
    41    61    60    2
    42    14    15    2
    43    60    59    1
    44    59    58    1
    45    59    62    1
    46    21    22    1
    47    21    18    1
    48    24    22   ar
    49    24    26   ar
    50    34    33    1
    51    22    23   ar
    52    17    18    1
    53    26    27   ar
    54    33    35    1
    55    33    32    1
    56    18    19    1
    57    53    52    2
    58    23    25   ar
    59    27    25   ar
    60    28    19   am
    61    28    29    1
    62    19    20    2
    63    52    51    1
    64    32    29    1
    65    29    30    1
    66    56    54    1
    67    46    45    2
    68    51    54    1
    69    51    50    1
    70    54    55    1
    71    30    31    2
    72    45    50   am
    73    45    44    1
    74    42    40    1
    75    55    57    1
    76    44    43    1
    77    44    47    1
    78    40    41    1
    79    40    37    1
    80    48    47    1
    81    36    37    1
    82    47    49    1
    83    37    38    1
    84    38    39    2
