@<TRIPOS>MOLECULE
tmp/5jjjA03.pdb
 99 95 0 0 0
SMALL
GASTEIGER

@<TRIPOS>ATOM
      1  N        -42.6390   15.9320    1.4810 N.3    44  ILE44      -0.1245
      2  CA       -43.3270   16.6550    0.4160 C.3    44  ILE44       0.1561
      3  C        -42.3740   16.9230   -0.7600 C.2    44  ILE44       0.2260
      4  O        -42.7290   16.7360   -1.9350 O.2    44  ILE44      -0.2867
      5  CB       -43.9660   17.9520    0.9330 C.3    44  ILE44       0.0252
      6  CG1      -45.2260   17.6210    1.7510 C.3    44  ILE44       0.0019
      7  CG2      -44.3390   18.8520   -0.2200 C.3    44  ILE44       0.0019
      8  CD1      -45.6930   18.7610    2.6890 C.3    44  ILE44       0.0001
      9  N        -41.5970   13.8360   -2.9810 N.3    47  VAL47      -0.1231
     10  CA       -42.6710   13.5960   -3.9340 C.3    47  VAL47       0.1692
     11  C        -42.5890   14.5840   -5.0980 C.2    47  VAL47       0.2591
     12  O        -42.8140   14.2150   -6.2540 O.2    47  VAL47      -0.2718
     13  CB       -44.0450   13.6910   -3.2600 C.3    47  VAL47       0.0266
     14  CG1      -45.1770   13.5000   -4.2760 C.3    47  VAL47       0.0020
     15  CG2      -44.1530   12.6690   -2.1400 C.3    47  VAL47       0.0020
     16  N        -42.2540   15.8360   -4.7950 N.am   48  ALA48      -0.1980
     17  CA       -42.1550   16.8510   -5.8400 C.3    48  ALA48       0.1597
     18  C        -41.0500   16.4950   -6.8240 C.2    48  ALA48       0.2287
     19  O        -41.2840   16.4600   -8.0350 O.2    48  ALA48      -0.2864
     20  CB       -41.9200   18.2100   -5.2500 C.3    48  ALA48       0.0319
     21  N        -42.0030   13.6890   -9.0920 N.3    51  VAL51      -0.1245
     22  CA       -42.8790   14.1810  -10.1390 C.3    51  VAL51       0.1561
     23  C        -42.0900   14.8560  -11.2670 C.2    51  VAL51       0.2260
     24  O        -42.3040   14.5450  -12.4410 O.2    51  VAL51      -0.2867
     25  CB       -43.9630   15.1140   -9.5740 C.3    51  VAL51       0.0252
     26  CG1      -44.4730   16.0580  -10.6430 C.3    51  VAL51       0.0019
     27  CG2      -45.1050   14.2940   -8.9920 C.3    51  VAL51       0.0019
     28  N        -40.9740   13.7890  -15.4340 N.3    55  GLY55      -0.1210
     29  CA       -41.2340   14.6700  -16.5600 C.3    55  GLY55       0.1956
     30  C        -42.5320   15.4470  -16.5010 C.2    55  GLY55       0.2612
     31  O        -42.9480   16.0650  -17.4850 O.2    55  GLY55      -0.2717
     32  N        -43.1660   15.4440  -15.3370 N.am   56  VAL56      -0.1965
     33  CA       -44.4800   16.0490  -15.1780 C.3    56  VAL56       0.1727
     34  C        -44.3990   17.4580  -14.5820 C.2    56  VAL56       0.2617
     35  O        -43.6080   17.7280  -13.6750 O.2    56  VAL56      -0.2715
     36  CB       -45.3770   15.1230  -14.3320 C.3    56  VAL56       0.0290
     37  CG1      -46.7380   15.7500  -14.0380 C.3    56  VAL56       0.0023
     38  CG2      -45.5430   13.8010  -15.0520 C.3    56  VAL56       0.0023
     39  N        -45.2060   18.3660  -15.1150 N.am   57  GLY57      -0.1940
     40  CA       -45.2490   19.7150  -14.5890 C.3    57  GLY57       0.2014
     41  C        -44.2180   20.6570  -15.1820 C.2    57  GLY57       0.2639
     42  O        -43.9240   21.6960  -14.5960 O.2    57  GLY57      -0.2714
     43  N        -43.6710   20.2950  -16.3390 N.am   58  TRP58      -0.1959
     44  CA       -42.7310   21.1560  -17.0490 C.3    58  TRP58       0.1771
     45  C        -43.5070   22.1390  -17.9270 C.2    58  TRP58       0.2619
     46  O        -43.8950   21.8160  -19.0530 O.2    58  TRP58      -0.2715
     47  CB       -41.7690   20.3350  -17.9240 C.3    58  TRP58       0.0590
     48  CG       -40.9040   19.3680  -17.1780 C.ar   58  TRP58       0.0006
     49  CD1      -41.1500   18.8130  -15.9520 C.ar   58  TRP58       0.0946
     50  CD2      -39.6410   18.8420  -17.6090 C.ar   58  TRP58       0.0152
     51  NE1      -40.1230   17.9690  -15.5970 N.ar   58  TRP58      -0.2442
     52  CE2      -39.1810   17.9730  -16.5940 C.ar   58  TRP58       0.0810
     53  CE3      -38.8560   19.0170  -18.7550 C.ar   58  TRP58       0.0012
     54  CZ2      -37.9650   17.2820  -16.6890 C.ar   58  TRP58       0.0191
     55  CZ3      -37.6460   18.3280  -18.8490 C.ar   58  TRP58       0.0001
     56  CH2      -37.2130   17.4740  -17.8180 C.ar   58  TRP58       0.0015
     57  N        -43.7230   23.3400  -17.4150 N.am   59  VAL59      -0.1977
     58  CA       -44.5420   24.3230  -18.1150 C.3    59  VAL59       0.1596
     59  C        -43.7700   25.1980  -19.1130 C.2    59  VAL59       0.2287
     60  O        -42.7790   25.8380  -18.7620 O.2    59  VAL59      -0.2864
     61  CB       -45.2680   25.2260  -17.1130 C.3    59  VAL59       0.0276
     62  CG1      -46.1770   26.2110  -17.8440 C.3    59  VAL59       0.0022
     63  CG2      -46.0600   24.3670  -16.1320 C.3    59  VAL59       0.0022
     64  N        -43.4800   23.7220  -12.3500 N.3    68  ALA68      -0.1231
     65  CA       -44.5570   23.9250  -11.3820 C.3    68  ALA68       0.1679
     66  C        -44.4000   23.1560  -10.0620 C.2    68  ALA68       0.2434
     67  O        -44.7010   23.7110   -9.0090 O.2    68  ALA68      -0.2733
     68  CB       -45.9330   23.6370  -12.0090 C.3    68  ALA68       0.0304
     69  N        -43.9520   21.8810  -10.1100 N.am   69  PRO69      -0.2729
     70  CA       -43.8440   21.1670   -8.8280 C.3    69  PRO69       0.1401
     71  C        -42.8980   21.8530   -7.8540 C.2    69  PRO69       0.2269
     72  O        -43.2420   21.9650   -6.6800 O.2    69  PRO69      -0.2865
     73  CB       -43.2910   19.8020   -9.2350 C.3    69  PRO69       0.0296
     74  CG       -43.7990   19.6210  -10.6500 C.3    69  PRO69       0.0237
     75  CD       -43.6890   20.9830  -11.2560 C.3    69  PRO69       0.0939
     76  N        -44.8220   24.4960   -6.0620 N.3    72  ILE72      -0.1231
     77  CA       -45.8700   23.9460   -5.2180 C.3    72  ILE72       0.1692
     78  C        -45.2520   23.3750   -3.9280 C.2    72  ILE72       0.2592
     79  O        -45.7740   23.5640   -2.8210 O.2    72  ILE72      -0.2718
     80  CB       -46.6750   22.8920   -5.9910 C.3    72  ILE72       0.0266
     81  CG1      -47.3050   23.5540   -7.2190 C.3    72  ILE72       0.0019
     82  CG2      -47.7400   22.2530   -5.0960 C.3    72  ILE72       0.0020
     83  CD1      -48.1050   22.6110   -8.1180 C.3    72  ILE72       0.0001
     84  N        -44.1320   22.6820   -4.0980 N.am   73  ASP73      -0.1974
     85  CA       -43.2260   22.3460   -3.0080 C.3    73  ASP73       0.1709
     86  C        -43.0420   23.5700   -2.0760 C.2    73  ASP73       0.2293
     87  O        -43.4810   23.5310   -0.9220 O.2    73  ASP73      -0.2864
     88  CB       -41.8960   21.8280   -3.6100 C.3    73  ASP73       0.1436
     89  CG       -40.7840   21.5920   -2.5730 C.2    73  ASP73       0.3671
     90  OD1      -40.7280   22.2780   -1.5300 O.co2  73  ASP73      -0.2456
     91  OD2      -39.9200   20.7170   -2.8340 O.co2  73  ASP73      -0.2456
     92  N        -45.6450   24.8810    0.2140 N.3    76  LEU76      -0.1245
     93  CA       -46.0420   23.9650    1.2810 C.3    76  LEU76       0.1561
     94  C        -44.9660   23.7550    2.3290 C.2    76  LEU76       0.2260
     95  O        -45.2570   23.6260    3.5090 O.2    76  LEU76      -0.2867
     96  CB       -46.4080   22.6080    0.6840 C.3    76  LEU76       0.0270
     97  CG       -47.7900   22.5160    0.0490 C.3    76  LEU76       0.0019
     98  CD1      -47.8960   21.2510   -0.7510 C.3    76  LEU76       0.0001
     99  CD2      -48.8470   22.5450    1.1460 C.3    76  LEU76       0.0001
@<TRIPOS>BOND
     1    59    60    2
     2    59    58    1
     3    46    45    2
     4    55    53   ar
     5    55    56   ar
     6    53    50   ar
     7    58    57    1
     8    58    61    1
     9    45    57   am
    10    45    44    1
    11    47    48    1
    12    47    44    1
    13    62    61    1
    14    56    54   ar
    15    50    48   ar
    16    50    52   ar
    17    31    30    2
    18    48    49   ar
    19    61    63    1
    20    44    43    1
    21    54    52   ar
    22    52    51   ar
    23    29    30    1
    24    29    28    1
    25    30    32   am
    26    43    41   am
    27    49    51   ar
    28    32    33    1
    29    41    42    2
    30    41    40    1
    31    33    34    1
    32    33    36    1
    33    39    40    1
    34    39    34   am
    35    38    36    1
    36    34    35    2
    37    36    37    1
    38    24    23    2
    39    64    65    1
    40    68    65    1
    41    65    66    1
    42    23    22    1
    43    75    74    1
    44    75    69    1
    45    74    73    1
    46    26    25    1
    47    22    25    1
    48    22    21    1
    49    69    66   am
    50    69    70    1
    51    66    67    2
    52    25    27    1
    53    73    70    1
    54    70    71    1
    55    83    81    1
    56    19    18    2
    57    71    72    2
    58    81    80    1
    59    18    17    1
    60    12    11    2
    61    76    77    1
    62    80    77    1
    63    80    82    1
    64    17    20    1
    65    17    16    1
    66    77    78    1
    67    11    16   am
    68    11    10    1
    69    14    13    1
    70    84    78   am
    71    84    85    1
    72    10    13    1
    73    10     9    1
    74    78    79    2
    75    88    85    1
    76    88    89    1
    77    13    15    1
    78    85    86    1
    79    91    89   ar
    80    89    90   ar
    81    86    87    2
    82     4     3    2
    83     3     2    1
    84    98    97    1
    85     7     5    1
    86    97    96    1
    87    97    99    1
    88    92    93    1
    89     2     5    1
    90     2     1    1
    91    96    93    1
    92     5     6    1
    93    93    94    1
    94     6     8    1
    95    94    95    2
