@<TRIPOS>MOLECULE
tmp/5jjkF00.pdb
 112 109 0 0 0
SMALL
GASTEIGER

@<TRIPOS>ATOM
      1  N          3.6010   23.8080   35.4260 N.3   140  THR140     -0.1218
      2  CA         4.6070   22.8410   35.8520 C.3   140  THR140      0.1862
      3  C          4.9910   23.0490   37.3120 C.2   140  THR140      0.2287
      4  O          5.1220   22.0820   38.0720 O.2   140  THR140     -0.2866
      5  CB         5.8370   22.9480   34.9520 C.3   140  THR140      0.1770
      6  OG1        5.4510   22.7130   33.5920 O.3   140  THR140     -0.2211
      7  CG2        6.8860   21.9340   35.3600 C.3   140  THR140      0.0375
      8  N         12.1210    8.7880   31.6810 N.3   161  PRO161     -0.2103
      9  CA        12.7560    8.3070   30.4410 C.3   161  PRO161      0.1489
     10  C         13.2020    9.4640   29.5660 C.2   161  PRO161      0.2418
     11  O         12.8790   10.6260   29.8530 O.2   161  PRO161     -0.2734
     12  CB        11.6330    7.4960   29.7650 C.3   161  PRO161      0.0282
     13  CG        10.7000    7.1390   30.8630 C.3   161  PRO161      0.0208
     14  CD        10.7390    8.2970   31.8140 C.3   161  PRO161      0.0893
     15  N         13.9600    9.1940   28.4980 N.am  162  PRO162     -0.2718
     16  CA        14.3900   10.2820   27.6110 C.3   162  PRO162      0.1535
     17  C         13.2020   10.9940   26.9840 C.2   162  PRO162      0.2598
     18  O         12.1640   10.3880   26.7020 O.2   162  PRO162     -0.2715
     19  CB        15.2300    9.5660   26.5460 C.3   162  PRO162      0.0310
     20  CG        15.6610    8.2970   27.1830 C.3   162  PRO162      0.0237
     21  CD        14.5630    7.9030   28.1190 C.3   162  PRO162      0.0939
     22  N         13.3680   12.3020   26.7760 N.am  163  LYS163     -0.1964
     23  CA        12.3520   13.1390   26.1360 C.3   163  LYS163      0.1728
     24  C         11.0480   13.1260   26.9330 C.2   163  LYS163      0.2616
     25  O          9.9500   13.0700   26.3760 O.2   163  LYS163     -0.2715
     26  CB        12.1250   12.7030   24.6840 C.3   163  LYS163      0.0311
     27  CG        11.3590   13.6850   23.8090 C.3   163  LYS163      0.0038
     28  CD        11.2140   13.1410   22.3980 C.3   163  LYS163      0.0206
     29  CE        10.3440   14.0450   21.5440 C.3   163  LYS163      0.1093
     30  NZ         8.9390   14.0720   22.0330 N.3   163  LYS163     -0.1314
     31  N         11.1680   13.1710   28.2600 N.am  164  ALA164     -0.1963
     32  CA        10.0070   13.2390   29.1330 C.3   164  ALA164      0.1728
     33  C          9.8230   14.5990   29.7890 C.2   164  ALA164      0.2617
     34  O          8.8100   14.8070   30.4640 O.2   164  ALA164     -0.2715
     35  CB        10.0930   12.1630   30.2240 C.3   164  ALA164      0.0334
     36  N         10.7610   15.5210   29.6140 N.am  165  GLY165     -0.1940
     37  CA        10.6900   16.8180   30.2430 C.3   165  GLY165      0.2014
     38  C         11.5430   17.0000   31.4800 C.2   165  GLY165      0.2639
     39  O         11.1840   17.8130   32.3400 O.2   165  GLY165     -0.2714
     40  N         12.6590   16.2740   31.6000 N.am  166  LYS166     -0.1963
     41  CA        13.5350   16.4420   32.7560 C.3   166  LYS166      0.1728
     42  C         14.3370   17.7340   32.6560 C.2   166  LYS166      0.2616
     43  O         14.3940   18.5180   33.6100 O.2   166  LYS166     -0.2715
     44  CB        14.4760   15.2450   32.8880 C.3   166  LYS166      0.0311
     45  CG        13.7780   13.9270   33.1260 C.3   166  LYS166      0.0038
     46  CD        14.7700   12.8370   33.4970 C.3   166  LYS166      0.0206
     47  CE        15.7800   12.6030   32.3920 C.3   166  LYS166      0.1093
     48  NZ        15.1160   12.1040   31.1600 N.3   166  LYS166     -0.1314
     49  N         14.9820   17.9610   31.5100 N.am  167  THR167     -0.1951
     50  CA        15.7280   19.2000   31.3170 C.3   167  THR167      0.1897
     51  C         14.7990   20.4070   31.3400 C.2   167  THR167      0.2313
     52  O         15.1450   21.4590   31.8900 O.2   167  THR167     -0.2863
     53  CB        16.5070   19.1350   30.0050 C.3   167  THR167      0.1794
     54  OG1       17.4130   18.0260   30.0520 O.3   167  THR167     -0.2208
     55  CG2       17.2930   20.4180   29.7780 C.3   167  THR167      0.0378
     56  N         12.1430   20.5360   33.0450 N.3   168  LEU168     -0.1245
     57  CA        11.7580   20.6770   34.4450 C.3   168  LEU168      0.1561
     58  C         12.7360   21.5780   35.1900 C.2   168  LEU168      0.2260
     59  O         12.3280   22.4730   35.9380 O.2   168  LEU168     -0.2867
     60  CB        11.6790   19.2970   35.1030 C.3   168  LEU168      0.0270
     61  CG        10.7080   19.0620   36.2650 C.3   168  LEU168      0.0019
     62  CD1       11.0780   19.8660   37.5000 C.3   168  LEU168      0.0001
     63  CD2        9.2910   19.3720   35.8330 C.3   168  LEU168      0.0001
     64  N         23.6700   17.9980   25.7380 N.3   192  ARG192     -0.1245
     65  CA        23.6430   18.6060   24.4200 C.3   192  ARG192      0.1563
     66  C         24.1950   20.0260   24.4720 C.2   192  ARG192      0.2260
     67  O         23.9570   20.7510   25.4460 O.2   192  ARG192     -0.2867
     68  CB        22.2170   18.6280   23.8740 C.3   192  ARG192      0.0307
     69  CG        21.7310   17.3140   23.2970 C.3   192  ARG192      0.0489
     70  CD        20.9060   16.5390   24.2980 C.3   192  ARG192      0.2205
     71  NE        20.1020   15.5020   23.6590 N.pl3 192  ARG192     -0.0865
     72  CZ        19.2200   14.7480   24.3050 C.cat 192  ARG192      0.5346
     73  NH1       19.0330   14.9180   25.6060 N.pl3 192  ARG192      0.1354
     74  NH2       18.5260   13.8250   23.6530 N.pl3 192  ARG192      0.1354
     75  N         21.5700   22.8040   24.8880 N.3   195  GLU195     -0.1245
     76  CA        20.9410   22.9480   26.1950 C.3   195  GLU195      0.1567
     77  C         21.7510   23.8380   27.1280 C.2   195  GLU195      0.2260
     78  O         21.1750   24.4860   28.0080 O.2   195  GLU195     -0.2867
     79  CB        20.7310   21.5690   26.8240 C.3   195  GLU195      0.0388
     80  CG        19.8990   20.6250   25.9650 C.3   195  GLU195      0.1160
     81  CD        19.7850   19.2360   26.5590 C.2   195  GLU195      0.3649
     82  OE1       20.4720   18.9580   27.5640 O.co2 195  GLU195     -0.2457
     83  OE2       19.0060   18.4210   26.0220 O.co2 195  GLU195     -0.2457
     84  N          1.8230   14.4520   24.3280 N.3   320  ARG320     -0.1245
     85  CA         2.1170   15.8880   24.3200 C.3   320  ARG320      0.1563
     86  C          1.3140   16.6360   25.3820 C.2   320  ARG320      0.2260
     87  O          0.8260   17.7450   25.1540 O.2   320  ARG320     -0.2867
     88  CB         1.8860   16.4910   22.9320 C.3   320  ARG320      0.0307
     89  CG         2.6590   15.7870   21.8260 C.3   320  ARG320      0.0489
     90  CD         4.1410   15.7070   22.1620 C.3   320  ARG320      0.2205
     91  NE         4.8590   14.7560   21.3180 N.pl3 320  ARG320     -0.0865
     92  CZ         5.4710   15.0760   20.1830 C.cat 320  ARG320      0.5346
     93  NH1        5.4490   16.3280   19.7480 N.pl3 320  ARG320      0.1354
     94  NH2        6.1050   14.1470   19.4820 N.pl3 320  ARG320      0.1354
     95  N          1.8520   18.3120   28.7750 N.3   322  PHE322     -0.1228
     96  CA         2.8600   18.8030   29.7060 C.3   322  PHE322      0.1721
     97  C          2.2340   19.6290   30.8290 C.2   322  PHE322      0.2437
     98  O          1.2440   20.3280   30.6090 O.2   322  PHE322     -0.2733
     99  CB         3.9120   19.6230   28.9600 C.3   322  PHE322      0.0547
    100  CG         4.6290   18.8490   27.8950 C.ar  322  PHE322     -0.0202
    101  CD1        5.6490   17.9720   28.2240 C.ar  322  PHE322     -0.0042
    102  CD2        4.2750   18.9900   26.5650 C.ar  322  PHE322     -0.0042
    103  CE1        6.3070   17.2550   27.2440 C.ar  322  PHE322     -0.0003
    104  CE2        4.9300   18.2780   25.5810 C.ar  322  PHE322     -0.0003
    105  CZ         5.9460   17.4080   25.9210 C.ar  322  PHE322     -0.0000
    106  N          2.8060   19.5410   32.0430 N.am  323  PRO323     -0.2729
    107  CA         3.9710   18.7100   32.3700 C.3   323  PRO323      0.1401
    108  C          3.6300   17.2260   32.4780 C.2   323  PRO323      0.2269
    109  O          2.6590   16.8530   33.1340 O.2   323  PRO323     -0.2865
    110  CB         4.4230   19.2660   33.7200 C.3   323  PRO323      0.0296
    111  CG         3.1690   19.7570   34.3450 C.3   323  PRO323      0.0237
    112  CD         2.3350   20.3040   33.2130 C.3   323  PRO323      0.0939
@<TRIPOS>BOND
     1    94    92    1
     2    93    92    1
     3    92    91    2
     4    91    90    1
     5    29    30    1
     6    29    28    1
     7    89    90    1
     8    89    88    1
     9    28    27    1
    10    88    85    1
    11    69    68    1
    12    69    70    1
    13    74    72    1
    14    71    70    1
    15    71    72    2
    16    27    26    1
    17    68    65    1
    18    72    73    1
    19    85    84    1
    20    85    86    1
    21    65    66    1
    22    65    64    1
    23    66    67    2
    24    26    23    1
    25    75    76    1
    26    87    86    2
    27   104   105   ar
    28   104   102   ar
    29   105   103   ar
    30    80    81    1
    31    80    79    1
    32    83    81   ar
    33    23    22    1
    34    23    24    1
    35    76    79    1
    36    76    77    1
    37    25    24    2
    38    19    20    1
    39    19    16    1
    40    81    82   ar
    41   102   100   ar
    42    18    17    2
    43    22    17   am
    44    24    31   am
    45    17    16    1
    46    77    78    2
    47    20    21    1
    48   103   101   ar
    49    16    15    1
    50   100   101   ar
    51   100    99    1
    52    21    15    1
    53    31    32    1
    54    15    10   am
    55    95    96    1
    56    99    96    1
    57    32    33    1
    58    32    35    1
    59    10    11    2
    60    10     9    1
    61    36    33   am
    62    36    37    1
    63    96    97    1
    64    12     9    1
    65    12    13    1
    66    55    53    1
    67    33    34    2
    68    53    54    1
    69    53    50    1
    70    37    38    1
    71     9     8    1
    72    98    97    2
    73    97   106   am
    74    13    14    1
    75    48    47    1
    76    50    51    1
    77    50    49    1
    78    51    52    2
    79    38    40   am
    80    38    39    2
    81    49    42   am
    82    40    41    1
    83     8    14    1
    84   106   107    1
    85   106   112    1
    86   107   108    1
    87   107   110    1
    88    47    46    1
    89   108   109    2
    90    42    41    1
    91    42    43    2
    92    41    44    1
    93    44    45    1
    94    56    57    1
    95    45    46    1
    96   112   111    1
    97     6     5    1
    98   110   111    1
    99    57    60    1
   100    57    58    1
   101     5     7    1
   102     5     2    1
   103    60    61    1
   104    58    59    2
   105     1     2    1
   106    63    61    1
   107     2     3    1
   108    61    62    1
   109     3     4    2
