@<TRIPOS>MOLECULE
tmp/5jjnC01.pdb
 73 65 0 0 0
SMALL
GASTEIGER

@<TRIPOS>ATOM
      1  N         92.1350    3.2520   43.6430 N.3    14  LEU14      -0.1245
      2  CA        93.4890    3.7250   43.9090 C.3    14  LEU14       0.1561
      3  C         93.8480    4.9270   43.0370 C.2    14  LEU14       0.2260
      4  O         94.3760    5.9270   43.5320 O.2    14  LEU14      -0.2867
      5  CB        94.5070    2.6000   43.7040 C.3    14  LEU14       0.0270
      6  CG        95.9530    2.9660   44.0320 C.3    14  LEU14       0.0019
      7  CD1       96.1030    3.2430   45.5250 C.3    14  LEU14       0.0001
      8  CD2       96.8990    1.8690   43.5860 C.3    14  LEU14       0.0001
      9  N         92.0160    7.8530   44.3130 N.3    17  THR17      -0.1203
     10  CA        92.6360    8.3250   45.5450 C.3    17  THR17       0.1994
     11  C         93.8560    9.1960   45.2700 C.2    17  THR17       0.2617
     12  O         93.9750   10.3000   45.8070 O.2    17  THR17      -0.2717
     13  CB        93.0590    7.1540   46.4570 C.3    17  THR17       0.1784
     14  OG1       91.9400    6.2890   46.6830 O.3    17  THR17      -0.2211
     15  CG2       93.5780    7.6760   47.7980 C.3    17  THR17       0.0376
     16  N         94.7510    8.6940   44.4230 N.am   18  LEU18      -0.1979
     17  CA        95.9840    9.4000   44.0940 C.3    18  LEU18       0.1596
     18  C         95.6950   10.7290   43.4090 C.2    18  LEU18       0.2287
     19  O         96.2990   11.7510   43.7430 O.2    18  LEU18      -0.2864
     20  CB        96.8720    8.5370   43.1970 C.3    18  LEU18       0.0297
     21  CG        97.3650    7.2200   43.7970 C.3    18  LEU18       0.0022
     22  CD1       98.1630    6.4350   42.7650 C.3    18  LEU18       0.0001
     23  CD2       98.1860    7.4660   45.0580 C.3    18  LEU18       0.0001
     24  N         94.4260   13.1420   45.9600 N.3    21  ALA21      -0.1245
     25  CA        95.5400   13.5310   46.8200 C.3    21  ALA21       0.1562
     26  C         96.4170   14.5820   46.1390 C.2    21  ALA21       0.2260
     27  O         96.8130   15.5730   46.7550 O.2    21  ALA21      -0.2867
     28  CB        96.3730   12.3120   47.1940 C.3    21  ALA21       0.0290
     29  N         89.8890   11.7700   49.4330 N.3    39  VAL39      -0.1245
     30  CA        90.9550   10.7900   49.6010 C.3    39  VAL39       0.1561
     31  C         90.4750    9.6240   50.4680 C.2    39  VAL39       0.2260
     32  O         90.6790    8.4610   50.1240 O.2    39  VAL39      -0.2867
     33  CB        92.2200   11.4290   50.2200 C.3    39  VAL39       0.0252
     34  CG1       93.2430   10.3640   50.5950 C.3    39  VAL39       0.0019
     35  CG2       92.8230   12.4450   49.2590 C.3    39  VAL39       0.0019
     36  N         89.9980    5.9390   49.1810 N.3    43  GLY43      -0.1225
     37  CA        91.0870    5.1950   49.7980 C.3    43  GLY43       0.1811
     38  C         90.6140    3.9930   50.5970 C.2    43  GLY43       0.2280
     39  O         91.1830    2.9060   50.5020 O.2    43  GLY43      -0.2866
     40  N         89.3600    1.4430   48.2930 N.3    46  ALA46      -0.1231
     41  CA        90.4920    0.7220   47.7210 C.3    46  ALA46       0.1694
     42  C         90.9090   -0.4510   48.6150 C.2    46  ALA46       0.2591
     43  O         91.1730   -1.5520   48.1290 O.2    46  ALA46      -0.2718
     44  CB        91.6650    1.6660   47.4920 C.3    46  ALA46       0.0304
     45  N         90.9620   -0.2080   49.9220 N.am   47  VAL47      -0.1980
     46  CA        91.3290   -1.2470   50.8780 C.3    47  VAL47       0.1595
     47  C         90.3370   -2.4060   50.8260 C.2    47  VAL47       0.2287
     48  O         90.7360   -3.5680   50.7870 O.2    47  VAL47      -0.2864
     49  CB        91.4100   -0.6990   52.3230 C.3    47  VAL47       0.0276
     50  CG1       91.7080   -1.8230   53.3120 C.3    47  VAL47       0.0022
     51  CG2       92.4630    0.3950   52.4190 C.3    47  VAL47       0.0022
     52  N         90.8240   -4.5440   47.6290 N.3    50  VAL50      -0.1231
     53  CA        92.0500   -5.3310   47.7140 C.3    50  VAL50       0.1692
     54  C         91.8330   -6.5580   48.5910 C.2    50  VAL50       0.2591
     55  O         92.1690   -7.6780   48.2050 O.2    50  VAL50      -0.2718
     56  CB        93.2200   -4.5040   48.2770 C.3    50  VAL50       0.0266
     57  CG1       94.4100   -5.4080   48.5810 C.3    50  VAL50       0.0020
     58  CG2       93.6160   -3.4160   47.2940 C.3    50  VAL50       0.0020
     59  N         91.2570   -6.3310   49.7680 N.am   51  VAL51      -0.1980
     60  CA        90.9230   -7.3980   50.7030 C.3    51  VAL51       0.1595
     61  C         90.0420   -8.4720   50.0540 C.2    51  VAL51       0.2287
     62  O         90.2840   -9.6710   50.2240 O.2    51  VAL51      -0.2864
     63  CB        90.2340   -6.8280   51.9660 C.3    51  VAL51       0.0276
     64  CG1       89.6360   -7.9380   52.8070 C.3    51  VAL51       0.0022
     65  CG2       91.2240   -6.0040   52.7860 C.3    51  VAL51       0.0022
     66  N         91.9990  -10.4530   47.4270 N.3    54  LEU54      -0.1245
     67  CA        92.8590  -11.4620   48.0550 C.3    54  LEU54       0.1561
     68  C         92.0310  -12.5970   48.6530 C.2    54  LEU54       0.2260
     69  O         92.5710  -13.5020   49.2860 O.2    54  LEU54      -0.2867
     70  CB        93.7190  -10.8350   49.1510 C.3    54  LEU54       0.0270
     71  CG        94.6990   -9.7490   48.7070 C.3    54  LEU54       0.0019
     72  CD1       95.2960   -9.0470   49.9190 C.3    54  LEU54       0.0001
     73  CD2       95.7950  -10.3510   47.8310 C.3    54  LEU54       0.0001
@<TRIPOS>BOND
     1    22    21    1
     2     3     4    2
     3     3     2    1
     4    20    21    1
     5    20    17    1
     6    18    19    2
     7    18    17    1
     8     8     6    1
     9     1     2    1
    10     5     2    1
    11     5     6    1
    12    21    23    1
    13     6     7    1
    14    17    16    1
    15     9    10    1
    16    16    11   am
    17    11    10    1
    18    11    12    2
    19    10    13    1
    20    24    25    1
    21    26    27    2
    22    26    25    1
    23    13    14    1
    24    13    15    1
    25    25    28    1
    26    58    56    1
    27    66    67    1
    28    44    41    1
    29    52    53    1
    30    53    56    1
    31    53    54    1
    32    41    40    1
    33    41    42    1
    34    73    71    1
    35    67    68    1
    36    67    70    1
    37    43    42    2
    38    55    54    2
    39    56    57    1
    40    54    59   am
    41    42    45   am
    42    68    69    2
    43    71    70    1
    44    71    72    1
    45    36    37    1
    46    35    33    1
    47    29    30    1
    48    30    33    1
    49    30    31    1
    50    59    60    1
    51    37    38    1
    52    45    46    1
    53    61    62    2
    54    61    60    1
    55    32    31    2
    56    33    34    1
    57    39    38    2
    58    60    63    1
    59    48    47    2
    60    47    46    1
    61    46    49    1
    62    63    65    1
    63    63    64    1
    64    49    51    1
    65    49    50    1
