@<TRIPOS>MOLECULE
tmp/5jjnC04.pdb
 88 84 0 0 0
SMALL
GASTEIGER

@<TRIPOS>ATOM
      1  N         65.7180   -5.3080   55.0940 N.3   125  PHE125     -0.1241
      2  CA        65.7850   -4.5070   53.8770 C.3   125  PHE125      0.1605
      3  C         64.8800   -3.2880   53.9990 C.2   125  PHE125      0.2264
      4  O         65.2830   -2.1690   53.6730 O.2   125  PHE125     -0.2867
      5  CB        65.3930   -5.3210   52.6390 C.3   125  PHE125      0.0534
      6  CG        65.3060   -4.4960   51.3840 C.ar  125  PHE125     -0.0203
      7  CD1       66.4430   -4.2260   50.6390 C.ar  125  PHE125     -0.0042
      8  CD2       64.0930   -3.9750   50.9590 C.ar  125  PHE125     -0.0042
      9  CE1       66.3730   -3.4610   49.4900 C.ar  125  PHE125     -0.0003
     10  CE2       64.0160   -3.2100   49.8110 C.ar  125  PHE125     -0.0003
     11  CZ        65.1590   -2.9500   49.0760 C.ar  125  PHE125     -0.0000
     12  N         65.5560    0.6170   53.4720 N.3   129  ALA129     -0.1245
     13  CA        64.9000    1.3300   52.3830 C.3   129  ALA129      0.1562
     14  C         64.2070    2.6020   52.8840 C.2   129  ALA129      0.2260
     15  O         64.3120    3.6620   52.2640 O.2   129  ALA129     -0.2867
     16  CB        63.9190    0.4170   51.6600 C.3   129  ALA129      0.0290
     17  N         66.6090    5.2770   53.8660 N.3   132  PHE132     -0.1227
     18  CA        67.1910    5.8520   52.6590 C.3   132  PHE132      0.1736
     19  C         66.2990    6.9640   52.1220 C.2   132  PHE132      0.2595
     20  O         66.7890    8.0230   51.7250 O.2   132  PHE132     -0.2718
     21  CB        67.4090    4.7630   51.6040 C.3   132  PHE132      0.0547
     22  CG        67.8350    5.2840   50.2550 C.ar  132  PHE132     -0.0202
     23  CD1       69.0980    5.8300   50.0710 C.ar  132  PHE132     -0.0042
     24  CD2       66.9830    5.1970   49.1630 C.ar  132  PHE132     -0.0042
     25  CE1       69.4950    6.2960   48.8260 C.ar  132  PHE132     -0.0003
     26  CE2       67.3740    5.6600   47.9140 C.ar  132  PHE132     -0.0003
     27  CZ        68.6320    6.2100   47.7460 C.ar  132  PHE132     -0.0000
     28  N         64.9900    6.7230   52.1220 N.am  133  LEU133     -0.1980
     29  CA        64.0300    7.7350   51.6910 C.3   133  LEU133      0.1596
     30  C         64.1020    8.9540   52.6040 C.2   133  LEU133      0.2287
     31  O         63.9990   10.0910   52.1430 O.2   133  LEU133     -0.2864
     32  CB        62.6030    7.1670   51.6640 C.3   133  LEU133      0.0297
     33  CG        62.3100    6.0560   50.6480 C.3   133  LEU133      0.0022
     34  CD1       60.8360    5.6590   50.6900 C.3   133  LEU133      0.0001
     35  CD2       62.7170    6.4650   49.2320 C.3   133  LEU133      0.0001
     36  N         67.1900   10.7940   51.4840 N.3   136  VAL136     -0.1245
     37  CA        66.9110   11.4850   50.2250 C.3   136  VAL136      0.1561
     38  C         66.1040   12.7600   50.4720 C.2   136  VAL136      0.2260
     39  O         66.3560   13.7980   49.8480 O.2   136  VAL136     -0.2867
     40  CB        66.1770   10.5830   49.2090 C.3   136  VAL136      0.0252
     41  CG1       65.7470   11.3900   47.9800 C.3   136  VAL136      0.0019
     42  CG2       67.0640    9.4170   48.7990 C.3   136  VAL136      0.0019
     43  N         71.7460   10.9430   44.6790 N.3   166  VAL166     -0.1231
     44  CA        70.3810   10.4310   44.7880 C.3   166  VAL166      0.1692
     45  C         70.0360    9.4340   43.6710 C.2   166  VAL166      0.2591
     46  O         69.5400    8.3430   43.9410 O.2   166  VAL166     -0.2718
     47  CB        69.3490   11.5790   44.8200 C.3   166  VAL166      0.0266
     48  CG1       67.9380   11.0330   44.6870 C.3   166  VAL166      0.0020
     49  CG2       69.4970   12.3790   46.1110 C.3   166  VAL166      0.0020
     50  N         70.3190    9.8060   42.4270 N.am  167  ILE167     -0.1980
     51  CA        69.9890    8.9620   41.2830 C.3   167  ILE167      0.1595
     52  C         70.6550    7.5940   41.3610 C.2   167  ILE167      0.2287
     53  O         69.9870    6.5640   41.2650 O.2   167  ILE167     -0.2864
     54  CB        70.3750    9.6360   39.9510 C.3   167  ILE167      0.0276
     55  CG1       69.4310   10.8030   39.6570 C.3   167  ILE167      0.0022
     56  CG2       70.3450    8.6300   38.8060 C.3   167  ILE167      0.0022
     57  CD1       69.8680   11.6640   38.4870 C.3   167  ILE167      0.0001
     58  N         70.0230    5.1850   44.5450 N.3   170  ALA170     -0.1245
     59  CA        68.7220    4.5350   44.4650 C.3   170  ALA170      0.1562
     60  C         68.7700    3.2000   43.7100 C.2   170  ALA170      0.2260
     61  O         67.8680    2.3740   43.8490 O.2   170  ALA170     -0.2867
     62  CB        67.7010    5.4710   43.8360 C.3   170  ALA170      0.0290
     63  N         69.6060   -0.5890   46.1120 N.3   173  PRO173     -0.2102
     64  CA        68.6670   -1.5710   46.6740 C.3   173  PRO173      0.1504
     65  C         68.0580   -2.5320   45.6420 C.2   173  PRO173      0.2575
     66  O         67.7150   -3.6520   46.0130 O.2   173  PRO173     -0.2718
     67  CB        67.5820   -0.7040   47.3370 C.3   173  PRO173      0.0282
     68  CG        67.7460    0.6570   46.7550 C.3   173  PRO173      0.0208
     69  CD        69.2050    0.7940   46.4250 C.3   173  PRO173      0.0893
     70  N         67.9460   -2.1210   44.3800 N.am  174  PHE174     -0.1977
     71  CA        67.4250   -3.0200   43.3500 C.3   174  PHE174      0.1639
     72  C         68.4100   -4.1470   43.0520 C.2   174  PHE174      0.2290
     73  O         68.0110   -5.2820   42.7950 O.2   174  PHE174     -0.2864
     74  CB        67.0620   -2.2540   42.0750 C.3   174  PHE174      0.0560
     75  CG        65.9220   -1.2980   42.2590 C.ar  174  PHE174     -0.0200
     76  CD1       64.6180   -1.7100   42.0480 C.ar  174  PHE174     -0.0042
     77  CD2       66.1530    0.0060   42.6680 C.ar  174  PHE174     -0.0042
     78  CE1       63.5610   -0.8320   42.2280 C.ar  174  PHE174     -0.0003
     79  CE2       65.1040    0.8890   42.8500 C.ar  174  PHE174     -0.0003
     80  CZ        63.8060    0.4700   42.6300 C.ar  174  PHE174     -0.0000
     81  N         68.0400   -6.4460   45.9950 N.3   177  LEU177     -0.1245
     82  CA        66.8230   -7.2370   45.8730 C.3   177  LEU177      0.1561
     83  C         66.9350   -8.3410   44.8190 C.2   177  LEU177      0.2260
     84  O         66.5080   -9.4720   45.0510 O.2   177  LEU177     -0.2867
     85  CB        65.6190   -6.3420   45.5680 C.3   177  LEU177      0.0270
     86  CG        65.0140   -5.5540   46.7330 C.3   177  LEU177      0.0019
     87  CD1       63.8300   -4.7270   46.2560 C.3   177  LEU177      0.0001
     88  CD2       64.5930   -6.4820   47.8750 C.3   177  LEU177      0.0001
@<TRIPOS>BOND
     1    57    55    1
     2    56    54    1
     3    55    54    1
     4    54    51    1
     5    53    52    2
     6    51    52    1
     7    51    50    1
     8    76    78   ar
     9    76    75   ar
    10    74    75    1
    11    74    71    1
    12    78    80   ar
    13    75    77   ar
    14    50    45   am
    15    80    79   ar
    16    77    79   ar
    17    73    72    2
    18    72    71    1
    19    71    70    1
    20    45    46    2
    21    45    44    1
    22    60    61    2
    23    60    59    1
    24    62    59    1
    25    70    65   am
    26    59    58    1
    27    43    44    1
    28    48    47    1
    29    44    47    1
    30    83    84    2
    31    83    82    1
    32    47    49    1
    33    85    82    1
    34    85    86    1
    35    65    66    2
    36    65    64    1
    37    82    81    1
    38    63    69    1
    39    63    64    1
    40    87    86    1
    41    69    68    1
    42    64    67    1
    43    86    88    1
    44    68    67    1
    45    27    26   ar
    46    27    25   ar
    47    26    24   ar
    48    41    40    1
    49    42    40    1
    50    25    23   ar
    51    11     9   ar
    52    11    10   ar
    53    24    22   ar
    54    40    37    1
    55    35    33    1
    56     9     7   ar
    57    10     8   ar
    58    39    38    2
    59    23    22   ar
    60    37    38    1
    61    37    36    1
    62    22    21    1
    63     7     6   ar
    64    33    34    1
    65    33    32    1
    66     8     6   ar
    67     6     5    1
    68    21    18    1
    69    16    13    1
    70    32    29    1
    71    29    28    1
    72    29    30    1
    73    20    19    2
    74    28    19   am
    75    19    18    1
    76    31    30    2
    77    15    14    2
    78    13    14    1
    79    13    12    1
    80     5     2    1
    81    18    17    1
    82     4     3    2
    83     2     3    1
    84     2     1    1
