@<TRIPOS>MOLECULE
tmp/5jjqC00.pdb
 189 181 0 0 0
SMALL
GASTEIGER

@<TRIPOS>ATOM
      1  N          5.0940  -28.7250  -42.8740 N.3   201  PHE201     -0.1227
      2  CA         5.8530  -29.5050  -41.8770 C.3   201  PHE201      0.1736
      3  C          5.4520  -29.1740  -40.4320 C.2   201  PHE201      0.2595
      4  O          5.4420  -28.0340  -39.9910 O.2   201  PHE201     -0.2718
      5  CB         7.3670  -29.2650  -42.0150 C.3   201  PHE201      0.0547
      6  CG         7.9470  -29.6100  -43.3640 C.ar  201  PHE201     -0.0202
      7  CD1        7.3340  -30.5360  -44.2090 C.ar  201  PHE201     -0.0042
      8  CD2        9.1680  -29.0750  -43.7470 C.ar  201  PHE201     -0.0042
      9  CE1        7.8990  -30.8430  -45.4200 C.ar  201  PHE201     -0.0003
     10  CE2        9.7420  -29.4000  -44.9660 C.ar  201  PHE201     -0.0003
     11  CZ         9.1040  -30.2860  -45.8010 C.ar  201  PHE201     -0.0000
     12  N          4.9800  -30.1980  -39.7610 N.am  202  ASP202     -0.1960
     13  CA         5.2770  -30.4980  -38.3790 C.3   202  ASP202      0.1840
     14  C          6.0980  -29.4950  -37.5550 C.2   202  ASP202      0.2622
     15  O          5.8740  -29.3060  -36.3700 O.2   202  ASP202     -0.2715
     16  CB         6.1290  -31.7460  -38.5050 C.3   202  ASP202      0.1450
     17  CG         5.9570  -32.6310  -37.4180 C.2   202  ASP202      0.3671
     18  OD1        4.8140  -32.9690  -37.0450 O.co2 202  ASP202     -0.2456
     19  OD2        6.9880  -33.0570  -36.9620 O.co2 202  ASP202     -0.2456
     20  N          7.1320  -28.9670  -38.1750 N.am  203  PHE203     -0.1974
     21  CA         8.0970  -28.1020  -37.5160 C.3   203  PHE203      0.1639
     22  C          7.4300  -26.7320  -37.2010 C.2   203  PHE203      0.2290
     23  O          7.6410  -26.1330  -36.1400 O.2   203  PHE203     -0.2864
     24  CB         9.2610  -27.9110  -38.4800 C.3   203  PHE203      0.0560
     25  CG        10.5620  -27.5470  -37.8600 C.ar  203  PHE203     -0.0200
     26  CD1       10.6590  -27.0100  -36.5700 C.ar  203  PHE203     -0.0042
     27  CD2       11.7040  -27.6690  -38.6210 C.ar  203  PHE203     -0.0042
     28  CE1       11.8760  -26.6570  -36.0500 C.ar  203  PHE203     -0.0003
     29  CE2       12.9150  -27.3020  -38.1150 C.ar  203  PHE203     -0.0003
     30  CZ        13.0030  -26.7970  -36.8300 C.ar  203  PHE203     -0.0000
     31  N          5.6700  -27.1730  -34.0970 N.3   206  LEU206     -0.1245
     32  CA         6.6070  -27.2710  -33.0100 C.3   206  LEU206      0.1561
     33  C          6.9430  -25.8440  -32.5970 C.2   206  LEU206      0.2260
     34  O          6.8700  -25.5350  -31.4260 O.2   206  LEU206     -0.2867
     35  CB         7.8640  -28.0600  -33.4080 C.3   206  LEU206      0.0270
     36  CG         9.0430  -28.1840  -32.4020 C.3   206  LEU206      0.0019
     37  CD1       10.1160  -29.0670  -32.9830 C.3   206  LEU206      0.0001
     38  CD2        9.7050  -26.8560  -32.0250 C.3   206  LEU206      0.0001
     39  N         16.3500  -29.1130  -36.5840 N.3   275  SER275     -0.1202
     40  CA        16.0750  -30.5490  -36.7090 C.3   275  SER275      0.2020
     41  C         16.0350  -30.9260  -38.1490 C.2   275  SER275      0.2619
     42  O         16.1700  -30.0860  -38.9960 O.2   275  SER275     -0.2717
     43  CB        14.7630  -30.9460  -36.0330 C.3   275  SER275      0.2103
     44  OG        13.6950  -30.4210  -36.7460 O.3   275  SER275     -0.2182
     45  N         15.8540  -32.1990  -38.4230 N.am  276  GLY276     -0.1942
     46  CA        15.6510  -32.6430  -39.7840 C.3   276  GLY276      0.2014
     47  C         16.8550  -33.3180  -40.3780 C.2   276  GLY276      0.2639
     48  O         16.7880  -34.4990  -40.6930 O.2   276  GLY276     -0.2714
     49  N         17.9210  -32.5340  -40.5830 N.am  277  GLU277     -0.1963
     50  CA        19.2240  -32.9940  -41.0800 C.3   277  GLU277      0.1718
     51  C         20.2540  -32.7710  -39.9460 C.2   277  GLU277      0.2458
     52  O         20.0470  -31.9550  -39.0320 O.2   277  GLU277     -0.2730
     53  CB        19.7160  -32.1870  -42.3270 C.3   277  GLU277      0.0428
     54  CG        18.7530  -31.8820  -43.4940 C.3   277  GLU277      0.1163
     55  CD        18.3770  -30.3730  -43.6210 C.2   277  GLU277      0.3649
     56  OE1       19.2400  -29.4490  -43.4510 O.co2 277  GLU277     -0.2457
     57  OE2       17.1950  -30.0790  -43.9120 O.co2 277  GLU277     -0.2457
     58  N         21.3950  -33.4690  -40.0060 N.am  278  PRO278     -0.2727
     59  CA        22.5070  -33.0470  -39.1440 C.3   278  PRO278      0.1402
     60  C         23.0590  -31.6840  -39.5180 C.2   278  PRO278      0.2269
     61  O         22.9590  -31.2810  -40.6570 O.2   278  PRO278     -0.2865
     62  CB        23.5530  -34.1310  -39.3700 C.3   278  PRO278      0.0296
     63  CG        23.1230  -34.8550  -40.5910 C.3   278  PRO278      0.0237
     64  CD        21.6370  -34.7810  -40.6070 C.3   278  PRO278      0.0939
     65  N         19.9280  -29.1330  -30.7410 N.3   298  ASN298     -0.1225
     66  CA        19.6430  -30.1570  -31.7690 C.3   298  ASN298      0.1785
     67  C         18.3660  -30.8980  -31.4160 C.2   298  ASN298      0.2597
     68  O         18.2960  -31.6760  -30.4370 O.2   298  ASN298     -0.2718
     69  CB        20.8160  -31.1440  -31.7650 C.3   298  ASN298      0.1169
     70  CG        20.7400  -32.2090  -32.8540 C.2   298  ASN298      0.2627
     71  OD1       19.8970  -32.1650  -33.7660 O.2   298  ASN298     -0.2716
     72  ND2       21.6170  -33.1830  -32.7530 N.am  298  ASN298     -0.0877
     73  N         17.3260  -30.6390  -32.1750 N.am  299  CYS299     -0.1956
     74  CA        16.0720  -31.3560  -32.0100 C.3   299  CYS299      0.1843
     75  C         16.1030  -32.6160  -32.9200 C.2   299  CYS299      0.2625
     76  O         16.1770  -32.4880  -34.1190 O.2   299  CYS299     -0.2714
     77  CB        14.9330  -30.4160  -32.4030 C.3   299  CYS299      0.0997
     78  SG        13.2770  -31.0740  -32.0810 S.3   299  CYS299     -0.0797
     79  N         16.0870  -33.8150  -32.3250 N.am  300  PHE300     -0.1960
     80  CA        16.0180  -35.0730  -33.0710 C.3   300  PHE300      0.1771
     81  C         14.7270  -35.8030  -32.8060 C.2   300  PHE300      0.2620
     82  O         14.3680  -36.0380  -31.6440 O.2   300  PHE300     -0.2715
     83  CB        17.0950  -36.0470  -32.6650 C.3   300  PHE300      0.0574
     84  CG        17.0740  -37.3400  -33.4510 C.ar  300  PHE300     -0.0200
     85  CD1       17.7820  -37.4560  -34.6340 C.ar  300  PHE300     -0.0042
     86  CD2       16.4020  -38.4580  -32.9850 C.ar  300  PHE300     -0.0042
     87  CE1       17.7920  -38.6320  -35.3590 C.ar  300  PHE300     -0.0003
     88  CE2       16.4360  -39.6550  -33.6910 C.ar  300  PHE300     -0.0003
     89  CZ        17.1240  -39.7410  -34.8810 C.ar  300  PHE300     -0.0000
     90  N         14.0850  -36.2450  -33.9030 N.am  301  GLY301     -0.1940
     91  CA        13.0000  -37.2370  -33.8550 C.3   301  GLY301      0.2014
     92  C         12.2110  -37.1960  -35.1220 C.2   301  GLY301      0.2640
     93  O         12.7550  -36.8320  -36.1640 O.2   301  GLY301     -0.2714
     94  N         10.9090  -37.4870  -35.0260 N.am  302  SER302     -0.1935
     95  CA        10.1100  -37.7000  -36.2340 C.3   302  SER302      0.2055
     96  C          8.6790  -37.2460  -36.1180 C.2   302  SER302      0.2643
     97  O          8.0310  -37.4200  -35.0980 O.2   302  SER302     -0.2714
     98  CB        10.0620  -39.2400  -36.6030 C.3   302  SER302      0.2130
     99  OG        11.3450  -39.8110  -36.6310 O.3   302  SER302     -0.2179
    100  N          8.1590  -36.7660  -37.2370 N.am  303  THR303     -0.1950
    101  CA         6.7530  -36.4140  -37.3900 C.3   303  THR303      0.1897
    102  C          5.8670  -37.3640  -36.6130 C.2   303  THR303      0.2313
    103  O          5.0580  -36.9280  -35.7920 O.2   303  THR303     -0.2863
    104  CB         6.4090  -36.3510  -38.8660 C.3   303  THR303      0.1794
    105  OG1        7.2200  -35.3620  -39.4880 O.3   303  THR303     -0.2208
    106  CG2        4.9960  -35.9870  -39.0760 C.3   303  THR303      0.0378
    107  N          6.2930  -35.7460  -33.5880 N.3   306  VAL306     -0.1231
    108  CA         6.9270  -34.4490  -33.8130 C.3   306  VAL306      0.1692
    109  C          8.4470  -34.6260  -33.7190 C.2   306  VAL306      0.2591
    110  O          9.2040  -34.3720  -34.6810 O.2   306  VAL306     -0.2718
    111  CB         6.4710  -33.3140  -32.7950 C.3   306  VAL306      0.0266
    112  CG1        6.8280  -31.9580  -33.3770 C.3   306  VAL306      0.0020
    113  CG2        4.9830  -33.3600  -32.5550 C.3   306  VAL306      0.0020
    114  N          8.8600  -35.0160  -32.5070 N.am  307  ALA307     -0.1980
    115  CA        10.2490  -35.2510  -32.1810 C.3   307  ALA307      0.1597
    116  C         10.3700  -35.9120  -30.8040 C.2   307  ALA307      0.2287
    117  O          9.3430  -36.2300  -30.1240 O.2   307  ALA307     -0.2864
    118  CB        11.0520  -33.9720  -32.2570 C.3   307  ALA307      0.0319
    119  N         22.5060  -36.5380  -29.8720 N.3   326  ILE326     -0.1245
    120  CA        21.0790  -36.3750  -29.9620 C.3   326  ILE326      0.1561
    121  C         20.4870  -36.7630  -28.6410 C.2   326  ILE326      0.2260
    122  O         19.2880  -36.9950  -28.5550 O.2   326  ILE326     -0.2867
    123  CB        20.4520  -37.2650  -31.0790 C.3   326  ILE326      0.0252
    124  CG1       20.6760  -38.7390  -30.8100 C.3   326  ILE326      0.0019
    125  CG2       21.0390  -36.8960  -32.4290 C.3   326  ILE326      0.0019
    126  CD1       19.9700  -39.6340  -31.7760 C.3   326  ILE326      0.0001
    127  N         15.5680  -45.6920  -37.3840 N.3   394  ASP394     -0.1239
    128  CA        16.7860  -44.9490  -37.1190 C.3   394  ASP394      0.1674
    129  C         17.6700  -45.8010  -36.2520 C.2   394  ASP394      0.2266
    130  O         17.2080  -46.3650  -35.2680 O.2   394  ASP394     -0.2867
    131  CB        16.4840  -43.6180  -36.4090 C.3   394  ASP394      0.1410
    132  CG        15.7220  -42.6800  -37.2640 C.2   394  ASP394      0.3668
    133  OD1       16.1670  -42.3280  -38.3650 O.co2 394  ASP394     -0.2456
    134  OD2       14.6490  -42.2560  -36.8080 O.co2 394  ASP394     -0.2456
    135  N         23.3950  -40.5380  -33.4730 N.3   406  PHE406     -0.1241
    136  CA        22.7130  -41.0080  -34.6610 C.3   406  PHE406      0.1605
    137  C         23.6410  -41.7380  -35.6450 C.2   406  PHE406      0.2264
    138  O         24.5700  -41.1590  -36.2030 O.2   406  PHE406     -0.2867
    139  CB        22.0940  -39.8070  -35.3790 C.3   406  PHE406      0.0534
    140  CG        21.2830  -40.1630  -36.5970 C.ar  406  PHE406     -0.0203
    141  CD1       20.1860  -40.9990  -36.4970 C.ar  406  PHE406     -0.0042
    142  CD2       21.5750  -39.6090  -37.8100 C.ar  406  PHE406     -0.0042
    143  CE1       19.4410  -41.3120  -37.6030 C.ar  406  PHE406     -0.0003
    144  CE2       20.8120  -39.9030  -38.9220 C.ar  406  PHE406     -0.0003
    145  CZ        19.7620  -40.7720  -38.8190 C.ar  406  PHE406     -0.0000
    146  N         20.0910  -44.4580  -41.0990 N.3   409  ARG409     -0.1245
    147  CA        18.8640  -45.2550  -41.2970 C.3   409  ARG409      0.1563
    148  C         19.0950  -46.7550  -41.5210 C.2   409  ARG409      0.2260
    149  O         20.1450  -47.1480  -41.9870 O.2   409  ARG409     -0.2867
    150  CB        18.1260  -44.7490  -42.5080 C.3   409  ARG409      0.0307
    151  CG        17.7220  -43.2780  -42.4300 C.3   409  ARG409      0.0489
    152  CD        16.4870  -43.0340  -41.5810 C.3   409  ARG409      0.2205
    153  NE        15.3930  -43.9500  -41.8680 N.pl3 409  ARG409     -0.0865
    154  CZ        14.2310  -43.9780  -41.2200 C.cat 409  ARG409      0.5346
    155  NH1       13.9440  -43.1200  -40.2190 N.pl3 409  ARG409      0.1354
    156  NH2       13.3450  -44.8670  -41.5870 N.pl3 409  ARG409      0.1354
    157  N         16.0310  -44.4330  -46.5230 N.3   413  GLN413     -0.1245
    158  CA        15.3180  -43.2220  -46.4610 C.3   413  GLN413      0.1566
    159  C         16.3680  -42.1310  -46.4600 C.2   413  GLN413      0.2260
    160  O         17.4140  -42.2520  -45.8460 O.2   413  GLN413     -0.2867
    161  CB        14.4450  -43.1730  -45.2130 C.3   413  GLN413      0.0367
    162  CG        13.3670  -42.1000  -45.2910 C.3   413  GLN413      0.0905
    163  CD        12.8590  -41.6680  -43.9410 C.2   413  GLN413      0.2608
    164  OE1       13.5660  -41.0090  -43.1590 O.2   413  GLN413     -0.2717
    165  NE2       11.6320  -42.0690  -43.6340 N.am  413  GLN413     -0.0878
    166  N         16.8060  -37.5440  -46.9660 N.3   415  LYS415     -0.1245
    167  CA        16.0520  -36.2750  -46.8580 C.3   415  LYS415      0.1561
    168  C         16.4450  -35.3550  -48.0220 C.2   415  LYS415      0.2260
    169  O         17.6080  -35.2210  -48.3310 O.2   415  LYS415     -0.2867
    170  CB        16.2710  -35.6110  -45.4850 C.3   415  LYS415      0.0271
    171  CG        15.8810  -36.4880  -44.2830 C.3   415  LYS415      0.0035
    172  CD        14.4520  -36.2460  -43.8120 C.3   415  LYS415      0.0206
    173  CE        14.3030  -34.8230  -43.2800 C.3   415  LYS415      0.1093
    174  NZ        13.7120  -34.6950  -41.9190 N.3   415  LYS415     -0.1314
    175  N         14.2840  -31.4010  -46.8910 N.3   418  GLY418     -0.1225
    176  CA        13.5610  -31.8270  -45.7020 C.3   418  GLY418      0.1811
    177  C         12.4340  -32.8360  -45.9160 C.2   418  GLY418      0.2280
    178  O         11.7880  -33.2440  -44.9560 O.2   418  GLY418     -0.2866
    179  N         11.0010  -36.5650  -46.6720 N.3   420  ARG420     -0.1245
    180  CA        11.4290  -37.9380  -46.5910 C.3   420  ARG420      0.1563
    181  C         11.3080  -38.6180  -47.9630 C.2   420  ARG420      0.2260
    182  O         10.2280  -38.7220  -48.5140 O.2   420  ARG420     -0.2867
    183  CB        10.6060  -38.6850  -45.5290 C.3   420  ARG420      0.0307
    184  CG        11.1870  -38.5490  -44.1380 C.3   420  ARG420      0.0489
    185  CD        10.1260  -38.3530  -43.0760 C.3   420  ARG420      0.2205
    186  NE         9.1690  -39.4350  -43.0200 N.pl3 420  ARG420     -0.0865
    187  CZ         8.4550  -39.7540  -41.9480 C.cat 420  ARG420      0.5346
    188  NH1        8.5690  -39.0810  -40.8120 N.pl3 420  ARG420      0.1354
    189  NH2        7.6280  -40.7810  -42.0100 N.pl3 420  ARG420      0.1354
@<TRIPOS>BOND
     1   182   181    2
     2   169   168    2
     3   168   167    1
     4   181   180    1
     5   166   167    1
     6   175   176    1
     7   167   170    1
     8   179   180    1
     9   180   183    1
    10   157   158    1
    11   158   159    1
    12   158   161    1
    13   159   160    2
    14   177   176    1
    15   177   178    2
    16    11     9   ar
    17    11    10   ar
    18   183   184    1
    19   170   171    1
    20     9     7   ar
    21   162   161    1
    22   162   163    1
    23    10     8   ar
    24   171   172    1
    25     7     6   ar
    26   184   185    1
    27   163   165   am
    28   163   164    2
    29    57    55   ar
    30   172   173    1
    31     8     6   ar
    32    55    54    1
    33    55    56   ar
    34    54    53    1
    35     6     5    1
    36   173   174    1
    37   185   186    1
    38   186   187    2
    39     1     2    1
    40   150   151    1
    41   150   147    1
    42   151   152    1
    43    53    50    1
    44     5     2    1
    45   189   187    1
    46   149   148    2
    47   187   188    1
    48     2     3    1
    49   153   152    1
    50   153   154    2
    51   156   154    1
    52   148   147    1
    53   147   146    1
    54   154   155    1
    55    50    49    1
    56    50    51    1
    57    48    47    2
    58    61    60    2
    59    64    63    1
    60    64    58    1
    61    63    62    1
    62    49    47   am
    63     3     4    2
    64     3    12   am
    65    47    46    1
    66    58    51   am
    67    58    59    1
    68    51    52    2
    69    46    45    1
    70    12    13    1
    71    60    59    1
    72   105   104    1
    73    62    59    1
    74   106   104    1
    75    42    41    2
    76   144   145   ar
    77   144   142   ar
    78   104   101    1
    79   145   143   ar
    80    27    29   ar
    81    27    25   ar
    82    16    13    1
    83    16    17    1
    84    24    25    1
    85    24    21    1
    86    45    41   am
    87    13    14    1
    88   133   132   ar
    89    20    14   am
    90    20    21    1
    91    41    40    1
    92    29    30   ar
    93    25    26   ar
    94   142   140   ar
    95   143   141   ar
    96    14    15    2
    97    21    22    1
    98    17    18   ar
    99    17    19   ar
   100   101   100    1
   101   101   102    1
   102   127   128    1
   103   132   134   ar
   104   132   131    1
   105   100    96   am
   106    22    23    2
   107   128   131    1
   108   128   129    1
   109    30    28   ar
   110    44    43    1
   111    40    39    1
   112    40    43    1
   113    99    98    1
   114   102   103    2
   115    98    95    1
   116   140   141   ar
   117   140   139    1
   118    26    28   ar
   119   129   130    2
   120    95    96    1
   121    95    94    1
   122   138   137    2
   123    93    92    2
   124    96    97    2
   125   137   136    1
   126   139   136    1
   127    87    89   ar
   128    87    85   ar
   129    92    94   am
   130    92    91    1
   131    89    88   ar
   132   110   109    2
   133   136   135    1
   134    85    84   ar
   135    76    75    2
   136    31    32    1
   137    90    91    1
   138    90    81   am
   139   108   109    1
   140   108   107    1
   141   108   111    1
   142    71    70    2
   143   109   114   am
   144    88    86   ar
   145    84    86   ar
   146    84    83    1
   147    35    32    1
   148    35    36    1
   149   112   111    1
   150    80    81    1
   151    80    83    1
   152    80    79    1
   153    32    33    1
   154    37    36    1
   155    75    79   am
   156    75    74    1
   157    70    72   am
   158    70    69    1
   159    81    82    2
   160   111   113    1
   161    33    34    2
   162   114   115    1
   163   125   123    1
   164    77    78    1
   165    77    74    1
   166    36    38    1
   167   118   115    1
   168   115   116    1
   169    73    74    1
   170    73    67   am
   171   126   124    1
   172    66    69    1
   173    66    67    1
   174    66    65    1
   175    67    68    2
   176   123   124    1
   177   123   120    1
   178   116   117    2
   179   120   119    1
   180   120   121    1
   181   121   122    2
