@<TRIPOS>MOLECULE
tmp/5jjrA01.pdb
 201 198 0 0 0
SMALL
GASTEIGER

@<TRIPOS>ATOM
      1  N         23.4530  162.2210   11.3250 N.3   334  MET334     -0.1245
      2  CA        23.1040  163.3510   12.1830 C.3   334  MET334      0.1570
      3  C         21.6260  163.2130   12.5750 C.2   334  MET334      0.2261
      4  O         21.2900  163.3570   13.7540 O.2   334  MET334     -0.2867
      5  CB        23.3250  164.6680   11.4270 C.3   334  MET334      0.0387
      6  CG        23.7120  165.8090   12.3130 C.3   334  MET334      0.0595
      7  SD        25.5010  166.0100   12.3640 S.3   334  MET334     -0.1393
      8  CE        25.6430  167.0610   13.8290 C.3   334  MET334      0.0692
      9  N         32.4080  183.5230   23.3540 N.3   477  GLY477     -0.1210
     10  CA        31.8680  183.3310   22.0240 C.3   477  GLY477      0.1956
     11  C         32.8870  182.6520   21.1440 C.2   477  GLY477      0.2612
     12  O         34.0880  182.9320   21.2500 O.2   477  GLY477     -0.2717
     13  N         32.3810  181.7750   20.2540 N.am  478  LEU478     -0.1965
     14  CA        33.1200  180.9060   19.3510 C.3   478  LEU478      0.1728
     15  C         34.2910  181.5810   18.6590 C.2   478  LEU478      0.2616
     16  O         35.3840  181.0360   18.6430 O.2   478  LEU478     -0.2715
     17  CB        32.1680  180.2530   18.3240 C.3   478  LEU478      0.0311
     18  CG        32.7690  179.1950   17.3870 C.3   478  LEU478      0.0022
     19  CD1       33.3770  178.0160   18.1520 C.3   478  LEU478      0.0001
     20  CD2       31.7760  178.7280   16.4040 C.3   478  LEU478      0.0001
     21  N         34.0430  182.7510   18.0910 N.am  479  HIS479     -0.1973
     22  CA        34.9980  183.5620   17.3320 C.3   479  HIS479      0.1656
     23  C         36.1650  184.0650   18.1770 C.2   479  HIS479      0.2291
     24  O         37.1590  184.5000   17.6010 O.2   479  HIS479     -0.2864
     25  CB        34.2710  184.7330   16.6610 C.3   479  HIS479      0.0771
     26  CG        33.5730  185.6440   17.6150 C.ar  479  HIS479      0.0820
     27  ND1       34.0360  186.9230   17.8560 N.ar  479  HIS479     -0.2267
     28  CD2       32.4510  185.4400   18.3440 C.ar  479  HIS479      0.1154
     29  CE1       33.2010  187.4410   18.7480 C.ar  479  HIS479      0.1986
     30  NE2       32.2260  186.5880   19.0640 N.ar  479  HIS479     -0.2212
     31  N         37.3030  181.9800   21.0820 N.3   481  LEU481     -0.1245
     32  CA        37.9090  180.7610   21.6050 C.3   481  LEU481      0.1561
     33  C         39.2360  180.4190   20.9380 C.2   481  LEU481      0.2260
     34  O         40.2030  180.1030   21.6330 O.2   481  LEU481     -0.2867
     35  CB        36.9350  179.5740   21.5500 C.3   481  LEU481      0.0270
     36  CG        35.6160  179.7090   22.3620 C.3   481  LEU481      0.0019
     37  CD1       34.7940  178.4320   22.2770 C.3   481  LEU481      0.0001
     38  CD2       35.8700  180.1070   23.8060 C.3   481  LEU481      0.0001
     39  N         35.4610  172.4930   22.4210 N.3   676  CYS676     -0.1221
     40  CA        34.0490  172.8230   22.2070 C.3   676  CYS676      0.1808
     41  C         33.5720  172.4370   20.8250 C.2   676  CYS676      0.2602
     42  O         32.9100  173.2230   20.1610 O.2   676  CYS676     -0.2717
     43  CB        33.7740  174.2990   22.5030 C.3   676  CYS676      0.0970
     44  SG        34.2480  174.8130   24.1640 S.3   676  CYS676     -0.0800
     45  N         33.8910  171.2210   20.4010 N.am  677  SER677     -0.1938
     46  CA        33.4680  170.6310   19.1250 C.3   677  SER677      0.2055
     47  C         34.1010  171.2520   17.9080 C.2   677  SER677      0.2643
     48  O         33.7380  170.8840   16.7930 O.2   677  SER677     -0.2714
     49  CB        31.9440  170.5420   19.0030 C.3   677  SER677      0.2130
     50  OG        31.4130  169.9550   20.1810 O.3   677  SER677     -0.2179
     51  N         35.1090  172.1150   18.1140 N.am  678  HIS678     -0.1973
     52  CA        35.8020  172.8220   17.0420 C.3   678  HIS678      0.1656
     53  C         37.3260  172.7440   17.1420 C.2   678  HIS678      0.2291
     54  O         37.8860  172.2960   18.1400 O.2   678  HIS678     -0.2864
     55  CB        35.4000  174.3290   17.0720 C.3   678  HIS678      0.0771
     56  CG        33.9930  174.6080   16.6760 C.ar  678  HIS678      0.0820
     57  ND1       32.9410  174.3810   17.5420 N.ar  678  HIS678     -0.2267
     58  CD2       33.5080  175.0900   15.5100 C.ar  678  HIS678      0.1154
     59  CE1       31.8500  174.7250   16.8710 C.ar  678  HIS678      0.1986
     60  NE2       32.1440  175.1600   15.6480 N.ar  678  HIS678     -0.2212
     61  N         34.9450  173.0570   11.9730 N.3   696  ARG696     -0.1245
     62  CA        34.6230  171.6850   12.3910 C.3   696  ARG696      0.1563
     63  C         34.3720  170.8170   11.1530 C.2   696  ARG696      0.2260
     64  O         34.2040  171.3930   10.0680 O.2   696  ARG696     -0.2867
     65  CB        33.4580  171.6770   13.4200 C.3   696  ARG696      0.0307
     66  CG        32.0760  171.8370   12.8430 C.3   696  ARG696      0.0489
     67  CD        31.0230  172.0880   13.9070 C.3   696  ARG696      0.2205
     68  NE        30.5860  170.8360   14.5090 N.pl3 696  ARG696     -0.0865
     69  CZ        29.7740  170.7350   15.5590 C.cat 696  ARG696      0.5346
     70  NH1       29.2720  171.8210   16.1230 N.pl3 696  ARG696      0.1354
     71  NH2       29.4380  169.5420   16.0360 N.pl3 696  ARG696      0.1354
     72  N         29.2100  167.7560    9.6730 N.3   700  GLU700     -0.1245
     73  CA        28.5040  168.0300   10.9340 C.3   700  GLU700      0.1567
     74  C         27.7620  169.3470   10.8180 C.2   700  GLU700      0.2260
     75  O         26.7360  169.5230   11.4680 O.2   700  GLU700     -0.2867
     76  CB        29.4770  168.1370   12.1160 C.3   700  GLU700      0.0388
     77  CG        30.3130  166.9080   12.3890 C.3   700  GLU700      0.1160
     78  CD        31.1920  167.0450   13.6140 C.2   700  GLU700      0.3649
     79  OE1       31.2280  168.1410   14.2170 O.co2 700  GLU700     -0.2457
     80  OE2       31.8250  166.0380   13.9930 O.co2 700  GLU700     -0.2457
     81  N         23.5640  169.1260   10.5730 N.3   704  ARG704     -0.1245
     82  CA        22.8250  169.8730   11.5940 C.3   704  ARG704      0.1563
     83  C         21.8260  170.8650   10.9930 C.2   704  ARG704      0.2260
     84  O         20.6960  170.9440   11.4890 O.2   704  ARG704     -0.2867
     85  CB        23.7860  170.5800   12.5710 C.3   704  ARG704      0.0307
     86  CG        23.0960  171.3360   13.7350 C.3   704  ARG704      0.0489
     87  CD        22.1570  170.4730   14.5760 C.3   704  ARG704      0.2205
     88  NE        22.8310  169.2730   15.0810 N.pl3 704  ARG704     -0.0865
     89  CZ        22.2180  168.2440   15.6600 C.cat 704  ARG704      0.5346
     90  NH1       20.9010  168.2520   15.8230 N.pl3 704  ARG704      0.1354
     91  NH2       22.9180  167.2000   16.0810 N.pl3 704  ARG704      0.1354
     92  N         24.4710  182.2310   10.0590 N.3   723  MET723     -0.1245
     93  CA        25.4780  181.7740   11.0180 C.3   723  MET723      0.1570
     94  C         26.7220  181.3360   10.2170 C.2   723  MET723      0.2261
     95  O         27.8410  181.6660   10.5920 O.2   723  MET723     -0.2867
     96  CB        24.9660  180.5800   11.8350 C.3   723  MET723      0.0387
     97  CG        25.9220  180.1520   12.9170 C.3   723  MET723      0.0595
     98  SD        25.6840  178.4100   13.1960 S.3   723  MET723     -0.1393
     99  CE        25.3380  178.3980   14.7360 C.3   723  MET723      0.0692
    100  N         30.2800  182.9490   10.8550 N.3   727  MET727     -0.1230
    101  CA        31.2600  182.0940   11.5060 C.3   727  MET727      0.1702
    102  C         32.0490  181.1570   10.6320 C.2   727  MET727      0.2592
    103  O         33.1760  180.8250   10.9990 O.2   727  MET727     -0.2718
    104  CB        30.5970  181.3100   12.6550 C.3   727  MET727      0.0401
    105  CG        30.0500  182.1980   13.7750 C.3   727  MET727      0.0596
    106  SD        31.3850  182.8920   14.7930 S.3   727  MET727     -0.1393
    107  CE        31.1400  184.5300   14.4800 C.3   727  MET727      0.0692
    108  N         31.4520  180.6370    9.5460 N.am  728  TYR728     -0.1976
    109  CA        32.0820  179.6190    8.7040 C.3   728  TYR728      0.1639
    110  C         32.1760  180.0260    7.2510 C.2   728  TYR728      0.2290
    111  O         32.0990  179.1790    6.3710 O.2   728  TYR728     -0.2864
    112  CB        31.3470  178.2670    8.8390 C.3   728  TYR728      0.0560
    113  CG        31.1110  177.8250   10.2620 C.ar  728  TYR728     -0.0198
    114  CD1       32.1560  177.3440   11.0470 C.ar  728  TYR728     -0.0009
    115  CD2       29.8420  177.8800   10.8260 C.ar  728  TYR728     -0.0009
    116  CE1       31.9490  176.9560   12.3660 C.ar  728  TYR728      0.0417
    117  CE2       29.6250  177.5050   12.1500 C.ar  728  TYR728      0.0417
    118  CZ        30.6790  177.0270   12.9110 C.ar  728  TYR728      0.1957
    119  OH        30.4490  176.5950   14.1930 O.3   728  TYR728     -0.2866
    120  N         19.8990  178.1970   15.9690 N.3   755  THR755     -0.1203
    121  CA        20.6880  177.2330   15.2010 C.3   755  THR755      0.1994
    122  C         21.4450  176.3410   16.1540 C.2   755  THR755      0.2619
    123  O         21.8770  175.2390   15.7840 O.2   755  THR755     -0.2717
    124  CB        21.6620  177.9430   14.2680 C.3   755  THR755      0.1784
    125  OG1       22.3620  178.9610   14.9820 O.3   755  THR755     -0.2211
    126  CG2       20.9840  178.5130   13.0570 C.3   755  THR755      0.0376
    127  N         21.6430  176.8450   17.3750 N.am  756  THR756     -0.1938
    128  CA        22.3580  176.1880   18.4710 C.3   756  THR756      0.2028
    129  C         21.9200  176.7530   19.8200 C.2   756  THR756      0.2642
    130  O         21.3640  177.8500   19.9080 O.2   756  THR756     -0.2714
    131  CB        23.8860  176.3110   18.2890 C.3   756  THR756      0.1808
    132  OG1       24.5580  175.6740   19.3830 O.3   756  THR756     -0.2208
    133  CG2       24.3470  177.7440   18.1840 C.3   756  THR756      0.0379
    134  N         22.1890  175.9770   20.8540 N.am  757  TRP757     -0.1959
    135  CA        21.9230  176.2750   22.2460 C.3   757  TRP757      0.1771
    136  C         23.2770  176.4130   22.9790 C.2   757  TRP757      0.2620
    137  O         23.3220  176.5230   24.2040 O.2   757  TRP757     -0.2715
    138  CB        21.0320  175.1690   22.8280 C.3   757  TRP757      0.0590
    139  CG        19.5960  175.3390   22.4170 C.ar  757  TRP757      0.0006
    140  CD1       18.6180  175.9840   23.1170 C.ar  757  TRP757      0.0946
    141  CD2       19.0080  174.9630   21.1600 C.ar  757  TRP757      0.0152
    142  NE1       17.4510  176.0100   22.3880 N.ar  757  TRP757     -0.2442
    143  CE2       17.6610  175.3870   21.1840 C.ar  757  TRP757      0.0810
    144  CE3       19.4860  174.2930   20.0170 C.ar  757  TRP757      0.0012
    145  CZ2       16.7890  175.1730   20.1100 C.ar  757  TRP757      0.0191
    146  CZ3       18.6190  174.0850   18.9500 C.ar  757  TRP757      0.0001
    147  CH2       17.2890  174.5180   19.0050 C.ar  757  TRP757      0.0015
    148  N         24.3850  176.4560   22.2050 N.am  758  SER758     -0.1950
    149  CA        25.7280  176.6170   22.7650 C.3   758  SER758      0.1924
    150  C         25.8650  177.9220   23.5450 C.2   758  SER758      0.2314
    151  O         25.4830  178.9910   23.0420 O.2   758  SER758     -0.2863
    152  CB        26.7880  176.5730   21.6670 C.3   758  SER758      0.2116
    153  OG        28.0690  176.7440   22.2520 O.3   758  SER758     -0.2180
    154  N         28.4530  179.4140   23.9070 N.3   760  HIS760     -0.1226
    155  CA        29.4240  180.1870   23.1040 C.3   760  HIS760      0.1752
    156  C         28.8130  180.9180   21.8930 C.2   760  HIS760      0.2596
    157  O         29.5160  181.6380   21.1730 O.2   760  HIS760     -0.2718
    158  CB        30.5910  179.2710   22.6760 C.3   760  HIS760      0.0759
    159  CG        31.2710  178.6280   23.8430 C.ar  760  HIS760      0.0818
    160  ND1       32.1060  179.3490   24.6710 N.ar  760  HIS760     -0.2268
    161  CD2       31.1310  177.3810   24.3400 C.ar  760  HIS760      0.1154
    162  CE1       32.4850  178.5000   25.6160 C.ar  760  HIS760      0.1986
    163  NE2       31.9380  177.3020   25.4420 N.ar  760  HIS760     -0.2212
    164  N         27.5180  180.7080   21.6590 N.am  761  ALA761     -0.1966
    165  CA        26.7620  181.3110   20.5820 C.3   761  ALA761      0.1728
    166  C         26.0900  182.6010   21.0290 C.2   761  ALA761      0.2616
    167  O         25.2740  182.5920   21.9560 O.2   761  ALA761     -0.2715
    168  CB        25.7300  180.3320   20.0660 C.3   761  ALA761      0.0334
    169  N         26.4250  183.7150   20.3610 N.am  762  HIS762     -0.1973
    170  CA        25.8340  185.0200   20.6580 C.3   762  HIS762      0.1656
    171  C         24.7910  185.4420   19.6300 C.2   762  HIS762      0.2291
    172  O         24.1890  186.5120   19.7610 O.2   762  HIS762     -0.2864
    173  CB        26.8890  186.1010   20.8770 C.3   762  HIS762      0.0771
    174  CG        27.8500  185.8140   21.9880 C.ar  762  HIS762      0.0820
    175  ND1       29.0400  186.4980   22.0870 N.ar  762  HIS762     -0.2267
    176  CD2       27.7480  184.9630   23.0370 C.ar  762  HIS762      0.1154
    177  CE1       29.6360  186.0320   23.1700 C.ar  762  HIS762      0.1986
    178  NE2       28.8980  185.1040   23.7740 N.ar  762  HIS762     -0.2212
    179  N         24.6500  186.6350   16.5140 N.3   764  GLN764     -0.1231
    180  CA        24.7510  187.9230   15.8090 C.3   764  GLN764      0.1698
    181  C         24.1450  187.8210   14.3890 C.2   764  GLN764      0.2592
    182  O         23.9100  188.8390   13.7340 O.2   764  GLN764     -0.2718
    183  CB        26.2130  188.4310   15.7080 C.3   764  GLN764      0.0381
    184  CG        26.9630  188.6500   17.0150 C.3   764  GLN764      0.0905
    185  CD        27.8210  187.4570   17.3780 C.2   764  GLN764      0.2608
    186  OE1       27.4720  186.2990   17.1280 O.2   764  GLN764     -0.2717
    187  NE2       28.9590  187.7080   17.9890 N.am  764  GLN764     -0.0878
    188  N         23.9230  186.5860   13.9260 N.am  765  TRP765     -0.1976
    189  CA        23.3250  186.2550   12.6300 C.3   765  TRP765      0.1640
    190  C         21.7840  186.3020   12.6540 C.2   765  TRP765      0.2290
    191  O         21.1530  186.2000   11.5960 O.2   765  TRP765     -0.2864
    192  CB        23.7860  184.8720   12.1890 C.3   765  TRP765      0.0576
    193  CG        23.5700  183.7940   13.2020 C.ar  765  TRP765      0.0006
    194  CD1       22.4620  183.0130   13.3460 C.ar  765  TRP765      0.0946
    195  CD2       24.5250  183.3180   14.1560 C.ar  765  TRP765      0.0152
    196  NE1       22.6490  182.1050   14.3530 N.ar  765  TRP765     -0.2442
    197  CE2       23.9020  182.2810   14.8880 C.ar  765  TRP765      0.0810
    198  CE3       25.8340  183.7060   14.5080 C.ar  765  TRP765      0.0012
    199  CZ2       24.5450  181.6110   15.9400 C.ar  765  TRP765      0.0191
    200  CZ3       26.4680  183.0350   15.5520 C.ar  765  TRP765      0.0001
    201  CH2       25.8200  182.0050   16.2580 C.ar  765  TRP765      0.0015
@<TRIPOS>BOND
     1   111   110    2
     2   110   109    1
     3   109   112    1
     4   109   108    1
     5   112   113    1
     6   108   102   am
     7    72    73    1
     8    92    93    1
     9    64    63    2
    10    94    95    2
    11    94    93    1
    12   113   115   ar
    13   113   114   ar
    14    81    82    1
    15   102   103    2
    16   102   101    1
    17    74    73    1
    18    74    75    2
    19   115   117   ar
    20   100   101    1
    21    73    76    1
    22    83    84    2
    23    83    82    1
    24    93    96    1
    25   114   116   ar
    26    63    62    1
    27     1     2    1
    28     5     2    1
    29     5     6    1
    30   101   104    1
    31    82    85    1
    32   191   190    2
    33    96    97    1
    34    61    62    1
    35    76    77    1
    36   117   118   ar
    37     2     3    1
    38   192   189    1
    39   192   193    1
    40     6     7    1
    41     7     8    1
    42   116   118   ar
    43    77    78    1
    44    62    65    1
    45    85    86    1
    46     3     4    2
    47   189   190    1
    48   189   188    1
    49   104   105    1
    50    66    65    1
    51    66    67    1
    52   118   119    1
    53    97    98    1
    54   126   124    1
    55    98    99    1
    56   193   194   ar
    57   193   195   ar
    58   194   196   ar
    59    78    80   ar
    60    78    79   ar
    61   182   181    2
    62    86    87    1
    63   105   106    1
    64    67    68    1
    65   188   181   am
    66   195   198   ar
    67   195   197   ar
    68   124   125    1
    69   124   121    1
    70   196   197   ar
    71   181   180    1
    72   107   106    1
    73   198   200   ar
    74    68    69    2
    75    87    88    1
    76   197   199   ar
    77    88    89    2
    78   121   120    1
    79   121   122    1
    80    58    60   ar
    81    58    56   ar
    82   200   201   ar
    83    69    71    1
    84    69    70    1
    85    60    59   ar
    86    89    90    1
    87    89    91    1
    88   183   180    1
    89   183   184    1
    90   123   122    2
    91   180   179    1
    92   199   201   ar
    93   122   127   am
    94    20    18    1
    95    25    22    1
    96    25    26    1
    97    56    55    1
    98    56    57   ar
    99    48    47    2
   100    59    57   ar
   101   184   185    1
   102    52    55    1
   103    52    53    1
   104    52    51    1
   105   186   185    2
   106    53    54    2
   107    22    21    1
   108    22    23    1
   109   127   128    1
   110   185   187   am
   111    18    19    1
   112    18    17    1
   113    24    23    2
   114    26    27   ar
   115    26    28   ar
   116    27    29   ar
   117    47    51   am
   118    47    46    1
   119    21    15   am
   120   133   131    1
   121   131   128    1
   122   131   132    1
   123    17    14    1
   124    28    30   ar
   125   128   129    1
   126    16    15    2
   127    15    14    1
   128    29    30   ar
   129   146   147   ar
   130   146   144   ar
   131    49    46    1
   132    49    50    1
   133   147   145   ar
   134    46    45    1
   135    14    13    1
   136   171   172    2
   137   171   170    1
   138   129   130    2
   139   129   134   am
   140   144   141   ar
   141   168   165    1
   142   145   143   ar
   143    42    41    2
   144    13    11   am
   145   169   170    1
   146   169   166   am
   147    45    41   am
   148   165   166    1
   149   165   164    1
   150   170   173    1
   151    41    40    1
   152   134   135    1
   153   173   174    1
   154    33    32    1
   155    33    34    2
   156   166   167    2
   157    31    32    1
   158    11    12    2
   159    11    10    1
   160   141   143   ar
   161   141   139   ar
   162   157   156    2
   163   143   142   ar
   164    35    32    1
   165    35    36    1
   166   164   156   am
   167   152   153    1
   168   152   149    1
   169   156   155    1
   170   174   175   ar
   171   174   176   ar
   172    10     9    1
   173   175   177   ar
   174   148   149    1
   175   148   136   am
   176    40    39    1
   177    40    43    1
   178   135   138    1
   179   135   136    1
   180    37    36    1
   181    36    38    1
   182   142   140   ar
   183   139   138    1
   184   139   140   ar
   185    43    44    1
   186   158   155    1
   187   158   159    1
   188   149   150    1
   189   136   137    2
   190   176   178   ar
   191   151   150    2
   192   155   154    1
   193   177   178   ar
   194   159   161   ar
   195   159   160   ar
   196   161   163   ar
   197   160   162   ar
   198   163   162   ar
