@<TRIPOS>MOLECULE
tmp/5jjrA03.pdb
 85 79 0 0 0
SMALL
GASTEIGER

@<TRIPOS>ATOM
      1  N         13.9720  145.7860    4.2640 N.3    26  GLY26      -0.1210
      2  CA        13.1470  146.3040    5.3490 C.3    26  GLY26       0.1956
      3  C         13.5380  145.8210    6.7320 C.2    26  GLY26       0.2612
      4  O         12.7800  146.0130    7.6840 O.2    26  GLY26      -0.2717
      5  N         14.7310  145.2100    6.8750 N.am   27  ILE27      -0.1965
      6  CA        15.1800  144.7030    8.1930 C.3    27  ILE27       0.1727
      7  C         15.7630  145.7870    9.1000 C.2    27  ILE27       0.2616
      8  O         16.0280  146.8920    8.6350 O.2    27  ILE27      -0.2715
      9  CB        16.0930  143.4440    8.0900 C.3    27  ILE27       0.0290
     10  CG1       17.5350  143.7990    7.6690 C.3    27  ILE27       0.0022
     11  CG2       15.4430  142.3380    7.2050 C.3    27  ILE27       0.0023
     12  CD1       18.6000  142.7720    8.0090 C.3    27  ILE27       0.0001
     13  N         15.9250  145.4830   10.4110 N.am   28  THR28      -0.1951
     14  CA        16.6000  146.3840   11.3450 C.3    28  THR28       0.1897
     15  C         18.0160  145.8630   11.4070 C.2    28  THR28       0.2313
     16  O         18.2220  144.6520   11.3800 O.2    28  THR28      -0.2863
     17  CB        15.9340  146.4040   12.7170 C.3    28  THR28       0.1794
     18  OG1       14.5720  146.7370   12.5200 O.3    28  THR28      -0.2208
     19  CG2       16.5790  147.4240   13.6770 C.3    28  THR28       0.0378
     20  N          9.5820  136.7830   16.7720 N.3   200  ARG200     -0.1231
     21  CA        10.4620  137.1090   15.6640 C.3   200  ARG200      0.1694
     22  C         11.2740  138.3630   16.0180 C.2   200  ARG200      0.2592
     23  O         10.7050  139.4090   16.3540 O.2   200  ARG200     -0.2718
     24  CB         9.6420  137.3800   14.3920 C.3   200  ARG200      0.0321
     25  CG        10.4660  137.9130   13.2180 C.3   200  ARG200      0.0489
     26  CD        11.1990  136.8030   12.5230 C.3   200  ARG200      0.2205
     27  NE        11.9260  137.3090   11.3710 N.pl3 200  ARG200     -0.0865
     28  CZ        12.7580  136.5800   10.6390 C.cat 200  ARG200      0.5346
     29  NH1       12.9860  135.3010   10.9470 N.pl3 200  ARG200      0.1354
     30  NH2       13.3760  137.1170    9.6050 N.pl3 200  ARG200      0.1354
     31  N         12.5850  138.2700   15.8680 N.am  201  ASN201     -0.1961
     32  CA        13.4620  139.3930   16.0920 C.3   201  ASN201      0.1804
     33  C         13.5810  140.1420   14.7630 C.2   201  ASN201      0.2463
     34  O         13.9520  139.5270   13.7720 O.2   201  ASN201     -0.2730
     35  CB        14.8140  138.8990   16.5690 C.3   201  ASN201      0.1195
     36  CG        15.6790  139.9790   17.1300 C.2   201  ASN201      0.2630
     37  OD1       16.0250  140.9420   16.4460 O.2   201  ASN201     -0.2716
     38  ND2       16.1250  139.7900   18.3520 N.am  201  ASN201     -0.0877
     39  N         13.3370  141.4800   14.7280 N.am  202  PRO202     -0.2727
     40  CA        13.4230  142.2310   13.4660 C.3   202  PRO202      0.1402
     41  C         14.8160  142.3430   12.9090 C.2   202  PRO202      0.2269
     42  O         14.9740  142.6490   11.7310 O.2   202  PRO202     -0.2865
     43  CB        12.8760  143.6130   13.8540 C.3   202  PRO202      0.0296
     44  CG        12.0440  143.3610   15.0340 C.3   202  PRO202      0.0237
     45  CD        12.8750  142.3720   15.7990 C.3   202  PRO202      0.0939
     46  N         16.7850  139.8630   12.5930 N.3   204  SER204     -0.1217
     47  CA        17.0450  138.6450   11.8280 C.3   204  SER204      0.1889
     48  C         16.8740  139.0110   10.3550 C.2   204  SER204      0.2288
     49  O         15.9890  139.8220   10.0220 O.2   204  SER204     -0.2866
     50  CB        16.0300  137.5570   12.1820 C.3   204  SER204      0.2089
     51  OG        16.2100  137.0380   13.4900 O.3   204  SER204     -0.2183
     52  N         15.9280  138.3390    6.2760 N.3   206  ASN206     -0.1240
     53  CA        14.7390  137.7210    5.6480 C.3   206  ASN206      0.1653
     54  C         15.0200  136.3310    5.0810 C.2   206  ASN206      0.2266
     55  O         14.0900  135.6040    4.7400 O.2   206  ASN206     -0.2867
     56  CB        14.1570  138.6110    4.5440 C.3   206  ASN206      0.1155
     57  CG        13.6720  139.9580    4.9810 C.2   206  ASN206      0.2627
     58  OD1       13.0610  140.1200    6.0480 O.2   206  ASN206     -0.2716
     59  ND2       13.8860  140.9380    4.1220 N.am  206  ASN206     -0.0877
     60  N          4.8760  135.5230   10.4350 N.3   228  VAL228     -0.1245
     61  CA         6.2410  135.6800    9.9430 C.3   228  VAL228      0.1561
     62  C          6.3420  135.1540    8.5200 C.2   228  VAL228      0.2260
     63  O          6.9180  135.8190    7.6750 O.2   228  VAL228     -0.2867
     64  CB         7.2890  135.0570   10.9180 C.3   228  VAL228      0.0252
     65  CG1        8.7050  135.1030   10.3470 C.3   228  VAL228      0.0019
     66  CG2        7.2380  135.7400   12.2770 C.3   228  VAL228      0.0019
     67  N          4.7940  137.7530    6.3550 N.3   231  LEU231     -0.1245
     68  CA         5.6380  138.9440    6.2830 C.3   231  LEU231      0.1561
     69  C          6.7600  138.6880    5.3050 C.2   231  LEU231      0.2260
     70  O          6.9370  139.4740    4.3810 O.2   231  LEU231     -0.2867
     71  CB         6.1970  139.3220    7.6670 C.3   231  LEU231      0.0270
     72  CG         7.3300  140.3640    7.7080 C.3   231  LEU231      0.0019
     73  CD1        6.7940  141.7880    7.5290 C.3   231  LEU231      0.0001
     74  CD2        8.1200  140.2620    8.9980 C.3   231  LEU231      0.0001
     75  N          7.7250  140.2800    1.5870 N.3   235  ARG235     -0.1245
     76  CA         9.0000  140.9520    1.3390 C.3   235  ARG235      0.1563
     77  C          9.6970  140.5440    0.0340 C.2   235  ARG235      0.2260
     78  O         10.6170  141.2480   -0.3880 O.2   235  ARG235     -0.2867
     79  CB         9.9310  140.8410    2.5480 C.3   235  ARG235      0.0307
     80  CG         9.4460  141.7120    3.6720 C.3   235  ARG235      0.0489
     81  CD        10.4570  141.8380    4.7720 C.3   235  ARG235      0.2205
     82  NE         9.9320  142.7500    5.7740 N.pl3 235  ARG235     -0.0865
     83  CZ        10.4070  142.8990    7.0020 C.cat 235  ARG235      0.5346
     84  NH1       11.4660  142.1990    7.4060 N.pl3 235  ARG235      0.1354
     85  NH2        9.8170  143.7270    7.8440 N.pl3 235  ARG235      0.1354
@<TRIPOS>BOND
     1    78    77    2
     2    77    76    1
     3    76    75    1
     4    76    79    1
     5    79    80    1
     6    80    81    1
     7    59    57   am
     8     1     2    1
     9    70    69    2
    10    56    57    1
    11    56    53    1
    12    55    54    2
    13    81    82    1
    14    57    58    2
    15    54    53    1
    16    69    68    1
    17     2     3    1
    18    53    52    1
    19    82    83    2
    20    68    67    1
    21    68    71    1
    22     3     5   am
    23     3     4    2
    24     5     6    1
    25    83    84    1
    26    83    85    1
    27    11     9    1
    28    73    72    1
    29    71    72    1
    30    10    12    1
    31    10     9    1
    32    63    62    2
    33    72    74    1
    34     9     6    1
    35     6     7    1
    36    62    61    1
    37     8     7    2
    38     7    13   am
    39    30    28    1
    40    61    60    1
    41    61    64    1
    42    49    48    2
    43    65    64    1
    44    48    47    1
    45    13    14    1
    46    28    29    1
    47    28    27    2
    48    64    66    1
    49    14    15    1
    50    14    17    1
    51    27    26    1
    52    16    15    2
    53    42    41    2
    54    47    50    1
    55    47    46    1
    56    50    51    1
    57    18    17    1
    58    26    25    1
    59    17    19    1
    60    41    40    1
    61    25    24    1
    62    40    43    1
    63    40    39    1
    64    34    33    2
    65    43    44    1
    66    24    21    1
    67    39    33   am
    68    39    45    1
    69    33    32    1
    70    44    45    1
    71    21    22    1
    72    21    20    1
    73    31    22   am
    74    31    32    1
    75    22    23    2
    76    32    35    1
    77    37    36    2
    78    35    36    1
    79    36    38   am
