@<TRIPOS>MOLECULE
tmp/5jjsA02.pdb
 78 73 0 0 0
SMALL
GASTEIGER

@<TRIPOS>ATOM
      1  N         26.3080  142.7580   32.1730 N.3    88  GLY88      -0.1225
      2  CA        25.9950  144.0870   32.6960 C.3    88  GLY88       0.1811
      3  C         24.5620  144.2910   33.1550 C.2    88  GLY88       0.2280
      4  O         24.1580  145.4360   33.3920 O.2    88  GLY88      -0.2866
      5  N         32.1660  145.7230   30.6040 N.3   114  TYR114     -0.1241
      6  CA        31.6980  145.7240   31.9880 C.3   114  TYR114      0.1605
      7  C         31.1680  144.3820   32.4100 C.2   114  TYR114      0.2264
      8  O         30.3600  143.8100   31.6690 O.2   114  TYR114     -0.2867
      9  CB        30.6440  146.8000   32.2140 C.3   114  TYR114      0.0534
     10  CG        30.2200  146.9380   33.6580 C.ar  114  TYR114     -0.0201
     11  CD1       31.0750  147.5070   34.6070 C.ar  114  TYR114     -0.0009
     12  CD2       28.9130  146.6510   34.0480 C.ar  114  TYR114     -0.0009
     13  CE1       30.6680  147.7000   35.9230 C.ar  114  TYR114      0.0417
     14  CE2       28.4810  146.8780   35.3500 C.ar  114  TYR114      0.0417
     15  CZ        29.3630  147.4110   36.2840 C.ar  114  TYR114      0.1957
     16  OH        28.9200  147.6740   37.5510 O.3   114  TYR114     -0.2866
     17  N         27.0450  149.7160   23.4480 N.3   251  ASP251     -0.1225
     18  CA        28.2750  150.0690   24.1320 C.3   251  ASP251      0.1805
     19  C         28.2230  149.3180   25.4390 C.2   251  ASP251      0.2598
     20  O         27.4050  149.6330   26.3130 O.2   251  ASP251     -0.2718
     21  CB        28.4260  151.5980   24.3430 C.3   251  ASP251      0.1424
     22  CG        29.4860  151.9860   25.3550 C.2   251  ASP251      0.3668
     23  OD1       30.2960  151.1050   25.7500 O.co2 251  ASP251     -0.2456
     24  OD2       29.4680  153.1460   25.8100 O.co2 251  ASP251     -0.2456
     25  N         29.0580  148.2880   25.5470 N.am  252  LEU252     -0.1966
     26  CA        29.0740  147.4080   26.7140 C.3   252  LEU252      0.1728
     27  C         30.0230  147.8260   27.8300 C.2   252  LEU252      0.2616
     28  O         30.2600  147.0560   28.7690 O.2   252  LEU252     -0.2715
     29  CB        29.2850  145.9470   26.2920 C.3   252  LEU252      0.0311
     30  CG        28.3090  145.3980   25.2160 C.3   252  LEU252      0.0022
     31  CD1       28.5810  143.8970   24.9620 C.3   252  LEU252      0.0001
     32  CD2       26.8090  145.6360   25.6150 C.3   252  LEU252      0.0001
     33  N         30.5220  149.0650   27.7490 N.am  253  GLY253     -0.1955
     34  CA        31.3590  149.6030   28.8160 C.3   253  GLY253      0.1869
     35  C         32.6950  148.9240   29.0440 C.2   253  GLY253      0.2309
     36  O         33.2920  148.3430   28.1270 O.2   253  GLY253     -0.2863
     37  N         20.3430  149.4640   38.1840 N.3   295  LYS295     -0.1245
     38  CA        21.3920  148.8440   39.0060 C.3   295  LYS295      0.1561
     39  C         21.9310  149.7780   40.0770 C.2   295  LYS295      0.2260
     40  O         22.2830  149.3190   41.1680 O.2   295  LYS295     -0.2867
     41  CB        22.5960  148.4330   38.1300 C.3   295  LYS295      0.0271
     42  CG        22.2670  147.3880   37.0520 C.3   295  LYS295      0.0035
     43  CD        23.5330  146.8710   36.3970 C.3   295  LYS295      0.0206
     44  CE        24.2790  147.8840   35.5510 C.3   295  LYS295      0.1093
     45  NZ        23.4110  148.4470   34.4730 N.3   295  LYS295     -0.1314
     46  N         21.1900  152.8200   30.5120 N.3   350  LYS350     -0.1231
     47  CA        21.9900  151.6490   30.8640 C.3   350  LYS350      0.1693
     48  C         23.4870  151.8460   30.5910 C.2   350  LYS350      0.2591
     49  O         24.3080  151.6170   31.4720 O.2   350  LYS350     -0.2718
     50  CB        21.4920  150.4030   30.0950 C.3   350  LYS350      0.0285
     51  CG        22.4610  149.2060   30.2090 C.3   350  LYS350      0.0035
     52  CD        22.1180  147.9730   29.3120 C.3   350  LYS350      0.0206
     53  CE        23.1100  146.8400   29.4920 C.3   350  LYS350      0.1093
     54  NZ        24.4320  147.1250   28.8310 N.3   350  LYS350     -0.1314
     55  N         23.8160  152.2570   29.3720 N.am  351  GLU351     -0.1979
     56  CA        25.1990  152.3740   28.8920 C.3   351  GLU351      0.1602
     57  C         26.0160  153.4750   29.5110 C.2   351  GLU351      0.2287
     58  O         27.2030  153.2840   29.7750 O.2   351  GLU351     -0.2864
     59  CB        25.2330  152.4940   27.3660 C.3   351  GLU351      0.0415
     60  CG        24.6590  151.2300   26.7200 C.3   351  GLU351      0.1163
     61  CD        24.6540  151.1990   25.2050 C.2   351  GLU351      0.3649
     62  OE1       24.8540  152.2630   24.5780 O.co2 351  GLU351     -0.2457
     63  OE2       24.4170  150.1060   24.6420 O.co2 351  GLU351     -0.2457
     64  N         23.7910  154.5040   34.3140 N.3   354  ASP354     -0.1225
     65  CA        23.6230  153.4990   35.3920 C.3   354  ASP354      0.1805
     66  C         24.9670  152.9090   35.8190 C.2   354  ASP354      0.2598
     67  O         25.2070  151.6970   35.7040 O.2   354  ASP354     -0.2718
     68  CB        22.6320  152.4100   34.9070 C.3   354  ASP354      0.1424
     69  CG        22.0140  151.5790   36.0040 C.2   354  ASP354      0.3668
     70  OD1       22.1230  151.9780   37.1920 O.co2 354  ASP354     -0.2456
     71  OD2       21.4450  150.5080   35.6870 O.co2 354  ASP354     -0.2456
     72  N         25.8840  153.7850   36.2880 N.am  355  THR355     -0.1953
     73  CA        27.2290  153.3770   36.6840 C.3   355  THR355      0.1897
     74  C         27.5400  153.9480   38.0510 C.2   355  THR355      0.2313
     75  O         26.8980  154.9270   38.4880 O.2   355  THR355     -0.2863
     76  CB        28.2650  153.9340   35.6850 C.3   355  THR355      0.1794
     77  OG1       28.1530  155.3670   35.6970 O.3   355  THR355     -0.2208
     78  CG2       28.0830  153.3960   34.2590 C.3   355  THR355      0.0378
@<TRIPOS>BOND
     1    17    18    1
     2    18    21    1
     3    18    19    1
     4    21    22    1
     5    62    61   ar
     6    63    61   ar
     7    31    30    1
     8    61    60    1
     9    30    32    1
    10    30    29    1
    11    22    23   ar
    12    22    24   ar
    13    19    25   am
    14    19    20    2
    15    25    26    1
    16    29    26    1
    17    26    27    1
    18    60    59    1
    19    59    56    1
    20    33    27   am
    21    33    34    1
    22    27    28    2
    23    36    35    2
    24    34    35    1
    25    54    53    1
    26    56    55    1
    27    56    57    1
    28    52    53    1
    29    52    51    1
    30    55    48   am
    31    57    58    2
    32    50    51    1
    33    50    47    1
    34    46    47    1
    35    48    47    1
    36    48    49    2
    37     5     6    1
    38     8     7    2
    39     6     9    1
    40     6     7    1
    41     1     2    1
    42     9    10    1
    43     2     3    1
    44     3     4    2
    45    10    12   ar
    46    10    11   ar
    47    12    14   ar
    48    78    76    1
    49    64    65    1
    50    45    44    1
    51    11    13   ar
    52    68    65    1
    53    68    69    1
    54    14    15   ar
    55    65    66    1
    56    44    43    1
    57    76    77    1
    58    76    73    1
    59    71    69   ar
    60    67    66    2
    61    66    72   am
    62    13    15   ar
    63    69    70   ar
    64    15    16    1
    65    72    73    1
    66    43    42    1
    67    73    74    1
    68    42    41    1
    69    74    75    2
    70    41    38    1
    71    37    38    1
    72    38    39    1
    73    39    40    2
