@<TRIPOS>MOLECULE
tmp/5jk0B00.pdb
 86 82 0 0 0
SMALL
GASTEIGER

@<TRIPOS>ATOM
      1  N         11.0200  -47.0010  -16.9100 N.3     3  HIS3       -0.1241
      2  CA        10.2300  -47.7650  -15.9520 C.3     3  HIS3        0.1621
      3  C          9.0070  -48.3710  -16.6270 C.2     3  HIS3        0.2264
      4  O          8.4990  -47.8160  -17.5990 O.2     3  HIS3       -0.2867
      5  CB         9.7850  -46.8760  -14.7870 C.3     3  HIS3        0.0745
      6  CG        10.8530  -45.9590  -14.2800 C.ar    3  HIS3        0.0817
      7  ND1       11.7630  -46.3360  -13.3160 N.ar    3  HIS3       -0.2268
      8  CD2       11.1540  -44.6780  -14.6010 C.ar    3  HIS3        0.1154
      9  CE1       12.5790  -45.3270  -13.0660 C.ar    3  HIS3        0.1986
     10  NE2       12.2320  -44.3100  -13.8330 N.ar    3  HIS3       -0.2212
     11  N          3.2590  -41.2730   -9.4620 N.3    17  LEU17      -0.1245
     12  CA         4.6320  -41.6690   -9.7350 C.3    17  LEU17       0.1561
     13  C          5.1340  -41.0400  -11.0330 C.2    17  LEU17       0.2260
     14  O          6.2430  -40.5070  -11.0850 O.2    17  LEU17      -0.2867
     15  CB         4.7390  -43.1950   -9.8060 C.3    17  LEU17       0.0270
     16  CG         6.1090  -43.8200   -9.5440 C.3    17  LEU17       0.0019
     17  CD1        6.5620  -43.5290   -8.1200 C.3    17  LEU17       0.0001
     18  CD2        6.0650  -45.3210   -9.7970 C.3    17  LEU17       0.0001
     19  N          5.3450  -37.1140  -10.8210 N.3    20  GLY20      -0.1210
     20  CA         6.5500  -36.7190  -10.1150 C.3    20  GLY20       0.1956
     21  C          7.7860  -36.7740  -10.9920 C.2    20  GLY20       0.2611
     22  O          8.6660  -35.9180  -10.8970 O.2    20  GLY20      -0.2717
     23  N          7.8510  -37.7860  -11.8520 N.am   21  ARG21      -0.1979
     24  CA         8.9670  -37.9400  -12.7780 C.3    21  ARG21       0.1597
     25  C          8.9740  -36.8240  -13.8170 C.2    21  ARG21       0.2287
     26  O         10.0280  -36.2880  -14.1610 O.2    21  ARG21      -0.2864
     27  CB         8.9040  -39.3040  -13.4690 C.3    21  ARG21       0.0334
     28  CG         9.1520  -40.4790  -12.5400 C.3    21  ARG21       0.0492
     29  CD         8.7540  -41.7940  -13.1870 C.3    21  ARG21       0.2205
     30  NE         9.0460  -42.9330  -12.3220 N.pl3  21  ARG21      -0.0865
     31  CZ         8.5270  -44.1460  -12.4820 C.cat  21  ARG21       0.5346
     32  NH1        7.6790  -44.3810  -13.4740 N.pl3  21  ARG21       0.1354
     33  NH2        8.8520  -45.1220  -11.6440 N.pl3  21  ARG21       0.1354
     34  N          9.9900  -33.4700  -12.2040 N.3    24  ARG24      -0.1245
     35  CA        11.4250  -33.4460  -11.9440 C.3    24  ARG24       0.1563
     36  C         12.1800  -33.1070  -13.2230 C.2    24  ARG24       0.2260
     37  O         13.1430  -32.3370  -13.2070 O.2    24  ARG24      -0.2867
     38  CB        11.9120  -34.7880  -11.3950 C.3    24  ARG24       0.0307
     39  CG        13.3980  -34.7960  -11.0640 C.3    24  ARG24       0.0489
     40  CD        14.0000  -36.1840  -11.1820 C.3    24  ARG24       0.2205
     41  NE        13.8590  -36.7280  -12.5300 N.pl3  24  ARG24      -0.0865
     42  CZ        14.6850  -36.4620  -13.5380 C.cat  24  ARG24       0.5346
     43  NH1       15.7200  -35.6510  -13.3570 N.pl3  24  ARG24       0.1354
     44  NH2       14.4750  -37.0050  -14.7300 N.pl3  24  ARG24       0.1354
     45  N         12.2350  -34.5170   -5.4430 N.3    48  LEU48      -0.1231
     46  CA        11.5620  -35.0000   -6.6440 C.3    48  LEU48       0.1693
     47  C         12.2080  -36.2680   -7.1960 C.2    48  LEU48       0.2592
     48  O         11.7160  -36.8500   -8.1630 O.2    48  LEU48      -0.2718
     49  CB        11.5480  -33.9160   -7.7240 C.3    48  LEU48       0.0284
     50  CG        10.6130  -32.7290   -7.4890 C.3    48  LEU48       0.0019
     51  CD1       10.7880  -31.6810   -8.5790 C.3    48  LEU48       0.0001
     52  CD2        9.1720  -33.2020   -7.4260 C.3    48  LEU48       0.0001
     53  N         13.3090  -36.6930   -6.5850 N.am   49  ASN49      -0.1960
     54  CA        13.9960  -37.9050   -7.0180 C.3    49  ASN49       0.1819
     55  C         13.4620  -39.1570   -6.3290 C.2    49  ASN49       0.2621
     56  O         14.0830  -40.2180   -6.3840 O.2    49  ASN49      -0.2715
     57  CB        15.5010  -37.7860   -6.7760 C.3    49  ASN49       0.1195
     58  CG        16.2810  -37.5920   -8.0610 C.2    49  ASN49       0.2630
     59  OD1       16.5210  -38.5450   -8.8030 O.2    49  ASN49      -0.2716
     60  ND2       16.6820  -36.3540   -8.3310 N.am   49  ASN49      -0.0877
     61  N         12.3120  -39.0250   -5.6770 N.am   50  GLN50      -0.1963
     62  CA        11.6550  -40.1620   -5.0450 C.3    50  GLN50       0.1733
     63  C         10.1400  -40.0040   -5.1070 C.2    50  GLN50       0.2616
     64  O          9.6340  -38.9760   -5.5570 O.2    50  GLN50      -0.2715
     65  CB        12.1150  -40.3190   -3.5940 C.3    50  GLN50       0.0408
     66  CG        11.6530  -39.2130   -2.6610 C.3    50  GLN50       0.0908
     67  CD        12.0840  -39.4500   -1.2250 C.2    50  GLN50       0.2608
     68  OE1       11.4660  -38.9460   -0.2870 O.2    50  GLN50      -0.2717
     69  NE2       13.1500  -40.2210   -1.0480 N.am   50  GLN50      -0.0878
     70  N          9.4210  -41.0280   -4.6610 N.am   51  ALA51      -0.1977
     71  CA         7.9630  -41.0040   -4.6840 C.3    51  ALA51       0.1597
     72  C          7.4250  -39.9170   -3.7610 C.2    51  ALA51       0.2287
     73  O          7.8340  -39.8140   -2.6050 O.2    51  ALA51      -0.2864
     74  CB         7.4020  -42.3640   -4.2900 C.3    51  ALA51       0.0319
     75  N          5.5680  -37.5000  -22.3900 N.3   134  TYR134     -0.1241
     76  CA         6.6920  -37.9340  -21.5720 C.3   134  TYR134      0.1605
     77  C          6.5700  -39.4160  -21.2320 C.2   134  TYR134      0.2264
     78  O          7.5320  -40.1720  -21.3620 O.2   134  TYR134     -0.2867
     79  CB         6.7720  -37.0970  -20.2900 C.3   134  TYR134      0.0534
     80  CG         7.8710  -37.5160  -19.3380 C.ar  134  TYR134     -0.0201
     81  CD1        9.1490  -36.9790  -19.4420 C.ar  134  TYR134     -0.0009
     82  CD2        7.6310  -38.4480  -18.3330 C.ar  134  TYR134     -0.0009
     83  CE1       10.1580  -37.3610  -18.5750 C.ar  134  TYR134      0.0417
     84  CE2        8.6310  -38.8370  -17.4650 C.ar  134  TYR134      0.0417
     85  CZ         9.8920  -38.2900  -17.5900 C.ar  134  TYR134      0.1957
     86  OH        10.8900  -38.6750  -16.7250 O.3   134  TYR134     -0.2866
@<TRIPOS>BOND
     1    75    76    1
     2    76    77    1
     3    76    79    1
     4    78    77    2
     5    79    80    1
     6    81    80   ar
     7    81    83   ar
     8    80    82   ar
     9    83    85   ar
    10    82    84   ar
    11     4     3    2
    12    85    84   ar
    13    85    86    1
    14     1     2    1
    15     3     2    1
    16     2     5    1
    17     5     6    1
    18    44    42    1
    19     8     6   ar
    20     8    10   ar
    21     6     7   ar
    22    26    25    2
    23    10     9   ar
    24    25    24    1
    25    42    43    1
    26    42    41    2
    27    32    31    1
    28    27    24    1
    29    27    28    1
    30     7     9   ar
    31    36    37    2
    32    36    35    1
    33    29    28    1
    34    29    30    1
    35    24    23    1
    36    41    40    1
    37    31    30    2
    38    31    33    1
    39    34    35    1
    40    35    38    1
    41    23    21   am
    42    38    39    1
    43    40    39    1
    44    14    13    2
    45    13    12    1
    46    21    22    2
    47    21    20    1
    48    19    20    1
    49    15    12    1
    50    15    16    1
    51    18    16    1
    52    12    11    1
    53    16    17    1
    54    59    58    2
    55    51    50    1
    56    60    58   am
    57    48    47    2
    58    58    57    1
    59    49    50    1
    60    49    46    1
    61    50    52    1
    62    47    46    1
    63    47    53   am
    64    54    57    1
    65    54    53    1
    66    54    55    1
    67    46    45    1
    68    56    55    2
    69    55    61   am
    70    61    62    1
    71    64    63    2
    72    63    62    1
    73    63    70   am
    74    62    65    1
    75    71    70    1
    76    71    74    1
    77    71    72    1
    78    72    73    2
    79    65    66    1
    80    66    67    1
    81    67    69   am
    82    67    68    2
