@<TRIPOS>MOLECULE
tmp/5jk3A00.pdb
 152 144 0 0 0
SMALL
GASTEIGER

@<TRIPOS>ATOM
      1  N        -19.6210  -54.1620  -13.6980 N.3    12  VAL12      -0.1231
      2  CA       -19.5920  -53.5450  -15.0150 C.3    12  VAL12       0.1692
      3  C        -18.9530  -54.4560  -16.0560 C.2    12  VAL12       0.2593
      4  O        -19.4700  -54.5850  -17.1680 O.2    12  VAL12      -0.2718
      5  CB       -18.8730  -52.1780  -14.9670 C.3    12  VAL12       0.0266
      6  CG1      -19.6950  -51.1770  -14.1720 C.3    12  VAL12       0.0020
      7  CG2      -17.4740  -52.3150  -14.3750 C.3    12  VAL12       0.0020
      8  N        -17.8380  -55.0920  -15.7250 N.am   13  GLY13      -0.1942
      9  CA       -17.1480  -55.9070  -16.7030 C.3    13  GLY13       0.2014
     10  C        -16.1090  -56.7930  -16.0550 C.2    13  GLY13       0.2638
     11  O        -15.9940  -56.8590  -14.8300 O.2    13  GLY13      -0.2714
     12  N        -15.3480  -57.4740  -16.9070 N.am   14  ARG14      -0.1977
     13  CA       -14.3410  -58.4280  -16.4560 C.3    14  ARG14       0.1597
     14  C        -12.9720  -58.0730  -17.0250 C.2    14  ARG14       0.2287
     15  O        -12.8500  -57.7180  -18.1980 O.2    14  ARG14      -0.2864
     16  CB       -14.7310  -59.8510  -16.8680 C.3    14  ARG14       0.0334
     17  CG       -16.1300  -60.2640  -16.4280 C.3    14  ARG14       0.0492
     18  CD       -16.0880  -61.3160  -15.3350 C.3    14  ARG14       0.2205
     19  NE       -17.3990  -61.5050  -14.7180 N.pl3  14  ARG14      -0.0865
     20  CZ       -17.5950  -62.0120  -13.5040 C.cat  14  ARG14       0.5346
     21  NH1      -16.5650  -62.3800  -12.7530 N.pl3  14  ARG14       0.1354
     22  NH2      -18.8280  -62.1430  -13.0350 N.pl3  14  ARG14       0.1354
     23  N        -13.8960  -56.2800  -11.5280 N.3    15  VAL15      -0.1245
     24  CA       -14.0800  -54.8500  -11.7390 C.3    15  VAL15       0.1561
     25  C        -15.5610  -54.5070  -11.6500 C.2    15  VAL15       0.2260
     26  O        -16.3740  -55.0180  -12.4190 O.2    15  VAL15      -0.2867
     27  CB       -13.4980  -54.4070  -13.0940 C.3    15  VAL15       0.0252
     28  CG1      -13.5880  -52.8940  -13.2430 C.3    15  VAL15       0.0019
     29  CG2      -12.0550  -54.8770  -13.2340 C.3    15  VAL15       0.0019
     30  N        -14.5530  -48.4510  -10.8500 N.3    18  ALA18      -0.1245
     31  CA       -13.7130  -47.5900  -10.0290 C.3    18  ALA18       0.1562
     32  C        -12.8680  -48.3970   -9.0520 C.2    18  ALA18       0.2260
     33  O        -11.9650  -47.8550   -8.4250 O.2    18  ALA18      -0.2867
     34  CB       -14.5700  -46.5900   -9.2660 C.3    18  ALA18       0.0290
     35  N        -11.9630  -52.4390   -9.2400 N.3    20  LYS20      -0.1245
     36  CA       -11.1040  -53.5640   -9.5990 C.3    20  LYS20       0.1561
     37  C        -11.0120  -54.4860   -8.3910 C.2    20  LYS20       0.2260
     38  O        -11.6060  -54.1920   -7.3520 O.2    20  LYS20      -0.2867
     39  CB        -9.7200  -53.0840  -10.0420 C.3    20  LYS20       0.0271
     40  CG        -8.9410  -54.0830  -10.8790 C.3    20  LYS20       0.0035
     41  CD        -8.6650  -53.5500  -12.2760 C.3    20  LYS20       0.0206
     42  CE        -7.3440  -54.0610  -12.8150 C.3    20  LYS20       0.1093
     43  NZ        -7.0820  -53.5490  -14.1870 N.3    20  LYS20      -0.1314
     44  N         -5.9050  -42.5170  -16.2950 N.3    46  VAL46      -0.1245
     45  CA        -6.9310  -42.7500  -15.2860 C.3    46  VAL46       0.1561
     46  C         -6.4200  -42.3370  -13.9140 C.2    46  VAL46       0.2260
     47  O         -5.2670  -42.5990  -13.5450 O.2    46  VAL46      -0.2867
     48  CB        -7.3790  -44.2210  -15.2880 C.3    46  VAL46       0.0252
     49  CG1       -8.1200  -44.5430  -16.5730 C.3    46  VAL46       0.0019
     50  CG2       -6.1900  -45.1550  -15.0860 C.3    46  VAL46       0.0019
     51  N        -10.0940  -46.4430   -8.7160 N.3    56  MET56      -0.1230
     52  CA        -9.9460  -45.5180   -9.8290 C.3    56  MET56       0.1702
     53  C        -11.1800  -44.6240   -9.9310 C.2    56  MET56       0.2592
     54  O        -12.1460  -44.7630   -9.1780 O.2    56  MET56      -0.2718
     55  CB        -9.7220  -46.2780  -11.1370 C.3    56  MET56       0.0401
     56  CG        -8.2960  -46.7660  -11.3440 C.3    56  MET56       0.0596
     57  SD        -7.8670  -48.1770  -10.3110 S.3    56  MET56      -0.1393
     58  CE        -8.8430  -49.4670  -11.0800 C.3    56  MET56       0.0692
     59  N        -11.1450  -43.6840  -10.8720 N.am   57  GLU57      -0.1966
     60  CA       -12.3060  -42.8540  -11.1570 C.3    57  GLU57       0.1733
     61  C        -13.2230  -43.5690  -12.1400 C.2    57  GLU57       0.2616
     62  O        -12.7670  -44.1370  -13.1360 O.2    57  GLU57      -0.2715
     63  CB       -11.8760  -41.5000  -11.7250 C.3    57  GLU57       0.0429
     64  CG       -11.1330  -41.5830  -13.0520 C.3    57  GLU57       0.1163
     65  CD       -10.6360  -40.2300  -13.5290 C.2    57  GLU57       0.3649
     66  OE1      -11.3600  -39.2290  -13.3430 O.co2  57  GLU57      -0.2457
     67  OE2       -9.5190  -40.1690  -14.0860 O.co2  57  GLU57      -0.2457
     68  N        -14.5210  -43.5420  -11.8540 N.am   58  TYR58      -0.1960
     69  CA       -15.4980  -44.2490  -12.6750 C.3    58  TYR58       0.1771
     70  C        -15.8230  -43.4110  -13.9050 C.2    58  TYR58       0.2619
     71  O        -16.5390  -42.4080  -13.8120 O.2    58  TYR58      -0.2715
     72  CB       -16.7600  -44.5500  -11.8750 C.3    58  TYR58       0.0574
     73  CG       -17.8450  -45.1950  -12.7040 C.ar   58  TYR58      -0.0198
     74  CD1      -17.7270  -46.5110  -13.1310 C.ar   58  TYR58      -0.0009
     75  CD2      -18.9830  -44.4870  -13.0650 C.ar   58  TYR58      -0.0009
     76  CE1      -18.7140  -47.1050  -13.8930 C.ar   58  TYR58       0.0417
     77  CE2      -19.9760  -45.0730  -13.8260 C.ar   58  TYR58       0.0417
     78  CZ       -19.8360  -46.3820  -14.2370 C.ar   58  TYR58       0.1957
     79  OH       -20.8230  -46.9700  -14.9960 O.3    58  TYR58      -0.2866
     80  N        -15.3020  -43.8220  -15.0580 N.am   59  ALA59      -0.1963
     81  CA       -15.6190  -43.1730  -16.3260 C.3    59  ALA59       0.1728
     82  C        -16.9730  -43.6790  -16.8060 C.2    59  ALA59       0.2616
     83  O        -17.0960  -44.8280  -17.2410 O.2    59  ALA59      -0.2715
     84  CB       -14.5290  -43.4520  -17.3570 C.3    59  ALA59       0.0334
     85  N        -17.9940  -42.8220  -16.7290 N.am   60  GLU60      -0.1963
     86  CA       -19.3450  -43.2490  -17.0770 C.3    60  GLU60       0.1733
     87  C        -19.4690  -43.5770  -18.5600 C.2    60  GLU60       0.2617
     88  O        -20.2920  -44.4190  -18.9390 O.2    60  GLU60      -0.2715
     89  CB       -20.3520  -42.1670  -16.6870 C.3    60  GLU60       0.0429
     90  CG       -21.8010  -42.6330  -16.7080 C.3    60  GLU60       0.1163
     91  CD       -22.7570  -41.5990  -16.1430 C.2    60  GLU60       0.3649
     92  OE1      -22.3830  -40.4080  -16.0870 O.co2  60  GLU60      -0.2457
     93  OE2      -23.8810  -41.9780  -15.7500 O.co2  60  GLU60      -0.2457
     94  N        -18.6670  -42.9320  -19.4090 N.am   61  GLY61      -0.1940
     95  CA       -18.7770  -43.1600  -20.8400 C.3    61  GLY61       0.2014
     96  C        -18.3450  -44.5480  -21.2660 C.2    61  GLY61       0.2639
     97  O        -18.8150  -45.0620  -22.2850 O.2    61  GLY61      -0.2714
     98  N        -17.4550  -45.1740  -20.5030 N.am   62  GLY62      -0.1939
     99  CA       -16.9440  -46.4750  -20.8760 C.3    62  GLY62       0.2014
    100  C        -15.7760  -46.3650  -21.8410 C.2    62  GLY62       0.2639
    101  O        -15.1520  -45.3110  -22.0030 O.2    62  GLY62      -0.2714
    102  N        -15.4860  -47.4830  -22.4980 N.am   63  SER63      -0.1949
    103  CA       -14.3430  -47.5570  -23.3950 C.3    63  SER63       0.1924
    104  C        -14.6380  -46.8570  -24.7160 C.2    63  SER63       0.2314
    105  O        -15.7900  -46.7320  -25.1400 O.2    63  SER63      -0.2863
    106  CB       -13.9660  -49.0120  -23.6660 C.3    63  SER63       0.2116
    107  OG       -14.9460  -49.6430  -24.4710 O.3    63  SER63      -0.2180
    108  N        -16.3510  -49.2570  -26.9490 N.3    66  ASN66      -0.1240
    109  CA       -17.7940  -49.3710  -26.7940 C.3    66  ASN66       0.1653
    110  C        -18.5170  -48.2220  -27.4880 C.2    66  ASN66       0.2266
    111  O        -19.6130  -48.4030  -28.0360 O.2    66  ASN66      -0.2867
    112  CB       -18.0980  -49.4220  -25.2970 C.3    66  ASN66       0.1155
    113  CG       -19.5030  -49.8650  -25.0000 C.2    66  ASN66       0.2627
    114  OD1      -20.0420  -49.5240  -23.9590 O.2    66  ASN66      -0.2716
    115  ND2      -20.1190  -50.5920  -25.9250 N.am   66  ASN66      -0.0877
    116  N        -10.1860  -50.5040  -26.4030 N.3   112  PRO112     -0.2102
    117  CA       -10.7520  -51.1010  -25.1800 C.3   112  PRO112      0.1504
    118  C        -10.0870  -50.6270  -23.8970 C.2   112  PRO112      0.2575
    119  O        -10.6920  -50.7560  -22.8240 O.2   112  PRO112     -0.2718
    120  CB       -10.5490  -52.6060  -25.3970 C.3   112  PRO112      0.0282
    121  CG       -10.5750  -52.7660  -26.8660 C.3   112  PRO112      0.0208
    122  CD        -9.9020  -51.5370  -27.4160 C.3   112  PRO112      0.0893
    123  N         -8.8740  -50.0790  -23.9660 N.am  113  ASN113     -0.1975
    124  CA        -8.1820  -49.5610  -22.7930 C.3   113  ASN113      0.1688
    125  C         -8.2160  -48.0420  -22.7200 C.2   113  ASN113      0.2292
    126  O         -7.5580  -47.4580  -21.8540 O.2   113  ASN113     -0.2864
    127  CB        -6.7300  -50.0460  -22.7720 C.3   113  ASN113      0.1181
    128  CG        -6.6120  -51.5630  -22.6800 C.2   113  ASN113      0.2629
    129  OD1       -5.7090  -52.1560  -23.2660 O.2   113  ASN113     -0.2716
    130  ND2       -7.5200  -52.1940  -21.9410 N.am  113  ASN113     -0.0877
    131  N        -10.5760  -44.9430  -21.9720 N.3   115  LEU115     -0.1245
    132  CA       -11.8500  -44.5210  -21.4150 C.3   115  LEU115      0.1561
    133  C        -12.1910  -43.1100  -21.8810 C.2   115  LEU115      0.2260
    134  O        -11.3340  -42.3580  -22.3510 O.2   115  LEU115     -0.2867
    135  CB       -11.8170  -44.5670  -19.8880 C.3   115  LEU115      0.0270
    136  CG       -11.4920  -45.9220  -19.2570 C.3   115  LEU115      0.0019
    137  CD1      -11.2740  -45.7580  -17.7660 C.3   115  LEU115      0.0001
    138  CD2      -12.5980  -46.9270  -19.5280 C.3   115  LEU115      0.0001
    139  N         -5.8940  -46.2500  -19.7710 N.3   126  CYS126     -0.1221
    140  CA        -6.0700  -47.1770  -18.6570 C.3   126  CYS126      0.1808
    141  C         -5.1630  -48.3800  -18.8740 C.2   126  CYS126      0.2601
    142  O         -5.4160  -49.1990  -19.7640 O.2   126  CYS126     -0.2717
    143  CB        -7.5280  -47.6130  -18.5420 C.3   126  CYS126      0.0970
    144  SG        -7.7800  -49.0490  -17.4720 S.3   126  CYS126     -0.0800
    145  N         -4.1160  -48.4920  -18.0630 N.am  127  ASP127     -0.1973
    146  CA        -3.1790  -49.6060  -18.1770 C.3   127  ASP127      0.1709
    147  C         -3.7900  -50.8930  -17.6310 C.2   127  ASP127      0.2293
    148  O         -4.6190  -50.8630  -16.7220 O.2   127  ASP127     -0.2864
    149  CB        -1.8750  -49.2910  -17.4370 C.3   127  ASP127      0.1436
    150  CG        -1.1720  -48.0620  -17.9870 C.2   127  ASP127      0.3671
    151  OD1        0.0540  -48.1250  -18.2110 O.co2 127  ASP127     -0.2456
    152  OD2       -1.8430  -47.0280  -18.1890 O.co2 127  ASP127     -0.2456
@<TRIPOS>BOND
     1   111   110    2
     2   110   109    1
     3   122   121    1
     4   122   116    1
     5   108   109    1
     6   121   120    1
     7   109   112    1
     8   116   117    1
     9   115   113   am
    10   120   117    1
    11   112   113    1
    12   117   118    1
    13   105   104    2
    14   113   114    2
    15   104   103    1
    16   107   106    1
    17   123   118   am
    18   123   124    1
    19   118   119    2
    20   106   103    1
    21   103   102    1
    22   129   128    2
    23   124   127    1
    24   124   125    1
    25   127   128    1
    26   125   126    2
    27   128   130   am
    28   102   100   am
    29   134   133    2
    30    97    96    2
    31   101   100    2
    32   131   132    1
    33   133   132    1
    34   100    99    1
    35   132   135    1
    36    96    95    1
    37    96    98   am
    38    99    98    1
    39    95    94    1
    40   135   136    1
    41   139   140    1
    42   142   141    2
    43   138   136    1
    44    94    87   am
    45   136   137    1
    46    88    87    2
    47   141   140    1
    48   141   145   am
    49   140   143    1
    50    87    86    1
    51   143   144    1
    52   151   150   ar
    53    15    14    2
    54   152   150   ar
    55   146   145    1
    56   146   147    1
    57   146   149    1
    58   150   149    1
    59   147   148    2
    60    84    81    1
    61    83    82    2
    62     4     3    2
    63    86    85    1
    64    86    89    1
    65    14    13    1
    66    12    13    1
    67    12    10   am
    68    16    13    1
    69    16    17    1
    70    82    85   am
    71    82    81    1
    72    90    89    1
    73    90    91    1
    74     9    10    1
    75     9     8    1
    76    49    48    1
    77    17    18    1
    78    81    80    1
    79    44    45    1
    80    91    92   ar
    81    91    93   ar
    82     3     8   am
    83     3     2    1
    84    10    11    2
    85    18    19    1
    86    48    45    1
    87    48    50    1
    88    45    46    1
    89    80    70   am
    90     2     5    1
    91     2     1    1
    92    79    78    1
    93     5     7    1
    94     5     6    1
    95    19    20    2
    96    78    76   ar
    97    78    77   ar
    98    43    42    1
    99    67    65   ar
   100    46    47    2
   101    70    71    2
   102    70    69    1
   103    76    74   ar
   104    77    75   ar
   105    65    66   ar
   106    65    64    1
   107    20    22    1
   108    20    21    1
   109    28    27    1
   110    29    27    1
   111    62    61    2
   112    74    73   ar
   113    27    24    1
   114    75    73   ar
   115    64    63    1
   116    42    41    1
   117    73    72    1
   118    69    72    1
   119    69    68    1
   120    26    25    2
   121    41    40    1
   122    61    68   am
   123    61    60    1
   124    24    25    1
   125    24    23    1
   126    63    60    1
   127    56    55    1
   128    56    57    1
   129    60    59    1
   130    55    52    1
   131    58    57    1
   132    40    39    1
   133    59    53   am
   134    30    31    1
   135    39    36    1
   136    31    34    1
   137    31    32    1
   138    53    52    1
   139    53    54    2
   140    52    51    1
   141    36    35    1
   142    36    37    1
   143    32    33    2
   144    37    38    2
