@<TRIPOS>MOLECULE
tmp/5jk5A00.pdb
 85 78 0 0 0
SMALL
GASTEIGER

@<TRIPOS>ATOM
      1  N         32.8490   -5.8670   25.3390 N.3   211  CYS211     -0.1221
      2  CA        32.4380   -7.0900   24.6560 C.3   211  CYS211      0.1808
      3  C         33.5690   -7.7500   23.8730 C.2   211  CYS211      0.2601
      4  O         33.7720   -8.9570   23.9730 O.2   211  CYS211     -0.2717
      5  CB        31.2840   -6.8150   23.6900 C.3   211  CYS211      0.0970
      6  SG        29.7140   -6.5010   24.4660 S.3   211  CYS211     -0.0800
      7  N         34.2680   -6.9630   23.0600 N.am  212  THR212     -0.1953
      8  CA        35.2350   -7.5090   22.1110 C.3   212  THR212      0.1897
      9  C         36.5080   -6.6880   21.9830 C.2   212  THR212      0.2313
     10  O         37.3490   -6.9890   21.1460 O.2   212  THR212     -0.2863
     11  CB        34.6460   -7.6050   20.6940 C.3   212  THR212      0.1794
     12  OG1       34.2670   -6.2910   20.2490 O.3   212  THR212     -0.2208
     13  CG2       33.4460   -8.5760   20.6500 C.3   212  THR212      0.0378
     14  N         41.4630   -2.7370   16.0820 N.3   235  ARG235     -0.1245
     15  CA        40.0730   -2.8640   16.5300 C.3   235  ARG235      0.1563
     16  C         39.4590   -1.4860   16.7620 C.2   235  ARG235      0.2260
     17  O         38.7340   -1.2590   17.7250 O.2   235  ARG235     -0.2867
     18  CB        39.9920   -3.7350   17.7830 C.3   235  ARG235      0.0307
     19  CG        40.5480   -5.1780   17.5360 C.3   235  ARG235      0.0489
     20  CD        40.7040   -6.0170   18.8030 C.3   235  ARG235      0.2205
     21  NE        39.5260   -6.8130   19.1230 N.pl3 235  ARG235     -0.0865
     22  CZ        39.3150   -8.0680   18.7170 C.cat 235  ARG235      0.5346
     23  NH1       40.2050   -8.7040   17.9560 N.pl3 235  ARG235      0.1354
     24  NH2       38.1970   -8.6920   19.0760 N.pl3 235  ARG235      0.1354
     25  N         32.4130  -11.7890   19.1910 N.3   271  PRO271     -0.2116
     26  CA        33.8570  -12.0700   19.2090 C.3   271  PRO271      0.1372
     27  C         34.4270  -12.6180   17.8920 C.2   271  PRO271      0.2244
     28  O         35.4750  -12.1520   17.4610 O.2   271  PRO271     -0.2868
     29  CB        33.9880  -13.1020   20.3320 C.3   271  PRO271      0.0268
     30  CG        32.9100  -12.7220   21.2770 C.3   271  PRO271      0.0207
     31  CD        31.7500  -12.2860   20.4080 C.3   271  PRO271      0.0892
     32  N         37.0240  -10.6150   15.5430 N.3   275  ASP275     -0.1239
     33  CA        38.3330  -11.1250   15.1590 C.3   275  ASP275      0.1674
     34  C         38.4920  -11.1460   13.6410 C.2   275  ASP275      0.2266
     35  O         39.5500  -10.8110   13.1120 O.2   275  ASP275     -0.2867
     36  CB        38.5510  -12.5250   15.7320 C.3   275  ASP275      0.1410
     37  CG        38.7550  -12.5060   17.2400 C.2   275  ASP275      0.3668
     38  OD1       39.0090  -11.4140   17.7900 O.co2 275  ASP275     -0.2456
     39  OD2       38.6570  -13.5760   17.8610 O.co2 275  ASP275     -0.2456
     40  N         39.1820   -7.6180   12.4810 N.3   278  GLN278     -0.1231
     41  CA        40.5500   -7.1810   12.7740 C.3   278  GLN278      0.1698
     42  C         41.5180   -7.8160   11.7860 C.2   278  GLN278      0.2592
     43  O         42.4530   -7.1610   11.3320 O.2   278  GLN278     -0.2718
     44  CB        40.9790   -7.5180   14.2200 C.3   278  GLN278      0.0381
     45  CG        42.3230   -6.8250   14.5850 C.3   278  GLN278      0.0905
     46  CD        42.9070   -7.2830   15.9100 C.2   278  GLN278      0.2608
     47  OE1       42.4380   -8.2380   16.5030 O.2   278  GLN278     -0.2717
     48  NE2       43.9280   -6.5790   16.3840 N.am  278  GLN278     -0.0878
     49  N         41.2680   -9.0770   11.4300 N.am  279  GLU279     -0.1979
     50  CA        42.1380   -9.8050   10.4990 C.3   279  GLU279      0.1602
     51  C         42.2530   -9.0780    9.1680 C.2   279  GLU279      0.2287
     52  O         43.3290   -9.0220    8.5610 O.2   279  GLU279     -0.2864
     53  CB        41.6170  -11.2250   10.2670 C.3   279  GLU279      0.0415
     54  CG        42.6130  -12.1380    9.5890 C.3   279  GLU279      0.1163
     55  CD        43.7650  -12.4910   10.5130 C.2   279  GLU279      0.3649
     56  OE1       43.5420  -12.5340   11.7430 O.co2 279  GLU279     -0.2457
     57  OE2       44.8860  -12.7150   10.0120 O.co2 279  GLU279     -0.2457
     58  N         44.5690   -6.1820    9.8940 N.3   282  LEU282     -0.1245
     59  CA        45.9540   -6.6080    9.9530 C.3   282  LEU282      0.1561
     60  C         46.5030   -6.9030    8.5570 C.2   282  LEU282      0.2260
     61  O         47.6620   -6.6180    8.2560 O.2   282  LEU282     -0.2867
     62  CB        46.0770   -7.8290   10.8640 C.3   282  LEU282      0.0270
     63  CG        45.7770   -7.5720   12.3460 C.3   282  LEU282      0.0019
     64  CD1       45.5040   -8.8790   13.0770 C.3   282  LEU282      0.0001
     65  CD2       46.9530   -6.8430   12.9730 C.3   282  LEU282      0.0001
     66  N         37.8010  -15.6080    8.7800 N.3   370  LYS370     -0.1245
     67  CA        39.0350  -15.0990    9.3580 C.3   370  LYS370      0.1561
     68  C         40.2380  -15.8930    8.8480 C.2   370  LYS370      0.2260
     69  O         41.2420  -15.3190    8.4080 O.2   370  LYS370     -0.2867
     70  CB        38.9650  -15.1550   10.8870 C.3   370  LYS370      0.0271
     71  CG        40.2300  -14.6820   11.5900 C.3   370  LYS370      0.0035
     72  CD        40.1700  -14.9830   13.0690 C.3   370  LYS370      0.0206
     73  CE        41.1360  -16.0810   13.4410 C.3   370  LYS370      0.1093
     74  NZ        41.0140  -16.4510   14.8790 N.3   370  LYS370     -0.1314
     75  N         43.4020  -14.7930    6.5650 N.3   374  ARG374     -0.1245
     76  CA        44.8010  -14.9130    6.9460 C.3   374  ARG374      0.1563
     77  C         45.5950  -15.5680    5.7990 C.2   374  ARG374      0.2260
     78  O         46.7160  -15.1470    5.4980 O.2   374  ARG374     -0.2867
     79  CB        44.9530  -15.6990    8.2460 C.3   374  ARG374      0.0307
     80  CG        46.3700  -15.6490    8.8090 C.3   374  ARG374      0.0489
     81  CD        46.4290  -16.1970   10.2200 C.3   374  ARG374      0.2205
     82  NE        45.6310  -15.3940   11.1420 N.pl3 374  ARG374     -0.0865
     83  CZ        45.1220  -15.8520   12.2820 C.cat 374  ARG374      0.5346
     84  NH1       45.3230  -17.1140   12.6360 N.pl3 374  ARG374      0.1354
     85  NH2       44.4070  -15.0550   13.0640 N.pl3 374  ARG374      0.1354
@<TRIPOS>BOND
     1    78    77    2
     2    77    76    1
     3    75    76    1
     4    76    79    1
     5    79    80    1
     6    61    60    2
     7    69    68    2
     8    60    59    1
     9    52    51    2
    10    66    67    1
    11    80    81    1
    12    68    67    1
    13    51    50    1
    14    67    70    1
    15    54    53    1
    16    54    55    1
    17    58    59    1
    18    59    62    1
    19    57    55   ar
    20    81    82    1
    21    53    50    1
    22    50    49    1
    23    55    56   ar
    24    62    63    1
    25    70    71    1
    26    82    83    2
    27    43    42    2
    28    49    42   am
    29    71    72    1
    30    42    41    1
    31    83    84    1
    32    83    85    1
    33    63    65    1
    34    63    64    1
    35    40    41    1
    36    41    44    1
    37    72    73    1
    38    35    34    2
    39    73    74    1
    40    34    33    1
    41    44    45    1
    42    45    46    1
    43    33    32    1
    44    33    36    1
    45    36    37    1
    46    46    48   am
    47    46    47    2
    48    14    15    1
    49    15    16    1
    50    15    18    1
    51    16    17    2
    52    37    38   ar
    53    37    39   ar
    54    28    27    2
    55    19    18    1
    56    19    20    1
    57    27    26    1
    58    23    22    1
    59    22    24    1
    60    22    21    2
    61    20    21    1
    62    25    26    1
    63    25    31    1
    64    26    29    1
    65    12    11    1
    66    29    30    1
    67    31    30    1
    68    13    11    1
    69    11     8    1
    70    10     9    2
    71     9     8    1
    72     8     7    1
    73     7     3   am
    74     5     6    1
    75     5     2    1
    76     3     4    2
    77     3     2    1
    78     2     1    1
