@<TRIPOS>MOLECULE
tmp/5jk5A01.pdb
 168 165 0 0 0
SMALL
GASTEIGER

@<TRIPOS>ATOM
      1  N         34.5790   10.0600   12.8840 N.3   219  VAL219     -0.1245
      2  CA        35.3140   10.4050   11.6760 C.3   219  VAL219      0.1561
      3  C         34.5330   11.4400   10.8860 C.2   219  VAL219      0.2260
      4  O         33.2980   11.4530   10.9120 O.2   219  VAL219     -0.2867
      5  CB        35.6070    9.1570   10.8060 C.3   219  VAL219      0.0252
      6  CG1       34.3200    8.5820   10.1880 C.3   219  VAL219      0.0019
      7  CG2       36.6440    9.4950    9.7240 C.3   219  VAL219      0.0019
      8  N         34.3250   11.9000    7.5920 N.3   221  GLY221     -0.1210
      9  CA        33.6540   11.3080    6.4500 C.3   221  GLY221      0.1956
     10  C         34.4580   10.1110    5.9680 C.2   221  GLY221      0.2612
     11  O         35.0860    9.4240    6.7720 O.2   221  GLY221     -0.2717
     12  N         34.4470    9.8670    4.6620 N.am  222  LEU222     -0.1965
     13  CA        35.1840    8.7400    4.0980 C.3   222  LEU222      0.1728
     14  C         36.6890    8.9520    4.2060 C.2   222  LEU222      0.2616
     15  O         37.2020    9.9880    3.7950 O.2   222  LEU222     -0.2715
     16  CB        34.8020    8.5140    2.6370 C.3   222  LEU222      0.0311
     17  CG        33.4270    7.9140    2.3470 C.3   222  LEU222      0.0022
     18  CD1       33.4010    7.4180    0.9030 C.3   222  LEU222      0.0001
     19  CD2       33.0900    6.8040    3.3140 C.3   222  LEU222      0.0001
     20  N         37.3780    7.9750    4.7900 N.am  223  LEU223     -0.1977
     21  CA        38.8310    7.9280    4.7810 C.3   223  LEU223      0.1596
     22  C         39.2860    7.1860    3.5370 C.2   223  LEU223      0.2287
     23  O         38.4710    6.5510    2.8720 O.2   223  LEU223     -0.2864
     24  CB        39.3550    7.2280    6.0280 C.3   223  LEU223      0.0297
     25  CG        39.0780    7.9130    7.3570 C.3   223  LEU223      0.0022
     26  CD1       39.5920    7.0360    8.4760 C.3   223  LEU223      0.0001
     27  CD2       39.7330    9.2860    7.3820 C.3   223  LEU223      0.0001
     28  N         40.9010    4.0450    1.6260 N.3   225  ALA225     -0.1245
     29  CA        40.7600    2.6390    1.9770 C.3   225  ALA225      0.1562
     30  C         41.8900    2.1870    2.9330 C.2   225  ALA225      0.2260
     31  O         41.6390    1.5080    3.9280 O.2   225  ALA225     -0.2867
     32  CB        40.7350    1.7960    0.7090 C.3   225  ALA225      0.0290
     33  N         41.3420    3.6390    6.5960 N.3   228  PHE228     -0.1227
     34  CA        40.2040    2.9980    7.2470 C.3   228  PHE228      0.1736
     35  C         40.5330    1.5650    7.6770 C.2   228  PHE228      0.2595
     36  O         40.3130    1.1710    8.8140 O.2   228  PHE228     -0.2718
     37  CB        38.9830    2.9860    6.3110 C.3   228  PHE228      0.0547
     38  CG        37.7450    2.4220    6.9550 C.ar  228  PHE228     -0.0202
     39  CD1       36.9790    3.2010    7.8170 C.ar  228  PHE228     -0.0042
     40  CD2       37.3590    1.1150    6.7200 C.ar  228  PHE228     -0.0042
     41  CE1       35.8290    2.6850    8.4280 C.ar  228  PHE228     -0.0003
     42  CE2       36.2130    0.5830    7.3340 C.ar  228  PHE228     -0.0003
     43  CZ        35.4480    1.3700    8.1880 C.ar  228  PHE228     -0.0000
     44  N         41.0650    0.7950    6.7410 N.am  229  LEU229     -0.1980
     45  CA        41.3970   -0.5920    6.9980 C.3   229  LEU229      0.1596
     46  C         42.5380   -0.6850    8.0140 C.2   229  LEU229      0.2287
     47  O         42.5280   -1.5660    8.8810 O.2   229  LEU229     -0.2864
     48  CB        41.7590   -1.2990    5.6920 C.3   229  LEU229      0.0297
     49  CG        40.6330   -1.4610    4.6550 C.3   229  LEU229      0.0022
     50  CD1       41.2070   -2.0810    3.3940 C.3   229  LEU229      0.0001
     51  CD2       39.4920   -2.3130    5.1870 C.3   229  LEU229      0.0001
     52  N         36.9680    1.1690   14.9550 N.3   237  PHE237     -0.1227
     53  CA        36.0210    1.4860   13.8850 C.3   237  PHE237      0.1736
     54  C         35.7980    2.9960   13.7750 C.2   237  PHE237      0.2595
     55  O         35.3450    3.6090   14.7270 O.2   237  PHE237     -0.2718
     56  CB        34.6700    0.7740   14.1080 C.3   237  PHE237      0.0547
     57  CG        33.7770    0.8330   12.8950 C.ar  237  PHE237     -0.0202
     58  CD1       33.9550   -0.0620   11.8490 C.ar  237  PHE237     -0.0042
     59  CD2       32.8130    1.8140   12.7710 C.ar  237  PHE237     -0.0042
     60  CE1       33.1660    0.0080   10.7150 C.ar  237  PHE237     -0.0003
     61  CE2       32.0220    1.8910   11.6370 C.ar  237  PHE237     -0.0003
     62  CZ        32.2030    0.9870   10.6110 C.ar  237  PHE237     -0.0000
     63  N         36.1370    3.5920   12.6310 N.am  238  HIS238     -0.1975
     64  CA        35.8040    4.9890   12.3530 C.3   238  HIS238      0.1656
     65  C         34.3310    5.1080   11.9710 C.2   238  HIS238      0.2291
     66  O         33.8770    4.4830   11.0150 O.2   238  HIS238     -0.2864
     67  CB        36.6930    5.5710   11.2320 C.3   238  HIS238      0.0771
     68  CG        38.1210    5.7660   11.6360 C.ar  238  HIS238      0.0820
     69  ND1       39.0380    4.7360   11.6480 N.ar  238  HIS238     -0.2267
     70  CD2       38.7760    6.8650   12.0840 C.ar  238  HIS238      0.1154
     71  CE1       40.2060    5.2010   12.0730 C.ar  238  HIS238      0.1986
     72  NE2       40.0690    6.4840   12.3370 N.ar  238  HIS238     -0.2212
     73  N         30.8030    7.8400   11.6460 N.3   240  THR240     -0.1218
     74  CA        30.3150    9.2030   11.5370 C.3   240  THR240      0.1862
     75  C         29.2940    9.5000   12.6270 C.2   240  THR240      0.2287
     76  O         28.6890    8.5910   13.1930 O.2   240  THR240     -0.2866
     77  CB        29.6740    9.4670   10.1660 C.3   240  THR240      0.1770
     78  OG1       28.6080    8.5290    9.9470 O.3   240  THR240     -0.2211
     79  CG2       30.7180    9.3370    9.0530 C.3   240  THR240      0.0375
     80  N         27.7300    7.0350    4.6810 N.3   255  PRO255     -0.2116
     81  CA        27.6900    6.2960    5.9470 C.3   255  PRO255      0.1372
     82  C         27.3010    7.1770    7.1430 C.2   255  PRO255      0.2244
     83  O         28.1660    7.4920    7.9720 O.2   255  PRO255     -0.2868
     84  CB        29.1350    5.7930    6.1010 C.3   255  PRO255      0.0268
     85  CG        29.9490    6.8250    5.3950 C.3   255  PRO255      0.0207
     86  CD        29.1090    7.2780    4.2220 C.3   255  PRO255      0.0892
     87  N         23.4300    4.1620    9.5070 N.3   259  HIS259     -0.1226
     88  CA        24.2290    3.0760    8.9590 C.3   259  HIS259      0.1752
     89  C         25.2310    2.5350    9.9910 C.2   259  HIS259      0.2595
     90  O         25.3050    1.3320   10.1990 O.2   259  HIS259     -0.2718
     91  CB        24.9480    3.5520    7.6940 C.3   259  HIS259      0.0759
     92  CG        25.9170    2.5560    7.1370 C.ar  259  HIS259      0.0818
     93  ND1       25.5130    1.4020    6.4990 N.ar  259  HIS259     -0.2268
     94  CD2       27.2730    2.5410    7.1170 C.ar  259  HIS259      0.1154
     95  CE1       26.5750    0.7200    6.1090 C.ar  259  HIS259      0.1986
     96  NE2       27.6560    1.3870    6.4780 N.ar  259  HIS259     -0.2212
     97  N         25.9890    3.4160   10.6520 N.am  260  GLU260     -0.1979
     98  CA        27.0100    2.9500   11.5890 C.3   260  GLU260      0.1602
     99  C         26.4000    2.1880   12.7510 C.2   260  GLU260      0.2287
    100  O         26.9190    1.1550   13.1490 O.2   260  GLU260     -0.2864
    101  CB        27.8600    4.1050   12.1600 C.3   260  GLU260      0.0415
    102  CG        28.2690    5.2160   11.1830 C.3   260  GLU260      0.1163
    103  CD        29.3720    4.8290   10.2110 C.2   260  GLU260      0.3649
    104  OE1       30.1990    5.7120    9.8810 O.co2 260  GLU260     -0.2457
    105  OE2       29.4250    3.6600    9.7760 O.co2 260  GLU260     -0.2457
    106  N         26.6680   -1.5160   11.4840 N.3   264  HIS264     -0.1241
    107  CA        28.0290   -1.9190   11.8060 C.3   264  HIS264      0.1621
    108  C         28.2020   -2.3890   13.2400 C.2   264  HIS264      0.2264
    109  O         28.8550   -3.4040   13.4740 O.2   264  HIS264     -0.2867
    110  CB        29.0010   -0.7780   11.5210 C.3   264  HIS264      0.0745
    111  CG        29.4290   -0.7110   10.0890 C.ar  264  HIS264      0.0817
    112  ND1       30.2180   -1.6810    9.5090 N.ar  264  HIS264     -0.2268
    113  CD2       29.1520    0.1880    9.1160 C.ar  264  HIS264      0.1154
    114  CE1       30.4270   -1.3690    8.2370 C.ar  264  HIS264      0.1986
    115  NE2       29.7840   -0.2470    7.9730 N.ar  264  HIS264     -0.2212
    116  N         39.7540   -4.1300    0.1330 N.3   296  SER296     -0.1217
    117  CA        38.5640   -3.3020    0.0470 C.3   296  SER296      0.1889
    118  C         37.4010   -4.0770   -0.5690 C.2   296  SER296      0.2288
    119  O         36.2780   -4.0250   -0.0800 O.2   296  SER296     -0.2866
    120  CB        38.8480   -2.0530   -0.7860 C.3   296  SER296      0.2089
    121  OG        37.8890   -1.0570   -0.5190 O.3   296  SER296     -0.2183
    122  N         36.1980   -6.5930    1.8780 N.3   299  TYR299     -0.1227
    123  CA        35.3980   -5.8650    2.8550 C.3   299  TYR299      0.1736
    124  C         33.9680   -5.6030    2.3690 C.2   299  TYR299      0.2595
    125  O         32.9900   -5.8170    3.0970 O.2   299  TYR299     -0.2718
    126  CB        36.0960   -4.5360    3.1930 C.3   299  TYR299      0.0548
    127  CG        35.4520   -3.7460    4.3080 C.ar  299  TYR299     -0.0200
    128  CD1       34.3930   -2.8740    4.0510 C.ar  299  TYR299     -0.0009
    129  CD2       35.9070   -3.8620    5.6200 C.ar  299  TYR299     -0.0009
    130  CE1       33.8010   -2.1480    5.0770 C.ar  299  TYR299      0.0417
    131  CE2       35.3240   -3.1370    6.6520 C.ar  299  TYR299      0.0417
    132  CZ        34.2780   -2.2720    6.3770 C.ar  299  TYR299      0.1957
    133  OH        33.6910   -1.5570    7.4120 O.3   299  TYR299     -0.2866
    134  N         33.8530   -5.1170    1.1390 N.am  300  TRP300     -0.1976
    135  CA        32.5560   -4.8480    0.5310 C.3   300  TRP300      0.1640
    136  C         31.6530   -6.0680    0.5930 C.2   300  TRP300      0.2290
    137  O         30.4970   -5.9890    1.0120 O.2   300  TRP300     -0.2864
    138  CB        32.7380   -4.4200   -0.9250 C.3   300  TRP300      0.0576
    139  CG        31.4720   -4.0490   -1.6370 C.ar  300  TRP300      0.0006
    140  CD1       30.7000   -4.8580   -2.4370 C.ar  300  TRP300      0.0946
    141  CD2       30.8280   -2.7700   -1.6200 C.ar  300  TRP300      0.0152
    142  NE1       29.6190   -4.1530   -2.9110 N.ar  300  TRP300     -0.2442
    143  CE2       29.6730   -2.8720   -2.4220 C.ar  300  TRP300      0.0810
    144  CE3       31.1230   -1.5430   -0.9980 C.ar  300  TRP300      0.0012
    145  CZ2       28.8120   -1.7880   -2.6360 C.ar  300  TRP300      0.0191
    146  CZ3       30.2640   -0.4730   -1.2020 C.ar  300  TRP300      0.0001
    147  CH2       29.1190   -0.6060   -2.0120 C.ar  300  TRP300      0.0015
    148  N         30.4090   -5.1790    4.5550 N.3   304  GLU304     -0.1245
    149  CA        29.3490   -4.2930    4.0730 C.3   304  GLU304      0.1567
    150  C         28.1240   -5.0430    3.5220 C.2   304  GLU304      0.2260
    151  O         26.9880   -4.6940    3.8490 O.2   304  GLU304     -0.2867
    152  CB        29.8880   -3.3380    3.0050 C.3   304  GLU304      0.0388
    153  CG        29.2550   -1.9460    3.0680 C.3   304  GLU304      0.1160
    154  CD        29.8380   -1.0820    4.1800 C.2   304  GLU304      0.3649
    155  OE1       31.0280   -0.7370    4.1110 O.co2 304  GLU304     -0.2457
    156  OE2       29.1110   -0.7250    5.1220 O.co2 304  GLU304     -0.2457
    157  N         31.3930   -4.4920   -8.6440 N.3   351  TYR351     -0.1241
    158  CA        30.1790   -4.2570   -7.8710 C.3   351  TYR351      0.1605
    159  C         29.6540   -2.8260   -7.9800 C.2   351  TYR351      0.2264
    160  O         30.4370   -1.8810   -8.0960 O.2   351  TYR351     -0.2867
    161  CB        30.4230   -4.6120   -6.4000 C.3   351  TYR351      0.0534
    162  CG        31.5340   -3.8450   -5.7000 C.ar  351  TYR351     -0.0201
    163  CD1       31.3040   -2.5830   -5.1600 C.ar  351  TYR351     -0.0009
    164  CD2       32.7990   -4.3990   -5.5460 C.ar  351  TYR351     -0.0009
    165  CE1       32.3050   -1.8870   -4.4970 C.ar  351  TYR351      0.0417
    166  CE2       33.8130   -3.7090   -4.8830 C.ar  351  TYR351      0.0417
    167  CZ        33.5600   -2.4510   -4.3560 C.ar  351  TYR351      0.1957
    168  OH        34.5640   -1.7550   -3.6910 O.3   351  TYR351     -0.2866
@<TRIPOS>BOND
     1   157   158    1
     2   160   159    2
     3   159   158    1
     4   158   161    1
     5   161   162    1
     6   162   164   ar
     7   162   163   ar
     8   164   166   ar
     9   163   165   ar
    10   166   167   ar
    11   165   167   ar
    12   167   168    1
    13   142   140   ar
    14   142   143   ar
    15   145   143   ar
    16   145   147   ar
    17   140   139   ar
    18   143   141   ar
    19   147   146   ar
    20   139   141   ar
    21   139   138    1
    22   141   144   ar
    23   146   144   ar
    24   138   135    1
    25   120   121    1
    26   120   117    1
    27   118   119    2
    28   118   117    1
    29   117   116    1
    30   135   136    1
    31   135   134    1
    32   136   137    2
    33    32    29    1
    34    18    17    1
    35   134   124   am
    36    28    29    1
    37   122   123    1
    38    29    30    1
    39    17    16    1
    40    17    19    1
    41   124   123    1
    42   124   125    2
    43    16    13    1
    44   123   126    1
    45    23    22    2
    46    30    31    2
    47   152   153    1
    48   152   149    1
    49   153   154    1
    50   126   127    1
    51    50    49    1
    52   150   151    2
    53   150   149    1
    54    22    21    1
    55    15    14    2
    56   128   127   ar
    57   128   130   ar
    58   149   148    1
    59    13    14    1
    60    13    12    1
    61   155   154   ar
    62   154   156   ar
    63    14    20   am
    64    86    80    1
    65    86    85    1
    66   127   129   ar
    67    49    51    1
    68    49    48    1
    69    12    10   am
    70    80    81    1
    71    21    20    1
    72    21    24    1
    73   130   132   ar
    74    85    84    1
    75   129   131   ar
    76    48    45    1
    77    81    84    1
    78    81    82    1
    79    10     9    1
    80    10    11    2
    81    24    25    1
    82    95    96   ar
    83    95    93   ar
    84    37    38    1
    85    37    34    1
    86   132   131   ar
    87   132   133    1
    88     9     8    1
    89    96    94   ar
    90    93    92   ar
    91    33    34    1
    92    40    38   ar
    93    40    42   ar
    94    44    45    1
    95    44    35   am
    96    38    39   ar
    97    45    46    1
    98    94    92   ar
    99    92    91    1
   100    82    83    2
   101    34    35    1
   102    42    43   ar
   103    25    27    1
   104    25    26    1
   105    35    36    2
   106    91    88    1
   107    39    41   ar
   108   115   114   ar
   109   115   113   ar
   110    46    47    2
   111    43    41   ar
   112   114   112   ar
   113    88    87    1
   114    88    89    1
   115    79    77    1
   116   113   111   ar
   117   112   111   ar
   118     7     5    1
   119   105   103   ar
   120   104   103   ar
   121    78    77    1
   122    89    90    2
   123    89    97   am
   124   111   110    1
   125    77    74    1
   126     6     5    1
   127   103   102    1
   128    62    60   ar
   129    62    61   ar
   130    97    98    1
   131    60    58   ar
   132     5     2    1
   133     3     4    2
   134     3     2    1
   135    66    65    2
   136   102   101    1
   137    67    68    1
   138    67    64    1
   139   106   107    1
   140   110   107    1
   141    74    73    1
   142    74    75    1
   143    98   101    1
   144    98    99    1
   145    68    69   ar
   146    68    70   ar
   147    61    59   ar
   148    69    71   ar
   149     2     1    1
   150   107   108    1
   151    58    57   ar
   152    65    64    1
   153    71    72   ar
   154    70    72   ar
   155    64    63    1
   156    75    76    2
   157    63    54   am
   158    99   100    2
   159    59    57   ar
   160    57    56    1
   161   108   109    2
   162    54    53    1
   163    54    55    2
   164    53    56    1
   165    53    52    1
