@<TRIPOS>MOLECULE
tmp/5jk8A02.pdb
 121 120 0 0 0
SMALL
GASTEIGER

@<TRIPOS>ATOM
      1  N         21.1020   10.8620    7.6650 N.3   235  ARG235     -0.1245
      2  CA        20.6140   10.9590    6.2860 C.3   235  ARG235      0.1563
      3  C         19.4740   11.9780    6.1770 C.2   235  ARG235      0.2260
      4  O         18.7720   12.2320    7.1560 O.2   235  ARG235     -0.2867
      5  CB        20.1720    9.5690    5.7530 C.3   235  ARG235      0.0307
      6  CG        18.9740    8.8610    6.4680 C.3   235  ARG235      0.0489
      7  CD        18.6850    7.4060    5.9360 C.3   235  ARG235      0.2205
      8  NE        19.7360    6.4360    6.2730 N.pl3 235  ARG235     -0.0865
      9  CZ        19.7740    5.1490    5.8980 C.cat 235  ARG235      0.5346
     10  NH1       18.8200    4.6110    5.1440 N.pl3 235  ARG235      0.1354
     11  NH2       20.7940    4.3860    6.2810 N.pl3 235  ARG235      0.1354
     12  N         16.8420    3.7980    1.7430 N.3   242  TYR242     -0.1227
     13  CA        18.1600    3.6020    1.1260 C.3   242  TYR242      0.1736
     14  C         18.8600    4.9410    0.8290 C.2   242  TYR242      0.2596
     15  O         18.3740    5.7260    0.0180 O.2   242  TYR242     -0.2718
     16  CB        18.0400    2.7800   -0.1680 C.3   242  TYR242      0.0548
     17  CG        19.3740    2.4220   -0.8040 C.ar  242  TYR242     -0.0200
     18  CD1       19.9920    1.2060   -0.5390 C.ar  242  TYR242     -0.0009
     19  CD2       20.0150    3.3040   -1.6690 C.ar  242  TYR242     -0.0009
     20  CE1       21.2080    0.8830   -1.1190 C.ar  242  TYR242      0.0417
     21  CE2       21.2350    2.9890   -2.2450 C.ar  242  TYR242      0.0417
     22  CZ        21.8240    1.7810   -1.9680 C.ar  242  TYR242      0.1957
     23  OH        23.0330    1.4750   -2.5480 O.3   242  TYR242     -0.2866
     24  N         20.0080    5.1820    1.4650 N.am  243  THR243     -0.1939
     25  CA        20.7870    6.4070    1.2470 C.3   243  THR243      0.2013
     26  C         22.1720    6.0660    0.6730 C.2   243  THR243      0.2484
     27  O         22.6260    4.9190    0.7830 O.2   243  THR243     -0.2729
     28  CB        20.9420    7.2210    2.5670 C.3   243  THR243      0.1807
     29  OG1       21.4840    8.5250    2.3010 O.3   243  THR243     -0.2208
     30  CG2       21.8510    6.4880    3.5430 C.3   243  THR243      0.0379
     31  N         22.8290    7.0490    0.0230 N.am  244  PRO244     -0.2715
     32  CA        24.2060    6.9030   -0.4770 C.3   244  PRO244      0.1536
     33  C         25.3030    7.0600    0.5870 C.2   244  PRO244      0.2598
     34  O         26.1240    6.1530    0.7360 O.2   244  PRO244     -0.2715
     35  CB        24.3160    8.0230   -1.5220 C.3   244  PRO244      0.0310
     36  CG        23.3000    9.0210   -1.1200 C.3   244  PRO244      0.0237
     37  CD        22.1600    8.2120   -0.5880 C.3   244  PRO244      0.0939
     38  N         25.3230    8.1950    1.2870 N.am  245  GLU245     -0.1964
     39  CA        26.2940    8.4560    2.3510 C.3   245  GLU245      0.1718
     40  C         26.2610    7.3800    3.4530 C.2   245  GLU245      0.2458
     41  O         25.3430    6.5580    3.5090 O.2   245  GLU245     -0.2730
     42  CB        26.0410    9.8370    2.9760 C.3   245  GLU245      0.0428
     43  CG        26.6810   11.0250    2.2530 C.3   245  GLU245      0.1163
     44  CD        26.2480   12.3750    2.8350 C.2   245  GLU245      0.3649
     45  OE1       25.0300   12.6470    2.8910 O.co2 245  GLU245     -0.2457
     46  OE2       27.1210   13.1720    3.2410 O.co2 245  GLU245     -0.2457
     47  N         27.2820    7.3630    4.3220 N.am  246  PRO246     -0.2727
     48  CA        27.1380    6.5460    5.5250 C.3   246  PRO246      0.1402
     49  C         26.7340    7.4140    6.7160 C.2   246  PRO246      0.2269
     50  O         27.5890    7.9500    7.4190 O.2   246  PRO246     -0.2865
     51  CB        28.5430    5.9410    5.7150 C.3   246  PRO246      0.0296
     52  CG        29.4610    6.6770    4.7190 C.3   246  PRO246      0.0237
     53  CD        28.6690    7.8280    4.1580 C.3   246  PRO246      0.0939
     54  N         23.3260    4.1260    9.3790 N.3   250  HIS250     -0.1241
     55  CA        24.0890    3.0350    8.8180 C.3   250  HIS250      0.1621
     56  C         25.1710    2.5630    9.8040 C.2   250  HIS250      0.2264
     57  O         25.3330    1.3510   10.0120 O.2   250  HIS250     -0.2867
     58  CB        24.6990    3.4520    7.4860 C.3   250  HIS250      0.0745
     59  CG        25.6940    2.4750    6.9570 C.ar  250  HIS250      0.0817
     60  ND1       25.3400    1.2120    6.5370 N.ar  250  HIS250     -0.2268
     61  CD2       27.0370    2.5630    6.7990 C.ar  250  HIS250      0.1154
     62  CE1       26.4220    0.5650    6.1380 C.ar  250  HIS250      0.1986
     63  NE2       27.4640    1.3610    6.2890 N.ar  250  HIS250     -0.2212
     64  N         33.6690   -4.7790    1.0080 N.3   291  TRP291     -0.1241
     65  CA        32.3400   -4.5210    0.4880 C.3   291  TRP291      0.1605
     66  C         31.4890   -5.7800    0.4880 C.2   291  TRP291      0.2264
     67  O         30.3190   -5.7450    0.8570 O.2   291  TRP291     -0.2867
     68  CB        32.4280   -3.9590   -0.9260 C.3   291  TRP291      0.0550
     69  CG        31.1100   -3.6760   -1.5790 C.ar  291  TRP291      0.0003
     70  CD1       30.3710   -4.5310   -2.3490 C.ar  291  TRP291      0.0946
     71  CD2       30.3960   -2.4340   -1.5610 C.ar  291  TRP291      0.0152
     72  NE1       29.2400   -3.8980   -2.8070 N.ar  291  TRP291     -0.2442
     73  CE2       29.2280   -2.6130   -2.3330 C.ar  291  TRP291      0.0810
     74  CE3       30.6290   -1.1880   -0.9670 C.ar  291  TRP291      0.0012
     75  CZ2       28.3030   -1.5890   -2.5340 C.ar  291  TRP291      0.0191
     76  CZ3       29.7020   -0.1770   -1.1540 C.ar  291  TRP291      0.0001
     77  CH2       28.5530   -0.3830   -1.9300 C.ar  291  TRP291      0.0015
     78  N         30.1100   -5.0890    4.4600 N.3   295  GLU295     -0.1231
     79  CA        29.1320   -4.1500    3.9580 C.3   295  GLU295      0.1699
     80  C         27.8910   -4.8570    3.3930 C.2   295  GLU295      0.2592
     81  O         26.7600   -4.5100    3.7400 O.2   295  GLU295     -0.2718
     82  CB        29.8020   -3.2500    2.9110 C.3   295  GLU295      0.0402
     83  CG        29.4010   -1.7760    2.9470 C.3   295  GLU295      0.1161
     84  CD        29.5810   -1.1230    4.3060 C.2   295  GLU295      0.3649
     85  OE1       30.6890   -0.6530    4.6160 O.co2 295  GLU295     -0.2457
     86  OE2       28.5930   -1.0580    5.0570 O.co2 295  GLU295     -0.2457
     87  N         28.0870   -5.8550    2.5400 N.am  296  PHE296     -0.1976
     88  CA        26.9460   -6.6030    2.0040 C.3   296  PHE296      0.1639
     89  C         27.1030   -8.1200    2.0960 C.2   296  PHE296      0.2290
     90  O         26.6810   -8.8460    1.1900 O.2   296  PHE296     -0.2864
     91  CB        26.6900   -6.1920    0.5500 C.3   296  PHE296      0.0560
     92  CG        26.3710   -4.7460    0.4040 C.ar  296  PHE296     -0.0200
     93  CD1       25.0580   -4.3130    0.4230 C.ar  296  PHE296     -0.0042
     94  CD2       27.3830   -3.8100    0.2920 C.ar  296  PHE296     -0.0042
     95  CE1       24.7560   -2.9710    0.3180 C.ar  296  PHE296     -0.0003
     96  CE2       27.0860   -2.4770    0.1950 C.ar  296  PHE296     -0.0003
     97  CZ        25.7720   -2.0500    0.1990 C.ar  296  PHE296     -0.0000
     98  N         25.5290   -2.6410    5.1880 N.3   311  GLY311     -0.1225
     99  CA        24.8240   -1.9650    4.1100 C.3   311  GLY311      0.1811
    100  C         23.4240   -2.5390    3.9040 C.2   311  GLY311      0.2280
    101  O         22.5270   -1.8460    3.4120 O.2   311  GLY311     -0.2866
    102  N         21.1380   -1.8230    7.4810 N.3   314  SER314     -0.1202
    103  CA        20.7360   -0.4220    7.6400 C.3   314  SER314      0.2020
    104  C         19.7400    0.0650    6.5810 C.2   314  SER314      0.2619
    105  O         19.3010    1.2110    6.6230 O.2   314  SER314     -0.2717
    106  CB        21.9700    0.4840    7.6210 C.3   314  SER314      0.2103
    107  OG        22.5470    0.5570    6.3290 O.3   314  SER314     -0.2182
    108  N         19.4100   -0.7870    5.6150 N.am  315  SER315     -0.1951
    109  CA        18.5090   -0.3910    4.5350 C.3   315  SER315      0.1924
    110  C         17.3260   -1.3590    4.4010 C.2   315  SER315      0.2314
    111  O         17.4920   -2.5050    3.9930 O.2   315  SER315     -0.2863
    112  CB        19.2680   -0.2970    3.2060 C.3   315  SER315      0.2116
    113  OG        18.3640   -0.1260    2.1190 O.3   315  SER315     -0.2180
    114  N         27.1040    0.7280   -6.6450 N.3   344  ILE344     -0.1245
    115  CA        27.1160    1.3710   -5.3360 C.3   344  ILE344      0.1561
    116  C         25.8940    2.2590   -5.1160 C.2   344  ILE344      0.2260
    117  O         25.5980    2.6510   -3.9890 O.2   344  ILE344     -0.2867
    118  CB        28.4060    2.2030   -5.1260 C.3   344  ILE344      0.0252
    119  CG1       28.5010    3.3470   -6.1400 C.3   344  ILE344      0.0019
    120  CG2       29.6390    1.3030   -5.1940 C.3   344  ILE344      0.0019
    121  CD1       29.7290    4.2210   -5.9440 C.3   344  ILE344      0.0001
@<TRIPOS>BOND
     1   114   115    1
     2   119   121    1
     3   119   118    1
     4   115   118    1
     5   115   116    1
     6   120   118    1
     7   116   117    2
     8    72    70   ar
     9    72    73   ar
    10    23    22    1
    11    75    73   ar
    12    75    77   ar
    13    70    69   ar
    14    73    71   ar
    15    21    22   ar
    16    21    19   ar
    17    22    20   ar
    18    77    76   ar
    19    19    17   ar
    20    69    71   ar
    21    69    68    1
    22    71    74   ar
    23    35    36    1
    24    35    32    1
    25    76    74   ar
    26    36    37    1
    27    20    18   ar
    28    68    65    1
    29    17    18   ar
    30    17    16    1
    31    37    31    1
    32    32    31    1
    33    32    33    1
    34    16    13    1
    35    15    14    2
    36    31    26   am
    37    96    97   ar
    38    96    94   ar
    39    97    95   ar
    40    94    92   ar
    41    95    93   ar
    42    92    93   ar
    43    92    91    1
    44    66    65    1
    45    66    67    2
    46    65    64    1
    47    91    88    1
    48    33    34    2
    49    33    38   am
    50    26    27    2
    51    26    25    1
    52    14    13    1
    53    14    24   am
    54    13    12    1
    55    90    89    2
    56    25    24    1
    57    25    28    1
    58    38    39    1
    59    88    89    1
    60    88    87    1
    61   113   112    1
    62    43    44    1
    63    43    42    1
    64    29    28    1
    65    39    42    1
    66    39    40    1
    67    87    80   am
    68    28    30    1
    69    44    45   ar
    70    44    46   ar
    71    82    83    1
    72    82    79    1
    73    83    84    1
    74   112   109    1
    75    80    81    2
    76    80    79    1
    77   101   100    2
    78    40    41    2
    79    40    47   am
    80   100    99    1
    81    79    78    1
    82   111   110    2
    83    99    98    1
    84    53    47    1
    85    53    52    1
    86    84    85   ar
    87    84    86   ar
    88    47    48    1
    89   110   109    1
    90   109   108    1
    91    52    51    1
    92    10     9    1
    93    48    51    1
    94    48    49    1
    95   108   104   am
    96     5     2    1
    97     5     6    1
    98     9     8    2
    99     9    11    1
   100     7     8    1
   101     7     6    1
   102    62    63   ar
   103    62    60   ar
   104     3     2    1
   105     3     4    2
   106     2     1    1
   107    63    61   ar
   108   107   106    1
   109    60    59   ar
   110   104   105    2
   111   104   103    1
   112    49    50    2
   113    61    59   ar
   114    59    58    1
   115   102   103    1
   116    58    55    1
   117   106   103    1
   118    55    54    1
   119    55    56    1
   120    56    57    2
