@<TRIPOS>MOLECULE
tmp/5jkgA00.pdb
 169 160 0 0 0
SMALL
GASTEIGER

@<TRIPOS>ATOM
      1  N        -38.2760  -21.1270  381.7550 N.3    21  LEU21      -0.1231
      2  CA       -39.1270  -20.5140  380.7520 C.3    21  LEU21       0.1693
      3  C        -38.5550  -20.5490  379.3480 C.2    21  LEU21       0.2593
      4  O        -39.3260  -20.6730  378.3990 O.2    21  LEU21      -0.2718
      5  CB       -39.4420  -19.0640  381.1280 C.3    21  LEU21       0.0284
      6  CG       -40.0920  -18.8940  382.4960 C.3    21  LEU21       0.0019
      7  CD1      -39.9990  -17.4460  382.9540 C.3    21  LEU21       0.0001
      8  CD2      -41.5430  -19.3660  382.4400 C.3    21  LEU21       0.0001
      9  N        -37.2410  -20.4560  379.1740 N.am   22  GLY22      -0.1940
     10  CA       -36.6940  -20.5950  377.8360 C.3    22  GLY22       0.2041
     11  C        -35.2560  -20.1170  377.7510 C.2    22  GLY22       0.2739
     12  O        -34.5220  -20.1310  378.7400 O.2    22  GLY22      -0.2686
     13  N        -34.9060  -19.9710  376.4770 N.2    23  GLU23      -0.2286
     14  CA       -33.7910  -19.2700  375.8910 C.3    23  GLU23       0.1866
     15  C        -33.1960  -18.5820  377.0550 C.2    23  GLU23       0.2743
     16  O        -33.5050  -19.0220  378.1460 O.2    23  GLU23      -0.2685
     17  CB       -34.3490  -18.3470  374.8070 C.3    23  GLU23       0.0459
     18  CG       -35.4900  -18.9730  374.0070 C.3    23  GLU23       0.1166
     19  CD       -36.2600  -17.9850  373.1440 C.2    23  GLU23       0.3649
     20  OE1      -35.6690  -16.9860  372.6840 O.co2  23  GLU23      -0.2457
     21  OE2      -37.4660  -18.2260  372.9200 O.co2  23  GLU23      -0.2457
     22  N        -32.3300  -17.5750  376.8890 N.2    24  GLY24      -0.2276
     23  CA       -32.0270  -16.9260  375.6210 C.3    24  GLY24       0.2002
     24  C        -30.6750  -16.2770  375.3790 C.2    24  GLY24       0.2339
     25  O        -30.4000  -15.1560  375.8010 O.2    24  GLY24      -0.2861
     26  N        -28.4330  -14.9120  376.1250 N.3    26  PHE26      -0.1241
     27  CA       -27.7750  -14.2800  377.2490 C.3    26  PHE26       0.1605
     28  C        -27.8170  -15.1130  378.5240 C.2    26  PHE26       0.2264
     29  O        -26.9560  -14.9700  379.3750 O.2    26  PHE26      -0.2867
     30  CB       -28.2460  -12.8340  377.4590 C.3    26  PHE26       0.0534
     31  CG       -29.6500  -12.7050  377.9640 C.ar   26  PHE26      -0.0203
     32  CD1      -30.0990  -13.4750  379.0150 C.ar   26  PHE26      -0.0042
     33  CD2      -30.5110  -11.7890  377.3970 C.ar   26  PHE26      -0.0042
     34  CE1      -31.3850  -13.3500  379.4780 C.ar   26  PHE26      -0.0003
     35  CE2      -31.7940  -11.6580  377.8580 C.ar   26  PHE26      -0.0003
     36  CZ       -32.2350  -12.4380  378.9020 C.ar   26  PHE26      -0.0000
     37  N        -33.8840  -18.1970  381.4590 N.3    29  VAL29      -0.1245
     38  CA       -34.9070  -17.4780  382.2060 C.3    29  VAL29       0.1561
     39  C        -35.7830  -18.5110  382.8950 C.2    29  VAL29       0.2260
     40  O        -36.1870  -19.5040  382.2760 O.2    29  VAL29      -0.2867
     41  CB       -35.7450  -16.5650  381.2940 C.3    29  VAL29       0.0252
     42  CG1      -36.7710  -15.7960  382.1130 C.3    29  VAL29       0.0019
     43  CG2      -34.8470  -15.6140  380.5340 C.3    29  VAL29       0.0019
     44  N        -39.0460  -19.2490  385.8300 N.3    31  ARG31      -0.1245
     45  CA       -40.0820  -18.6970  386.6180 C.3    31  ARG31       0.1563
     46  C        -39.5530  -18.7180  388.0230 C.2    31  ARG31       0.2260
     47  O        -38.6500  -19.4610  388.3280 O.2    31  ARG31      -0.2867
     48  CB       -41.3250  -19.5470  386.4940 C.3    31  ARG31       0.0307
     49  CG       -42.6110  -18.8210  386.8150 C.3    31  ARG31       0.0489
     50  CD       -43.8050  -19.7510  386.8530 C.3    31  ARG31       0.2205
     51  NE       -43.6390  -20.8890  385.9710 N.pl3  31  ARG31      -0.0865
     52  CZ       -44.1550  -20.9620  384.7600 C.cat  31  ARG31       0.5346
     53  NH1      -44.8740  -19.9610  384.2900 N.pl3  31  ARG31       0.1354
     54  NH2      -43.9590  -22.0350  384.0220 N.pl3  31  ARG31       0.1354
     55  N        -40.0440  -13.4680  386.7980 N.3    49  ALA49      -0.1245
     56  CA       -39.1180  -14.2070  385.9550 C.3    49  ALA49       0.1562
     57  C        -37.6960  -13.8320  386.3390 C.2    49  ALA49       0.2260
     58  O        -37.4210  -12.6730  386.6530 O.2    49  ALA49      -0.2867
     59  CB       -39.3720  -13.9210  384.4720 C.3    49  ALA49       0.0290
     60  N        -33.6190  -14.0120  385.2070 N.3    51  LYS51      -0.1245
     61  CA       -32.5940  -14.2480  384.2000 C.3    51  LYS51       0.1561
     62  C        -31.2710  -14.5870  384.8760 C.2    51  LYS51       0.2260
     63  O        -30.8510  -13.8910  385.8080 O.2    51  LYS51      -0.2867
     64  CB       -32.4240  -13.0220  383.3020 C.3    51  LYS51       0.0271
     65  CG       -33.7220  -12.3660  382.9010 C.3    51  LYS51       0.0035
     66  CD       -33.4920  -11.2500  381.8810 C.3    51  LYS51       0.0206
     67  CE       -34.1640  -11.5790  380.5470 C.3    51  LYS51       0.1093
     68  NZ       -33.8740  -10.5850  379.4700 N.3    51  LYS51      -0.1314
     69  N        -40.8650   -5.3790  379.1770 N.3    79  ILE79      -0.1245
     70  CA       -40.5880   -6.1950  380.3560 C.3    79  ILE79       0.1561
     71  C        -39.7800   -5.3510  381.3350 C.2    79  ILE79       0.2260
     72  O        -38.6310   -5.0000  381.0680 O.2    79  ILE79      -0.2867
     73  CB       -39.8500   -7.4860  379.9990 C.3    79  ILE79       0.0252
     74  CG1      -40.7410   -8.3840  379.1480 C.3    79  ILE79       0.0019
     75  CG2      -39.4490   -8.2440  381.2510 C.3    79  ILE79       0.0019
     76  CD1      -41.8270   -9.0760  379.9650 C.3    79  ILE79       0.0001
     77  N        -37.2210   -9.8200  386.6040 N.3    95  VAL95      -0.1231
     78  CA       -38.0400   -9.0320  385.6960 C.3    95  VAL95       0.1692
     79  C        -39.4580   -9.5850  385.7660 C.2    95  VAL95       0.2592
     80  O        -39.7050  -10.6240  386.3740 O.2    95  VAL95      -0.2718
     81  CB       -37.4890   -9.0600  384.2550 C.3    95  VAL95       0.0266
     82  CG1      -36.0530   -8.5570  384.2440 C.3    95  VAL95       0.0020
     83  CG2      -37.5630  -10.4790  383.6760 C.3    95  VAL95       0.0020
     84  N        -40.4010   -8.8850  385.1450 N.am   96  GLU96      -0.1966
     85  CA       -41.7850   -9.3020  385.3090 C.3    96  GLU96       0.1733
     86  C        -42.1130  -10.4750  384.3900 C.2    96  GLU96       0.2616
     87  O        -41.4790  -10.6820  383.3520 O.2    96  GLU96      -0.2715
     88  CB       -42.7420   -8.1320  385.0790 C.3    96  GLU96       0.0429
     89  CG       -42.4010   -7.2500  383.9160 C.3    96  GLU96       0.1163
     90  CD       -43.1540   -5.9280  383.9570 C.2    96  GLU96       0.3649
     91  OE1      -43.9000   -5.6900  384.9330 O.co2  96  GLU96      -0.2457
     92  OE2      -42.9910   -5.1270  383.0130 O.co2  96  GLU96      -0.2457
     93  N        -43.0960  -11.2700  384.8080 N.am   97  CYS97      -0.1954
     94  CA       -43.4460  -12.5090  384.1270 C.3    97  CYS97       0.1843
     95  C        -44.6760  -12.2780  383.2550 C.2    97  CYS97       0.2625
     96  O        -45.7040  -11.7900  383.7370 O.2    97  CYS97      -0.2714
     97  CB       -43.6880  -13.6300  385.1420 C.3    97  CYS97       0.0997
     98  SG       -43.9520  -15.2880  384.4290 S.3    97  CYS97      -0.0797
     99  N        -44.5510  -12.5940  381.9700 N.am   98  ALA98      -0.1963
    100  CA       -45.6660  -12.5720  381.0270 C.3    98  ALA98       0.1728
    101  C        -46.2690  -13.9630  380.9900 C.2    98  ALA98       0.2616
    102  O        -45.6600  -14.8930  380.4540 O.2    98  ALA98      -0.2715
    103  CB       -45.2040  -12.1650  379.6320 C.3    98  ALA98       0.0334
    104  N        -47.4630  -14.1140  381.5510 N.am   99  ALA99      -0.1963
    105  CA       -47.9440  -15.4640  381.7980 C.3    99  ALA99       0.1728
    106  C        -48.3130  -16.1750  380.5030 C.2    99  ALA99       0.2616
    107  O        -48.1720  -17.3980  380.4170 O.2    99  ALA99      -0.2715
    108  CB       -49.1230  -15.4340  382.7730 C.3    99  ALA99       0.0334
    109  N        -48.7450  -15.4410  379.4740 N.am  100  LYS100     -0.1963
    110  CA       -49.2370  -16.0870  378.2610 C.3   100  LYS100      0.1728
    111  C        -48.1640  -16.2890  377.2010 C.2   100  LYS100      0.2617
    112  O        -48.5000  -16.6470  376.0700 O.2   100  LYS100     -0.2715
    113  CB       -50.3990  -15.2940  377.6650 C.3   100  LYS100      0.0311
    114  CG       -51.6390  -15.2990  378.5190 C.3   100  LYS100      0.0038
    115  CD       -52.7720  -14.5470  377.8590 C.3   100  LYS100      0.0206
    116  CE       -53.9350  -14.3910  378.8150 C.3   100  LYS100      0.1093
    117  NZ       -55.1630  -13.9390  378.1240 N.3   100  LYS100     -0.1314
    118  N        -46.8950  -16.0810  377.5280 N.am  101  GLY101     -0.1940
    119  CA       -45.8530  -16.4080  376.5740 C.3   101  GLY101      0.2014
    120  C        -45.7150  -15.3450  375.5030 C.2   101  GLY101      0.2638
    121  O        -46.1680  -14.2080  375.6600 O.2   101  GLY101     -0.2714
    122  N        -45.0790  -15.7210  374.3920 N.am  102  ASN102     -0.1972
    123  CA       -44.7910  -14.7150  373.3820 C.3   102  ASN102      0.1688
    124  C        -45.9690  -14.5530  372.4120 C.2   102  ASN102      0.2292
    125  O        -46.8440  -15.4150  372.3050 O.2   102  ASN102     -0.2864
    126  CB       -43.4690  -15.0140  372.6470 C.3   102  ASN102      0.1181
    127  CG       -43.5570  -16.1500  371.6300 C.2   102  ASN102      0.2629
    128  OD1      -44.4210  -16.1710  370.7580 O.2   102  ASN102     -0.2716
    129  ND2      -42.6060  -17.0640  371.7040 N.am  102  ASN102     -0.0877
    130  N        -42.4440  -13.0950  368.1440 N.3   149  ARG149     -0.1231
    131  CA       -41.8490  -13.9020  369.2070 C.3   149  ARG149      0.1694
    132  C        -40.9720  -13.0820  370.1500 C.2   149  ARG149      0.2592
    133  O        -40.5860  -13.5900  371.2110 O.2   149  ARG149     -0.2718
    134  CB       -41.0280  -15.0510  368.6200 C.3   149  ARG149      0.0321
    135  CG       -39.8090  -14.5780  367.8650 C.3   149  ARG149      0.0489
    136  CD       -39.1320  -15.7010  367.0990 C.3   149  ARG149      0.2205
    137  NE       -38.3980  -15.1860  365.9420 N.pl3 149  ARG149     -0.0865
    138  CZ       -38.9100  -15.0500  364.7170 C.cat 149  ARG149      0.5346
    139  NH1      -40.1660  -15.3970  364.4680 N.pl3 149  ARG149      0.1354
    140  NH2      -38.1610  -14.5680  363.7340 N.pl3 149  ARG149      0.1354
    141  N        -40.6450  -11.8400  369.7890 N.am  150  ASN150     -0.1974
    142  CA       -39.9520  -10.9180  370.6800 C.3   150  ASN150      0.1688
    143  C        -40.8970  -10.1380  371.5710 C.2   150  ASN150      0.2292
    144  O        -40.4280   -9.2580  372.3060 O.2   150  ASN150     -0.2864
    145  CB       -39.1310   -9.8940  369.8940 C.3   150  ASN150      0.1181
    146  CG       -38.0660  -10.5130  369.0570 C.2   150  ASN150      0.2629
    147  OD1      -37.8110  -10.0670  367.9310 O.2   150  ASN150     -0.2716
    148  ND2      -37.4150  -11.5380  369.5930 N.am  150  ASN150     -0.0877
    149  N        -44.0340  -10.1770  374.4780 N.3   152  LEU152     -0.1245
    150  CA       -44.6210  -11.0250  375.5100 C.3   152  LEU152      0.1561
    151  C        -45.9910  -10.5050  375.9470 C.2   152  LEU152      0.2260
    152  O        -46.2620   -9.3010  375.9040 O.2   152  LEU152     -0.2867
    153  CB       -43.6740  -11.1320  376.7070 C.3   152  LEU152      0.0270
    154  CG       -42.4090  -11.9300  376.3840 C.3   152  LEU152      0.0019
    155  CD1      -41.3890  -11.8670  377.5130 C.3   152  LEU152      0.0001
    156  CD2      -42.7660  -13.3570  376.0630 C.3   152  LEU152      0.0001
    157  N        -39.8000   -7.7190  374.9970 N.3   162  ALA162     -0.1231
    158  CA       -38.7160   -8.3100  375.7700 C.3   162  ALA162      0.1694
    159  C        -37.3750   -7.7450  375.3080 C.2   162  ALA162      0.2592
    160  O        -37.1200   -7.6470  374.1050 O.2   162  ALA162     -0.2718
    161  CB       -38.7230   -9.8340  375.6360 C.3   162  ALA162      0.0304
    162  N        -36.5350   -7.4700  376.2930 N.am  163  ASP163     -0.1974
    163  CA       -35.1930   -6.9280  376.1530 C.3   163  ASP163      0.1709
    164  C        -35.0590   -5.8320  375.1420 C.2   163  ASP163      0.2293
    165  O        -35.8360   -5.7470  374.2180 O.2   163  ASP163     -0.2864
    166  CB       -34.1610   -8.0150  375.9160 C.3   163  ASP163      0.1436
    167  CG       -34.3630   -8.7250  374.6270 C.2   163  ASP163      0.3671
    168  OD1      -34.1340   -8.1150  373.5790 O.co2 163  ASP163     -0.2456
    169  OD2      -34.7470   -9.9010  374.6590 O.co2 163  ASP163     -0.2456
@<TRIPOS>BOND
     1   140   138    1
     2   139   138    1
     3   138   137    2
     4   137   136    1
     5   136   135    1
     6   135   134    1
     7   147   146    2
     8   130   131    1
     9   134   131    1
    10   146   148   am
    11   146   145    1
    12   131   132    1
    13   141   132   am
    14   141   142    1
    15   145   142    1
    16   132   133    2
    17   142   143    1
    18   128   127    2
    19   143   144    2
    20   127   129   am
    21   127   126    1
    22   125   124    2
    23   124   123    1
    24   126   123    1
    25    20    19   ar
    26    21    19   ar
    27    19    18    1
    28   123   122    1
    29   168   167   ar
    30    18    17    1
    31   160   159    2
    32   165   164    2
    33   122   120   am
    34   149   150    1
    35   167   169   ar
    36   167   166    1
    37    17    14    1
    38   157   158    1
    39   164   163    1
    40   159   158    1
    41   159   162   am
    42    24    23    1
    43    24    25    2
    44   120   121    2
    45   120   119    1
    46   150   151    1
    47   150   153    1
    48    23    22    1
    49   161   158    1
    50    14    13    1
    51    14    15    1
    52   152   151    2
    53   166   163    1
    54   156   154    1
    55   112   111    2
    56    26    27    1
    57   163   162    1
    58   154   153    1
    59   154   155    1
    60    13    11    2
    61   119   118    1
    62    22    15    2
    63    15    16    1
    64   111   118   am
    65   111   110    1
    66    27    30    1
    67    27    28    1
    68    33    35   ar
    69    33    31   ar
    70    30    31    1
    71   113   110    1
    72   113   114    1
    73    11    10    1
    74    11    12    1
    75    10     9    1
    76    35    36   ar
    77   115   114    1
    78   115   116    1
    79    31    32   ar
    80   117   116    1
    81    16    12    1
    82   110   109    1
    83     4     3    2
    84    28    29    2
    85    36    34   ar
    86    32    34   ar
    87    74    76    1
    88    74    73    1
    89     9     3   am
    90    69    70    1
    91     3     2    1
    92    68    67    1
    93   109   106   am
    94   103   100    1
    95    73    70    1
    96    73    75    1
    97    70    71    1
    98   107   106    2
    99   102   101    2
   100   106   105    1
   101    43    41    1
   102    67    66    1
   103     2     5    1
   104     2     1    1
   105   101   100    1
   106   101   104   am
   107   100    99    1
   108    72    71    2
   109     5     6    1
   110    41    42    1
   111    41    38    1
   112    37    38    1
   113   104   105    1
   114   105   108    1
   115    66    65    1
   116    99    95   am
   117    38    39    1
   118    40    39    2
   119     8     6    1
   120     6     7    1
   121    65    64    1
   122    92    90   ar
   123    95    96    2
   124    95    94    1
   125    64    61    1
   126    87    86    2
   127    83    81    1
   128    89    90    1
   129    89    88    1
   130    90    91   ar
   131    54    52    1
   132    94    93    1
   133    94    97    1
   134    61    62    1
   135    61    60    1
   136    82    81    1
   137    81    78    1
   138    53    52    1
   139    86    93   am
   140    86    85    1
   141    98    97    1
   142    59    56    1
   143    52    51    2
   144    62    63    2
   145    88    85    1
   146    84    85    1
   147    84    79   am
   148    78    79    1
   149    78    77    1
   150    79    80    2
   151    44    45    1
   152    56    57    1
   153    56    55    1
   154    51    50    1
   155    57    58    2
   156    48    45    1
   157    48    49    1
   158    45    46    1
   159    49    50    1
   160    46    47    2
