@<TRIPOS>MOLECULE
tmp/5jkvA02.pdb
 91 87 0 0 0
SMALL
GASTEIGER

@<TRIPOS>ATOM
      1  N         97.0870   50.9030   35.9020 N.3   101  ARG101     -0.1245
      2  CA        95.7370   50.3770   35.6620 C.3   101  ARG101      0.1563
      3  C         95.6500   49.0430   34.8640 C.2   101  ARG101      0.2260
      4  O         94.8650   48.1730   35.2570 O.2   101  ARG101     -0.2867
      5  CB        94.8170   51.4580   35.0690 C.3   101  ARG101      0.0307
      6  CG        93.3400   51.1010   35.1030 C.3   101  ARG101      0.0489
      7  CD        92.4770   52.2340   34.5900 C.3   101  ARG101      0.2205
      8  NE        91.1910   51.7590   34.0730 N.pl3 101  ARG101     -0.0865
      9  CZ        90.0560   51.6910   34.7690 C.cat 101  ARG101      0.5346
     10  NH1       90.0070   52.0650   36.0410 N.pl3 101  ARG101      0.1354
     11  NH2       88.9530   51.2480   34.1830 N.pl3 101  ARG101      0.1354
     12  N         93.1270   45.7000   35.3500 N.3   105  MET105     -0.1245
     13  CA        92.2100   45.3340   34.2630 C.3   105  MET105      0.1570
     14  C         92.3500   43.8800   33.7950 C.2   105  MET105      0.2261
     15  O         91.3450   43.2060   33.5560 O.2   105  MET105     -0.2867
     16  CB        92.3580   46.2960   33.0780 C.3   105  MET105      0.0387
     17  CG        91.9900   47.7440   33.3770 C.3   105  MET105      0.0595
     18  SD        90.3510   47.9860   34.1000 S.3   105  MET105     -0.1393
     19  CE        89.2840   47.7420   32.6810 C.3   105  MET105      0.0692
     20  N         72.8350   52.5860   29.4050 N.3   380  TYR380     -0.1241
     21  CA        73.9380   52.8110   30.3440 C.3   380  TYR380      0.1605
     22  C         74.3140   54.2810   30.5190 C.2   380  TYR380      0.2264
     23  O         75.1190   54.6190   31.3860 O.2   380  TYR380     -0.2867
     24  CB        75.1460   51.9020   30.0490 C.3   380  TYR380      0.0534
     25  CG        76.1090   52.3140   28.9400 C.ar  380  TYR380     -0.0201
     26  CD1       77.0650   53.3210   29.1460 C.ar  380  TYR380     -0.0009
     27  CD2       76.1190   51.6380   27.7080 C.ar  380  TYR380     -0.0009
     28  CE1       77.9630   53.6790   28.1450 C.ar  380  TYR380      0.0417
     29  CE2       77.0200   51.9850   26.7030 C.ar  380  TYR380      0.0417
     30  CZ        77.9380   53.0050   26.9280 C.ar  380  TYR380      0.1957
     31  OH        78.8380   53.3610   25.9510 O.3   380  TYR380     -0.2866
     32  N         74.5070   54.3660   35.9730 N.3   384  GLN384     -0.1245
     33  CA        75.9370   54.1750   36.1350 C.3   384  GLN384      0.1566
     34  C         76.3500   53.8120   37.5680 C.2   384  GLN384      0.2260
     35  O         76.9280   54.6410   38.2760 O.2   384  GLN384     -0.2867
     36  CB        76.6910   55.3990   35.6020 C.3   384  GLN384      0.0367
     37  CG        76.8740   55.3630   34.0920 C.3   384  GLN384      0.0905
     38  CD        77.6780   54.1570   33.6400 C.2   384  GLN384      0.2608
     39  OE1       78.7320   53.8750   34.1890 O.2   384  GLN384     -0.2717
     40  NE2       77.1740   53.4340   32.6470 N.am  384  GLN384     -0.0878
     41  N         81.8240   54.2440   33.9390 N.3   388  PHE388     -0.1227
     42  CA        82.2730   53.6720   32.6620 C.3   388  PHE388      0.1736
     43  C         83.4350   54.5130   32.1070 C.2   388  PHE388      0.2596
     44  O         83.8270   55.5160   32.7090 O.2   388  PHE388     -0.2718
     45  CB        81.0950   53.5660   31.6650 C.3   388  PHE388      0.0547
     46  CG        80.7920   54.8530   30.9480 C.ar  388  PHE388     -0.0202
     47  CD1       81.2860   55.0850   29.6610 C.ar  388  PHE388     -0.0042
     48  CD2       80.0370   55.8460   31.5620 C.ar  388  PHE388     -0.0042
     49  CE1       81.0360   56.2840   29.0090 C.ar  388  PHE388     -0.0003
     50  CE2       79.7830   57.0460   30.9170 C.ar  388  PHE388     -0.0003
     51  CZ        80.2910   57.2670   29.6420 C.ar  388  PHE388     -0.0000
     52  N         83.9770   54.1040   30.9620 N.am  389  GLY389     -0.1957
     53  CA        85.0280   54.8610   30.2960 C.3   389  GLY389      0.1869
     54  C         86.3910   54.5110   30.8610 C.2   389  GLY389      0.2309
     55  O         86.5050   53.5340   31.6080 O.2   389  GLY389     -0.2863
     56  N         86.4640   54.0650   34.7550 N.3   392  GLY392     -0.1210
     57  CA        85.3230   53.3890   35.3880 C.3   392  GLY392      0.1956
     58  C         85.8170   52.2790   36.3000 C.2   392  GLY392      0.2612
     59  O         87.0070   51.9310   36.2500 O.2   392  GLY392     -0.2717
     60  N         84.9230   51.7210   37.1240 N.am  393  CYS393     -0.1956
     61  CA        85.2870   50.6580   38.0730 C.3   393  CYS393      0.1843
     62  C         86.0720   49.5650   37.3650 C.2   393  CYS393      0.2625
     63  O         85.5980   48.9920   36.3810 O.2   393  CYS393     -0.2714
     64  CB        84.0560   50.0560   38.7620 C.3   393  CYS393      0.0997
     65  SG        84.4280   48.8050   40.0160 S.3   393  CYS393     -0.0797
     66  N         87.2850   49.3120   37.8530 N.am  394  ALA394     -0.1977
     67  CA        88.1490   48.2710   37.3010 C.3   394  ALA394      0.1597
     68  C         87.5350   46.8870   37.4830 C.2   394  ALA394      0.2287
     69  O         87.7420   45.9980   36.6560 O.2   394  ALA394     -0.2864
     70  CB        89.5270   48.3320   37.9380 C.3   394  ALA394      0.0319
     71  N         84.2230   46.2300   37.6000 N.3   396  LYS396     -0.1231
     72  CA        82.7860   46.3460   37.2740 C.3   396  LYS396      0.1693
     73  C         82.1050   45.0670   36.7610 C.2   396  LYS396      0.2592
     74  O         80.9310   44.8300   37.0600 O.2   396  LYS396     -0.2718
     75  CB        82.5090   47.5380   36.3430 C.3   396  LYS396      0.0285
     76  CG        82.7370   47.3110   34.8560 C.3   396  LYS396      0.0035
     77  CD        82.5380   48.5960   34.0710 C.3   396  LYS396      0.0206
     78  CE        81.0780   48.9260   33.8160 C.3   396  LYS396      0.1093
     79  NZ        80.9460   50.1650   33.0020 N.3   396  LYS396     -0.1314
     80  N         82.8400   44.2550   36.0050 N.am  397  TYR397     -0.1976
     81  CA        82.2830   43.0240   35.4500 C.3   397  TYR397      0.1639
     82  C         82.3770   41.8690   36.4410 C.2   397  TYR397      0.2290
     83  O         81.3850   41.1660   36.6630 O.2   397  TYR397     -0.2864
     84  CB        82.9010   42.6890   34.0810 C.3   397  TYR397      0.0560
     85  CG        82.6470   43.7640   33.0370 C.ar  397  TYR397     -0.0198
     86  CD1       83.7120   44.4790   32.4640 C.ar  397  TYR397     -0.0009
     87  CD2       81.3370   44.0910   32.6410 C.ar  397  TYR397     -0.0009
     88  CE1       83.4800   45.4770   31.5190 C.ar  397  TYR397      0.0417
     89  CE2       81.0950   45.0860   31.7010 C.ar  397  TYR397      0.0417
     90  CZ        82.1650   45.7740   31.1430 C.ar  397  TYR397      0.1957
     91  OH        81.9190   46.7580   30.2110 O.3   397  TYR397     -0.2866
@<TRIPOS>BOND
     1    31    30    1
     2    29    30   ar
     3    29    27   ar
     4    30    28   ar
     5    27    25   ar
     6    28    26   ar
     7    25    26   ar
     8    25    24    1
     9    49    51   ar
    10    49    47   ar
    11    20    21    1
    12    51    50   ar
    13    47    46   ar
    14    24    21    1
    15    91    90    1
    16    53    54    1
    17    53    52    1
    18    21    22    1
    19    22    23    2
    20    54    55    2
    21    50    48   ar
    22    46    48   ar
    23    46    45    1
    24    52    43   am
    25    90    88   ar
    26    90    89   ar
    27    88    86   ar
    28    45    42    1
    29    89    87   ar
    30    43    42    1
    31    43    44    2
    32    86    85   ar
    33    87    85   ar
    34    40    38   am
    35    42    41    1
    36    19    18    1
    37    79    78    1
    38    85    84    1
    39    16    17    1
    40    16    13    1
    41    17    18    1
    42    15    14    2
    43    38    37    1
    44    38    39    2
    45    14    13    1
    46    78    77    1
    47    77    76    1
    48     8     7    1
    49     8     9    2
    50    84    81    1
    51    37    36    1
    52    11     9    1
    53    13    12    1
    54     7     6    1
    55    56    57    1
    56     9    10    1
    57    76    75    1
    58     3     4    2
    59     3     2    1
    60     5     6    1
    61     5     2    1
    62    57    58    1
    63    81    80    1
    64    81    82    1
    65    36    33    1
    66     2     1    1
    67    32    33    1
    68    80    73   am
    69    33    34    1
    70    59    58    2
    71    58    60   am
    72    75    72    1
    73    63    62    2
    74    82    83    2
    75    69    68    2
    76    73    74    2
    77    73    72    1
    78    60    61    1
    79    72    71    1
    80    67    68    1
    81    67    66    1
    82    67    70    1
    83    62    66   am
    84    62    61    1
    85    34    35    2
    86    61    64    1
    87    64    65    1
