@<TRIPOS>MOLECULE
tmp/5jlbA00.pdb
 198 201 0 0 0
SMALL
GASTEIGER

@<TRIPOS>ATOM
      1  N        -12.0080   -5.4090  -14.6940 N.3   104  LYS104     -0.1231
      2  CA       -11.3660   -4.2420  -15.2970 C.3   104  LYS104      0.1693
      3  C        -11.6290   -2.9300  -14.5600 C.2   104  LYS104      0.2592
      4  O        -11.3550   -1.8650  -15.1230 O.2   104  LYS104     -0.2718
      5  CB       -11.6590   -4.0960  -16.8040 C.3   104  LYS104      0.0285
      6  CG       -13.0600   -4.4540  -17.2350 C.3   104  LYS104      0.0035
      7  CD       -13.1760   -4.3860  -18.7640 C.3   104  LYS104      0.0206
      8  CE       -14.5690   -4.7330  -19.2190 C.3   104  LYS104      0.1093
      9  NZ       -14.8140   -6.1960  -19.1080 N.3   104  LYS104     -0.1314
     10  N        -12.1250   -2.9600  -13.3260 N.am  105  LYS105     -0.1966
     11  CA       -12.3360   -1.7290  -12.5750 C.3   105  LYS105      0.1728
     12  C        -11.3560   -1.5710  -11.4260 C.2   105  LYS105      0.2617
     13  O        -11.3970   -0.5460  -10.7350 O.2   105  LYS105     -0.2715
     14  CB       -13.7760   -1.6540  -12.0600 C.3   105  LYS105      0.0311
     15  CG       -14.8100   -1.7270  -13.1890 C.3   105  LYS105      0.0038
     16  CD       -16.2350   -1.8450  -12.6560 C.3   105  LYS105      0.0206
     17  CE       -16.3870   -3.0460  -11.7140 C.3   105  LYS105      0.1093
     18  NZ       -17.8240   -3.4280  -11.5070 N.3   105  LYS105     -0.1314
     19  N        -10.4540   -2.5290  -11.2320 N.am  106  GLY106     -0.1940
     20  CA        -9.6170   -2.5550  -10.0480 C.3   106  GLY106      0.2014
     21  C        -10.2760   -3.3980   -8.9820 C.2   106  GLY106      0.2638
     22  O        -10.9980   -4.3500   -9.2900 O.2   106  GLY106     -0.2714
     23  N        -10.0490   -3.0650   -7.7260 N.am  107  TRP107     -0.1973
     24  CA       -10.7060   -3.7890   -6.6540 C.3   107  TRP107      0.1640
     25  C        -12.0990   -3.2070   -6.4210 C.2   107  TRP107      0.2290
     26  O        -12.4260   -2.1060   -6.8730 O.2   107  TRP107     -0.2864
     27  CB        -9.8470   -3.7560   -5.3830 C.3   107  TRP107      0.0576
     28  CG        -8.5730   -4.5490   -5.5560 C.ar  107  TRP107      0.0006
     29  CD1       -7.4590   -4.1640   -6.2460 C.ar  107  TRP107      0.0946
     30  CD2       -8.3050   -5.8650   -5.0580 C.ar  107  TRP107      0.0152
     31  NE1       -6.5050   -5.1560   -6.1880 N.ar  107  TRP107     -0.2442
     32  CE2       -7.0010   -6.2090   -5.4670 C.ar  107  TRP107      0.0810
     33  CE3       -9.0370   -6.7780   -4.2920 C.ar  107  TRP107      0.0012
     34  CZ2       -6.4110   -7.4360   -5.1420 C.ar  107  TRP107      0.0191
     35  CZ3       -8.4440   -8.0020   -3.9650 C.ar  107  TRP107      0.0001
     36  CH2       -7.1480   -8.3140   -4.3970 C.ar  107  TRP107      0.0015
     37  N         -4.6140    6.3980  -11.7490 N.3   147  ILE147     -0.1231
     38  CA        -5.7740    5.9330  -12.4980 C.3   147  ILE147      0.1692
     39  C         -7.0570    6.1250  -11.7080 C.2   147  ILE147      0.2592
     40  O         -8.0420    6.6650  -12.2140 O.2   147  ILE147     -0.2718
     41  CB        -5.5810    4.4620  -12.9090 C.3   147  ILE147      0.0266
     42  CG1       -4.4620    4.3630  -13.9430 C.3   147  ILE147      0.0019
     43  CG2       -6.8860    3.8920  -13.4520 C.3   147  ILE147      0.0020
     44  CD1       -4.2160    2.9610  -14.3910 C.3   147  ILE147      0.0001
     45  N         -7.0720    5.7010  -10.4510 N.am  148  HIS148     -0.1962
     46  CA        -8.2780    5.7860   -9.6410 C.3   148  HIS148      0.1787
     47  C         -8.3310    7.1100   -8.8970 C.2   148  HIS148      0.2620
     48  O         -7.3040    7.6280   -8.4450 O.2   148  HIS148     -0.2715
     49  CB        -8.3170    4.6470   -8.6280 C.3   148  HIS148      0.0785
     50  CG        -8.2550    3.2920   -9.2570 C.ar  148  HIS148      0.0821
     51  ND1       -9.0710    2.9210  -10.3060 N.ar  148  HIS148     -0.2267
     52  CD2       -7.4490    2.2350   -9.0100 C.ar  148  HIS148      0.1154
     53  CE1       -8.7770    1.6830  -10.6650 C.ar  148  HIS148      0.1986
     54  NE2       -7.7870    1.2510   -9.9060 N.ar  148  HIS148     -0.2212
     55  N         -9.5440    7.6450   -8.7750 N.am  149  TYR149     -0.1960
     56  CA        -9.8010    8.8810   -8.0510 C.3   149  TYR149      0.1771
     57  C        -10.7450    8.6330   -6.8840 C.2   149  TYR149      0.2619
     58  O        -11.6590    7.7980   -6.9600 O.2   149  TYR149     -0.2715
     59  CB       -10.3070    9.9790   -9.0060 C.3   149  TYR149      0.0574
     60  CG        -9.1260   10.6590   -9.6410 C.ar  149  TYR149     -0.0198
     61  CD1       -8.4570   10.0720  -10.7160 C.ar  149  TYR149     -0.0009
     62  CD2       -8.6250   11.8310   -9.1120 C.ar  149  TYR149     -0.0009
     63  CE1       -7.3300   10.6770  -11.2620 C.ar  149  TYR149      0.0417
     64  CE2       -7.5120   12.4430   -9.6340 C.ar  149  TYR149      0.0417
     65  CZ        -6.8640   11.8660  -10.7100 C.ar  149  TYR149      0.1957
     66  OH        -5.7480   12.5040  -11.2040 O.3   149  TYR149     -0.2866
     67  N        -10.5000    9.3700   -5.7900 N.am  150  TYR150     -0.1974
     68  CA       -11.1430    9.0920   -4.5100 C.3   150  TYR150      0.1639
     69  C        -11.6530   10.3650   -3.8440 C.2   150  TYR150      0.2290
     70  O        -11.8130   10.3930   -2.6170 O.2   150  TYR150     -0.2864
     71  CB       -10.1810    8.3670   -3.5550 C.3   150  TYR150      0.0560
     72  CG        -9.5840    7.0780   -4.0860 C.ar  150  TYR150     -0.0198
     73  CD1       -8.3950    7.0940   -4.8230 C.ar  150  TYR150     -0.0009
     74  CD2      -10.1860    5.8520   -3.8330 C.ar  150  TYR150     -0.0009
     75  CE1       -7.8360    5.9150   -5.3090 C.ar  150  TYR150      0.0417
     76  CE2       -9.6320    4.6540   -4.3190 C.ar  150  TYR150      0.0417
     77  CZ        -8.4480    4.7060   -5.0390 C.ar  150  TYR150      0.1957
     78  OH        -7.8920    3.5470   -5.5220 O.3   150  TYR150     -0.2866
     79  N        -13.4120    2.9260    0.1740 N.3   170  ARG170     -0.1231
     80  CA       -12.7890    3.4970   -1.0110 C.3   170  ARG170      0.1694
     81  C        -12.7860    2.5260   -2.1740 C.2   170  ARG170      0.2592
     82  O        -12.4410    2.9410   -3.2820 O.2   170  ARG170     -0.2718
     83  CB       -11.3630    3.9500   -0.6870 C.3   170  ARG170      0.0321
     84  CG       -10.3740    2.8030   -0.4820 C.3   170  ARG170      0.0489
     85  CD        -9.1120    3.2470    0.2380 C.3   170  ARG170      0.2205
     86  NE        -8.1500    3.9960   -0.5810 N.pl3 170  ARG170     -0.0865
     87  CZ        -7.3620    3.4440   -1.5010 C.cat 170  ARG170      0.5346
     88  NH1       -7.4660    2.1490   -1.7940 N.pl3 170  ARG170      0.1354
     89  NH2       -6.4750    4.1930   -2.1430 N.pl3 170  ARG170      0.1354
     90  N        -13.1770    1.2690   -1.9540 N.am  171  PHE171     -0.1962
     91  CA       -13.2280    0.2980   -3.0380 C.3   171  PHE171      0.1771
     92  C        -14.5900    0.1940   -3.7100 C.2   171  PHE171      0.2619
     93  O        -14.7260   -0.5700   -4.6660 O.2   171  PHE171     -0.2715
     94  CB       -12.7440   -1.0740   -2.5490 C.3   171  PHE171      0.0574
     95  CG       -11.3080   -1.0600   -2.1140 C.ar  171  PHE171     -0.0200
     96  CD1      -10.3000   -0.8070   -3.0380 C.ar  171  PHE171     -0.0042
     97  CD2      -10.9620   -1.2850   -0.7930 C.ar  171  PHE171     -0.0042
     98  CE1       -8.9760   -0.7850   -2.6510 C.ar  171  PHE171     -0.0003
     99  CE2       -9.6370   -1.2590   -0.4070 C.ar  171  PHE171     -0.0003
    100  CZ        -8.6460   -1.0110   -1.3270 C.ar  171  PHE171     -0.0000
    101  N        -15.6010    0.9440   -3.2800 N.am  172  MET172     -0.1963
    102  CA       -16.9060    0.7910   -3.9150 C.3   172  MET172      0.1736
    103  C        -16.9060    1.4090   -5.3080 C.2   172  MET172      0.2616
    104  O        -16.6500    2.6060   -5.4720 O.2   172  MET172     -0.2715
    105  CB       -18.0270    1.3950   -3.0810 C.3   172  MET172      0.0427
    106  CG       -19.4030    0.9850   -3.6420 C.3   172  MET172      0.0599
    107  SD       -20.8360    1.4340   -2.6370 S.3   172  MET172     -0.1393
    108  CE       -20.5400    0.4340   -1.1890 C.3   172  MET172      0.0692
    109  N        -17.2290    0.5960   -6.2980 N.am  173  ASN173     -0.1958
    110  CA       -17.2000    1.0410   -7.6800 C.3   173  ASN173      0.1819
    111  C        -18.4990    1.7240   -8.0930 C.2   173  ASN173      0.2621
    112  O        -19.5220    1.6690   -7.4040 O.2   173  ASN173     -0.2715
    113  CB       -16.8680   -0.1430   -8.5760 C.3   173  ASN173      0.1195
    114  CG       -15.4170   -0.5300   -8.4570 C.2   173  ASN173      0.2630
    115  OD1      -14.5460    0.3400   -8.4690 O.2   173  ASN173     -0.2716
    116  ND2      -15.1390   -1.8270   -8.3230 N.am  173  ASN173     -0.0877
    117  N        -18.4310    2.4010   -9.2340 N.am  174  HIS174     -0.1973
    118  CA       -19.5790    3.0930   -9.7920 C.3   174  HIS174      0.1656
    119  C        -20.4280    2.1320  -10.6060 C.2   174  HIS174      0.2291
    120  O        -19.9000    1.2890  -11.3360 O.2   174  HIS174     -0.2864
    121  CB       -19.1010    4.1840  -10.7510 C.3   174  HIS174      0.0771
    122  CG       -20.1980    4.7140  -11.6150 C.ar  174  HIS174      0.0820
    123  ND1      -21.1240    5.6320  -11.1600 N.ar  174  HIS174     -0.2267
    124  CD2      -20.5590    4.4080  -12.8870 C.ar  174  HIS174      0.1154
    125  CE1      -21.9960    5.8830  -12.1240 C.ar  174  HIS174      0.1986
    126  NE2      -21.6720    5.1550  -13.1810 N.ar  174  HIS174     -0.2212
    127  N        -21.8190    7.3700   -8.8600 N.3   211  TYR211     -0.1241
    128  CA       -20.9040    8.4320   -8.4500 C.3   211  TYR211      0.1605
    129  C        -21.4290    9.8190   -8.7750 C.2   211  TYR211      0.2264
    130  O        -20.9920   10.7850   -8.1470 O.2   211  TYR211     -0.2867
    131  CB       -19.5540    8.3060   -9.1550 C.3   211  TYR211      0.0534
    132  CG       -18.6240    7.1980   -8.7220 C.ar  211  TYR211     -0.0201
    133  CD1      -19.0220    6.2010   -7.8430 C.ar  211  TYR211     -0.0009
    134  CD2      -17.3230    7.1600   -9.2060 C.ar  211  TYR211     -0.0009
    135  CE1      -18.1370    5.1820   -7.4810 C.ar  211  TYR211      0.0417
    136  CE2      -16.4470    6.1740   -8.8420 C.ar  211  TYR211      0.0417
    137  CZ       -16.8570    5.1920   -7.9560 C.ar  211  TYR211      0.1957
    138  OH       -15.9750    4.1930   -7.6070 O.3   211  TYR211     -0.2866
    139  N        -20.4030   11.4790  -11.1290 N.3   213  PHE213     -0.1241
    140  CA       -19.0370   11.9690  -11.1530 C.3   213  PHE213      0.1605
    141  C        -18.9630   13.2900  -11.9060 C.2   213  PHE213      0.2264
    142  O        -19.5420   13.4400  -12.9880 O.2   213  PHE213     -0.2867
    143  CB       -18.2000   10.9130  -11.8620 C.3   213  PHE213      0.0534
    144  CG       -16.7240   11.0690  -11.7120 C.ar  213  PHE213     -0.0203
    145  CD1      -16.1060   10.9140  -10.4710 C.ar  213  PHE213     -0.0042
    146  CD2      -15.9400   11.3150  -12.8250 C.ar  213  PHE213     -0.0042
    147  CE1      -14.7360   11.0160  -10.3630 C.ar  213  PHE213     -0.0003
    148  CE2      -14.5720   11.4140  -12.7160 C.ar  213  PHE213     -0.0003
    149  CZ       -13.9700   11.2570  -11.4880 C.ar  213  PHE213     -0.0000
    150  N        -13.0170    8.3460  -18.2760 N.3   221  GLN221     -0.1231
    151  CA       -12.8660    6.9120  -18.0920 C.3   221  GLN221      0.1698
    152  C        -14.1230    6.2080  -18.5930 C.2   221  GLN221      0.2592
    153  O        -15.2430    6.5840  -18.2340 O.2   221  GLN221     -0.2718
    154  CB       -12.6630    6.6160  -16.6070 C.3   221  GLN221      0.0381
    155  CG       -12.8770    5.1590  -16.2170 C.3   221  GLN221      0.0905
    156  CD       -11.7290    4.2610  -16.6470 C.2   221  GLN221      0.2608
    157  OE1      -10.5810    4.4860  -16.2540 O.2   221  GLN221     -0.2717
    158  NE2      -12.0350    3.2290  -17.4480 N.am  221  GLN221     -0.0878
    159  N        -13.9380    5.1930  -19.4310 N.am  222  LYS222     -0.1966
    160  CA       -15.0660    4.3900  -19.8780 C.3   222  LYS222      0.1728
    161  C        -15.6490    3.6200  -18.7030 C.2   222  LYS222      0.2616
    162  O        -14.9240    3.1680  -17.8090 O.2   222  LYS222     -0.2715
    163  CB       -14.6130    3.4330  -20.9840 C.3   222  LYS222      0.0311
    164  CG       -14.3720    4.1530  -22.2950 C.3   222  LYS222      0.0038
    165  CD       -14.1280    3.1900  -23.4510 C.3   222  LYS222      0.0206
    166  CE       -13.8480    3.9780  -24.7190 C.3   222  LYS222      0.1093
    167  NZ       -13.7710    3.1180  -25.9420 N.3   222  LYS222     -0.1314
    168  N        -16.9730    3.4930  -18.6960 N.am  223  CYS223     -0.1954
    169  CA       -17.6710    2.7970  -17.6220 C.3   223  CYS223      0.1843
    170  C        -17.8460    1.3290  -17.9780 C.2   223  CYS223      0.2625
    171  O        -18.3440    0.9990  -19.0620 O.2   223  CYS223     -0.2714
    172  CB       -19.0460    3.4120  -17.3800 C.3   223  CYS223      0.0997
    173  SG       -19.8930    2.6110  -15.9730 S.3   223  CYS223     -0.0797
    174  N        -17.4400    0.4490  -17.0610 N.am  224  PHE224     -0.1960
    175  CA       -17.5680   -0.9890  -17.2330 C.3   224  PHE224      0.1771
    176  C        -18.6180   -1.5930  -16.3040 C.2   224  PHE224      0.2619
    177  O        -18.5330   -2.7710  -15.9450 O.2   224  PHE224     -0.2715
    178  CB       -16.2180   -1.6940  -17.0810 C.3   224  PHE224      0.0574
    179  CG       -15.1450   -1.1620  -17.9910 C.ar  224  PHE224     -0.0200
    180  CD1      -15.3420   -1.0940  -19.3610 C.ar  224  PHE224     -0.0042
    181  CD2      -13.9400   -0.7270  -17.4680 C.ar  224  PHE224     -0.0042
    182  CE1      -14.3390   -0.6010  -20.2000 C.ar  224  PHE224     -0.0003
    183  CE2      -12.9470   -0.2390  -18.2920 C.ar  224  PHE224     -0.0003
    184  CZ       -13.1490   -0.1700  -19.6510 C.ar  224  PHE224     -0.0000
    185  N        -19.6380   -0.8130  -15.9370 N.am  225  CYS225     -0.1968
    186  CA       -20.6300   -1.3230  -14.9920 C.3   225  CYS225      0.1712
    187  C        -21.4830   -2.4340  -15.5970 C.2   225  CYS225      0.2296
    188  O        -22.0060   -3.2770  -14.8610 O.2   225  CYS225     -0.2864
    189  CB       -21.4960   -0.1790  -14.4390 C.3   225  CYS225      0.0983
    190  SG       -22.8540    0.3850  -15.5290 S.3   225  CYS225     -0.0798
    191  N        -17.6240    7.4600  -16.9460 N.3   234  LEU234     -0.1245
    192  CA       -17.7090    8.0770  -15.6300 C.3   234  LEU234      0.1561
    193  C        -17.6500    9.5930  -15.8000 C.2   234  LEU234      0.2260
    194  O        -16.6560   10.1410  -16.2870 O.2   234  LEU234     -0.2867
    195  CB       -16.5530    7.6060  -14.7460 C.3   234  LEU234      0.0270
    196  CG       -16.7680    6.4110  -13.8200 C.3   234  LEU234      0.0019
    197  CD1      -17.3200    5.2260  -14.5590 C.3   234  LEU234      0.0001
    198  CD2      -15.4510    6.0460  -13.1340 C.3   234  LEU234      0.0001
@<TRIPOS>BOND
     1   167   166    1
     2   166   165    1
     3   165   164    1
     4   164   163    1
     5   163   160    1
     6   182   184   ar
     7   182   180   ar
     8   160   159    1
     9   160   161    1
    10   184   183   ar
    11   159   152   am
    12   180   179   ar
    13     8     9    1
    14     8     7    1
    15   171   170    2
    16     7     6    1
    17   161   168   am
    18   161   162    2
    19   168   169    1
    20   152   153    2
    21   152   151    1
    22   183   181   ar
    23   150   151    1
    24   151   154    1
    25   179   181   ar
    26   179   178    1
    27   170   169    1
    28   170   174   am
    29   169   172    1
    30   158   156   am
    31   172   173    1
    32     6     5    1
    33   175   178    1
    34   175   174    1
    35   175   176    1
    36   191   192    1
    37     5     2    1
    38   156   157    2
    39   156   155    1
    40   154   155    1
    41   176   177    2
    42   176   185   am
    43   194   193    2
    44   185   186    1
    45   193   192    1
    46   192   195    1
    47   187   186    1
    48   187   188    2
    49   190   189    1
    50     2     1    1
    51     2     3    1
    52     4     3    2
    53   186   189    1
    54   195   196    1
    55     3    10   am
    56   197   196    1
    57    44    42    1
    58    42    41    1
    59   196   198    1
    60    43    41    1
    61    10    11    1
    62    15    16    1
    63    15    14    1
    64   126   124   ar
    65   126   125   ar
    66   142   141    2
    67    41    38    1
    68   124   122   ar
    69   146   148   ar
    70   146   144   ar
    71   148   149   ar
    72    16    17    1
    73    11    14    1
    74    11    12    1
    75    38    37    1
    76    38    39    1
    77    40    39    2
    78   125   123   ar
    79   141   140    1
    80   143   144    1
    81   143   140    1
    82    17    18    1
    83   144   145   ar
    84    39    45   am
    85   122   123   ar
    86   122   121    1
    87   149   147   ar
    88    12    19   am
    89    12    13    2
    90   120   119    2
    91    63    61   ar
    92    63    65   ar
    93    19    20    1
    94    66    65    1
    95   140   139    1
    96   121   118    1
    97    61    60   ar
    98    65    64   ar
    99    53    51   ar
   100    53    54   ar
   101   119   118    1
   102   145   147   ar
   103    45    46    1
   104    51    50   ar
   105    20    21    1
   106    54    52   ar
   107   118   117    1
   108    60    62   ar
   109    60    59    1
   110    46    47    1
   111    46    49    1
   112    64    62   ar
   113    22    21    2
   114    50    52   ar
   115    50    49    1
   116   117   111   am
   117   134   136   ar
   118   134   132   ar
   119   131   132    1
   120   131   128    1
   121    59    56    1
   122    21    23   am
   123    47    55   am
   124    47    48    2
   125   127   128    1
   126   136   137   ar
   127   129   128    1
   128   129   130    2
   129    55    56    1
   130   132   133   ar
   131   113   114    1
   132   113   110    1
   133   115   114    2
   134   114   116   am
   135   111   110    1
   136   111   112    2
   137    56    57    1
   138   137   138    1
   139   137   135   ar
   140   133   135   ar
   141    23    24    1
   142   110   109    1
   143    58    57    2
   144    57    67   am
   145    26    25    2
   146    24    25    1
   147    24    27    1
   148   109   103   am
   149    29    31   ar
   150    29    28   ar
   151    31    32   ar
   152    67    68    1
   153    28    27    1
   154    28    30   ar
   155    78    77    1
   156   104   103    2
   157    32    34   ar
   158    32    30   ar
   159    75    77   ar
   160    75    73   ar
   161   103   102    1
   162    34    36   ar
   163    30    33   ar
   164    77    76   ar
   165    73    72   ar
   166    93    92    2
   167    68    69    1
   168    68    71    1
   169    36    35   ar
   170    76    74   ar
   171    33    35   ar
   172    72    74   ar
   173    72    71    1
   174   102   101    1
   175   102   105    1
   176    69    70    2
   177    92   101   am
   178    92    91    1
   179   106   105    1
   180   106   107    1
   181    82    81    2
   182    96    98   ar
   183    96    95   ar
   184    91    94    1
   185    91    90    1
   186    98   100   ar
   187   107   108    1
   188    94    95    1
   189    81    90   am
   190    81    80    1
   191    89    87    1
   192    95    97   ar
   193    88    87    1
   194    87    86    2
   195   100    99   ar
   196    80    83    1
   197    80    79    1
   198    97    99   ar
   199    83    84    1
   200    86    85    1
   201    84    85    1
