@<TRIPOS>MOLECULE
tmp/5jljA00.pdb
 197 193 0 0 0
SMALL
GASTEIGER

@<TRIPOS>ATOM
      1  N          2.6410   35.1330   29.9200 N.3    11  GLY11      -0.1210
      2  CA         3.1970   35.6070   28.6610 C.3    11  GLY11       0.1956
      3  C          2.0880   36.1350   27.7700 C.2    11  GLY11       0.2612
      4  O          1.0060   35.5400   27.6810 O.2    11  GLY11      -0.2717
      5  N          2.3390   37.2800   27.1360 N.am   12  GLY12      -0.1942
      6  CA         1.4130   37.9050   26.2210 C.3    12  GLY12       0.2014
      7  C          0.5060   38.9500   26.8350 C.2    12  GLY12       0.2640
      8  O         -0.2920   39.5500   26.1080 O.2    12  GLY12      -0.2714
      9  N          0.6300   39.2160   28.1380 N.am   13  THR13      -0.1936
     10  CA        -0.2740   40.1350   28.8230 C.3    13  THR13       0.2028
     11  C          0.0910   41.6010   28.6270 C.2    13  THR13       0.2643
     12  O         -0.7510   42.4650   28.8760 O.2    13  THR13      -0.2714
     13  CB        -0.3120   39.8120   30.3160 C.3    13  THR13       0.1808
     14  OG1        1.0100   39.8540   30.8680 O.3    13  THR13      -0.2208
     15  CG2       -0.8930   38.4300   30.5170 C.3    13  THR13       0.0379
     16  N          1.3180   41.9010   28.1930 N.am   14  GLY14      -0.1939
     17  CA         1.6580   43.2610   27.8110 C.3    14  GLY14       0.2014
     18  C          2.5950   43.9650   28.7710 C.2    14  GLY14       0.2639
     19  O          2.6660   45.1990   28.7910 O.2    14  GLY14      -0.2714
     20  N          3.3510   43.1760   29.5330 N.am   15  LYS15      -0.1963
     21  CA         4.2920   43.7190   30.5040 C.3    15  LYS15       0.1728
     22  C          5.3520   44.5860   29.8320 C.2    15  LYS15       0.2617
     23  O          5.5470   45.7500   30.2050 O.2    15  LYS15      -0.2715
     24  CB         4.9510   42.5680   31.2680 C.3    15  LYS15       0.0311
     25  CG         3.9800   41.7520   32.1330 C.3    15  LYS15       0.0038
     26  CD         4.7460   40.7610   32.9920 C.3    15  LYS15       0.0206
     27  CE         4.5680   39.3400   32.5220 C.3    15  LYS15       0.1093
     28  NZ         5.0110   39.1310   31.1370 N.3    15  LYS15      -0.1314
     29  N          6.0860   44.0160   28.8600 N.am   16  THR16      -0.1937
     30  CA         7.1780   44.7410   28.2170 C.3    16  THR16       0.2028
     31  C          6.6450   45.9190   27.3970 C.2    16  THR16       0.2642
     32  O          7.2570   46.9900   27.3700 O.2    16  THR16      -0.2714
     33  CB         7.9950   43.7750   27.3410 C.3    16  THR16       0.1808
     34  OG1        8.6070   42.7590   28.1590 O.3    16  THR16      -0.2208
     35  CG2        9.0590   44.4910   26.5580 C.3    16  THR16       0.0379
     36  N          5.4960   45.7480   26.7360 N.am   17  THR17      -0.1950
     37  CA         4.8680   46.8550   26.0220 C.3    17  THR17       0.1897
     38  C          4.4940   47.9770   26.9790 C.2    17  THR17       0.2313
     39  O          4.6590   49.1600   26.6600 O.2    17  THR17      -0.2863
     40  CB         3.6190   46.3580   25.2940 C.3    17  THR17       0.1794
     41  OG1        3.9240   45.1770   24.5380 O.3    17  THR17      -0.2208
     42  CG2        3.0910   47.4260   24.3570 C.3    17  THR17       0.0378
     43  N          4.6730   52.3980   21.2440 N.3    27  PHE27      -0.1227
     44  CA         3.8030   51.2410   21.3880 C.3    27  PHE27       0.1736
     45  C          4.3300   50.1210   20.5030 C.2    27  PHE27       0.2595
     46  O          4.2590   50.2140   19.2730 O.2    27  PHE27      -0.2718
     47  CB         2.3560   51.5710   21.0250 C.3    27  PHE27       0.0547
     48  CG         1.4600   50.3840   21.1110 C.ar   27  PHE27      -0.0202
     49  CD1        1.0200   49.9320   22.3440 C.ar   27  PHE27      -0.0042
     50  CD2        1.1050   49.6800   19.9710 C.ar   27  PHE27      -0.0042
     51  CE1        0.2120   48.8100   22.4390 C.ar   27  PHE27      -0.0003
     52  CE2        0.3030   48.5600   20.0500 C.ar   27  PHE27      -0.0003
     53  CZ        -0.1450   48.1200   21.2770 C.ar   27  PHE27      -0.0000
     54  N          4.8450   49.0590   21.1270 N.am   28  GLU28      -0.1965
     55  CA         5.3570   47.9060   20.3910 C.3    28  GLU28       0.1733
     56  C          4.1940   46.9990   19.9860 C.2    28  GLU28       0.2616
     57  O          3.4190   46.5600   20.8420 O.2    28  GLU28      -0.2715
     58  CB         6.3660   47.1430   21.2450 C.3    28  GLU28       0.0429
     59  CG         6.9630   45.9190   20.5750 C.3    28  GLU28       0.1163
     60  CD         7.7780   46.2580   19.3680 C.2    28  GLU28       0.3649
     61  OE1        8.8070   46.9590   19.5160 O.co2  28  GLU28      -0.2457
     62  OE2        7.3800   45.8160   18.2710 O.co2  28  GLU28      -0.2457
     63  N          4.0680   46.7360   18.6830 N.am   29  LYS29      -0.1963
     64  CA         3.0530   45.8360   18.1570 C.3    29  LYS29       0.1728
     65  C          3.5190   44.3840   18.1240 C.2    29  LYS29       0.2616
     66  O          2.6980   43.4710   18.2700 O.2    29  LYS29      -0.2715
     67  CB         2.6580   46.2540   16.7380 C.3    29  LYS29       0.0311
     68  CG         1.8620   47.5390   16.6490 C.3    29  LYS29       0.0038
     69  CD         1.7120   47.9770   15.1890 C.3    29  LYS29       0.0206
     70  CE         0.7360   49.1470   15.0280 C.3    29  LYS29       0.1093
     71  NZ        -0.6810   48.7130   15.2220 N.3    29  LYS29      -0.1314
     72  N          4.8140   44.1550   17.9110 N.am   30  LYS30      -0.1963
     73  CA         5.3520   42.8030   17.8650 C.3    30  LYS30       0.1728
     74  C          5.4000   42.2120   19.2670 C.2    30  LYS30       0.2616
     75  O          5.4110   42.9320   20.2680 O.2    30  LYS30      -0.2715
     76  CB         6.7610   42.8020   17.2600 C.3    30  LYS30       0.0311
     77  CG         6.8660   43.4290   15.8740 C.3    30  LYS30       0.0038
     78  CD         8.2820   43.3370   15.3000 C.3    30  LYS30       0.0206
     79  CE         9.2820   44.1340   16.1210 C.3    30  LYS30       0.1093
     80  NZ         8.9360   45.5910   16.1580 N.3    30  LYS30      -0.1314
     81  N          5.4440   40.8840   19.3280 N.am   31  TYR31      -0.1960
     82  CA         5.5550   40.1450   20.5840 C.3    31  TYR31       0.1771
     83  C          6.8750   39.3640   20.5850 C.2    31  TYR31       0.2619
     84  O          6.9340   38.2070   20.1650 O.2    31  TYR31      -0.2715
     85  CB         4.3390   39.2300   20.7760 C.3    31  TYR31       0.0574
     86  CG         4.4670   38.2920   21.9560 C.ar   31  TYR31      -0.0198
     87  CD1        5.3280   38.5890   23.0140 C.ar   31  TYR31      -0.0009
     88  CD2        3.7570   37.0930   22.0000 C.ar   31  TYR31      -0.0009
     89  CE1        5.4730   37.7200   24.0790 C.ar   31  TYR31       0.0417
     90  CE2        3.9010   36.2190   23.0660 C.ar   31  TYR31       0.0417
     91  CZ         4.7670   36.5440   24.1070 C.ar   31  TYR31       0.1957
     92  OH         4.9490   35.7120   25.1960 O.3    31  TYR31      -0.2866
     93  N          7.9300   39.9990   21.0770 N.am   32  VAL32      -0.1963
     94  CA         9.1980   39.3280   21.3490 C.3    32  VAL32       0.1727
     95  C          9.1790   38.9050   22.8140 C.2    32  VAL32       0.2616
     96  O          9.1820   39.7490   23.7090 O.2    32  VAL32      -0.2715
     97  CB        10.4020   40.2370   21.0590 C.3    32  VAL32       0.0290
     98  CG1       11.6930   39.4440   21.1900 C.3    32  VAL32       0.0023
     99  CG2       10.2820   40.8680   19.6790 C.3    32  VAL32       0.0023
    100  N          9.1600   37.6050   23.0580 N.am   33  ALA33      -0.1963
    101  CA         9.0940   37.1050   24.4210 C.3    33  ALA33       0.1728
    102  C         10.3310   37.5130   25.1930 C.2    33  ALA33       0.2616
    103  O         11.4490   37.3150   24.7220 O.2    33  ALA33      -0.2715
    104  CB         8.9620   35.5820   24.4160 C.3    33  ALA33       0.0334
    105  N         10.1270   38.0860   26.3820 N.am   34  THR34      -0.1951
    106  CA        11.2500   38.4460   27.2490 C.3    34  THR34       0.1897
    107  C         12.0080   37.1890   27.6830 C.2    34  THR34       0.2313
    108  O         11.4040   36.1760   28.0470 O.2    34  THR34      -0.2863
    109  CB        10.7630   39.2270   28.4830 C.3    34  THR34       0.1794
    110  OG1       10.1950   40.4910   28.0970 O.3    34  THR34      -0.2208
    111  CG2       11.8980   39.5220   29.4150 C.3    34  THR34       0.0378
    112  N         11.3650   43.7120   34.5480 N.3    57  ASP57      -0.1225
    113  CA        10.3170   43.1970   33.6650 C.3    57  ASP57       0.1805
    114  C         10.6520   41.7480   33.3620 C.2    57  ASP57       0.2598
    115  O         11.5290   41.4730   32.5410 O.2    57  ASP57      -0.2718
    116  CB        10.2400   44.0250   32.3820 C.3    57  ASP57       0.1424
    117  CG         9.3270   43.4130   31.3260 C.2    57  ASP57       0.3668
    118  OD1        8.4140   42.6270   31.6770 O.co2  57  ASP57      -0.2456
    119  OD2        9.5260   43.7300   30.1310 O.co2  57  ASP57      -0.2456
    120  N          9.9600   40.8200   34.0390 N.am   58  THR58      -0.1939
    121  CA        10.2540   39.3930   33.9750 C.3    58  THR58       0.2028
    122  C          9.4740   38.7210   32.8480 C.2    58  THR58       0.2642
    123  O          8.4980   39.2540   32.3050 O.2    58  THR58      -0.2714
    124  CB         9.9430   38.6810   35.3010 C.3    58  THR58       0.1808
    125  OG1        8.5370   38.7310   35.5660 O.3    58  THR58      -0.2208
    126  CG2       10.7050   39.3050   36.4670 C.3    58  THR58       0.0379
    127  N          9.9110   37.5090   32.5340 N.am   59  ALA59      -0.1963
    128  CA         9.3100   36.6990   31.5000 C.3    59  ALA59       0.1728
    129  C          8.1000   35.9770   32.0520 C.2    59  ALA59       0.2617
    130  O          8.0890   35.5520   33.2060 O.2    59  ALA59      -0.2715
    131  CB        10.3200   35.6750   30.9740 C.3    59  ALA59       0.0334
    132  N          7.0860   35.8320   31.2110 N.am   60  GLY60      -0.1940
    133  CA         5.8850   35.0880   31.5640 C.3    60  GLY60       0.2014
    134  C          5.8840   33.6510   31.0730 C.2    60  GLY60       0.2638
    135  O          5.2450   32.7840   31.6710 O.2    60  GLY60      -0.2714
    136  N          6.5710   33.3970   29.9640 N.am   61  GLN61      -0.1977
    137  CA         6.6690   32.0460   29.4320 C.3    61  GLN61       0.1601
    138  C          7.4870   31.1900   30.3810 C.2    61  GLN61       0.2287
    139  O          8.5560   31.6000   30.8340 O.2    61  GLN61      -0.2864
    140  CB         7.3280   32.0570   28.0460 C.3    61  GLN61       0.0394
    141  CG         6.5970   32.8160   26.9600 C.3    61  GLN61       0.0908
    142  CD         5.2460   32.2260   26.6480 C.2    61  GLN61       0.2608
    143  OE1        5.0390   31.0270   26.8220 O.2    61  GLN61      -0.2717
    144  NE2        4.3070   33.0650   26.1940 N.am   61  GLN61      -0.0878
    145  N         -4.8260   44.2540   31.5840 N.3   114  ASN114     -0.1225
    146  CA        -4.3950   45.0010   30.4190 C.3   114  ASN114      0.1785
    147  C         -5.3020   44.6880   29.2400 C.2   114  ASN114      0.2597
    148  O         -6.0820   43.7360   29.2590 O.2   114  ASN114     -0.2718
    149  CB        -2.9400   44.6580   30.0800 C.3   114  ASN114      0.1169
    150  CG        -2.3150   45.6310   29.1060 C.2   114  ASN114      0.2627
    151  OD1       -2.7120   46.8000   29.0030 O.2   114  ASN114     -0.2716
    152  ND2       -1.3360   45.1490   28.3760 N.am  114  ASN114     -0.0877
    153  N         -5.2070   45.5240   28.2150 N.am  115  LYS115     -0.1980
    154  CA        -5.8750   45.3050   26.9250 C.3   115  LYS115      0.1596
    155  C         -7.3840   45.5390   27.0090 C.2   115  LYS115      0.2287
    156  O         -8.1580   44.8690   26.3270 O.2   115  LYS115     -0.2864
    157  CB        -5.5790   43.9070   26.3810 C.3   115  LYS115      0.0298
    158  CG        -4.1240   43.7210   26.0220 C.3   115  LYS115      0.0038
    159  CD        -3.7470   42.2590   25.8440 C.3   115  LYS115      0.0206
    160  CE        -2.4250   42.0960   25.1480 C.3   115  LYS115      0.1093
    161  NZ        -2.0830   40.7010   24.9600 N.3   115  LYS115     -0.1314
    162  N         -8.7440   47.9310   25.7340 N.3   117  ASP117     -0.1225
    163  CA        -9.0920   48.5860   24.4800 C.3   117  ASP117      0.1805
    164  C         -9.7480   47.6390   23.4920 C.2   117  ASP117      0.2597
    165  O        -10.3680   48.1050   22.5390 O.2   117  ASP117     -0.2718
    166  CB        -7.8370   49.1860   23.8440 C.3   117  ASP117      0.1424
    167  CG        -6.7820   48.1350   23.5250 C.2   117  ASP117      0.3668
    168  OD1       -6.0830   47.7470   24.4690 O.co2 117  ASP117     -0.2456
    169  OD2       -6.6390   47.7060   22.3490 O.co2 117  ASP117     -0.2456
    170  N         -9.5750   46.3310   23.6700 N.am  118  ILE118     -0.1980
    171  CA       -10.1950   45.3400   22.7960 C.3   118  ILE118      0.1595
    172  C        -11.6440   45.1390   23.2300 C.2   118  ILE118      0.2287
    173  O        -11.9180   44.9280   24.4160 O.2   118  ILE118     -0.2864
    174  CB        -9.4040   44.0210   22.8450 C.3   118  ILE118      0.0276
    175  CG1       -7.9520   44.2510   22.4070 C.3   118  ILE118      0.0022
    176  CG2      -10.0510   42.9830   21.9800 C.3   118  ILE118      0.0022
    177  CD1       -7.0770   43.0470   22.5960 C.3   118  ILE118      0.0001
    178  N         -4.7160   49.9340   29.5880 N.3   142  SER142     -0.1202
    179  CA        -4.3910   49.5990   28.2080 C.3   142  SER142      0.2020
    180  C         -3.1020   50.3160   27.8190 C.2   142  SER142      0.2619
    181  O         -3.0410   51.5510   27.8170 O.2   142  SER142     -0.2717
    182  CB        -5.5350   49.9920   27.2740 C.3   142  SER142      0.2103
    183  OG        -5.1650   49.8690   25.8980 O.3   142  SER142     -0.2182
    184  N         -2.0670   49.5460   27.5060 N.am  143  ALA143     -0.1965
    185  CA        -0.8410   50.1370   26.9940 C.3   143  ALA143      0.1728
    186  C         -1.0320   50.7090   25.5870 C.2   143  ALA143      0.2616
    187  O         -0.2400   51.5560   25.1600 O.2   143  ALA143     -0.2715
    188  CB         0.2760   49.0840   27.0020 C.3   143  ALA143      0.0334
    189  N         -2.0950   50.2920   24.8890 N.am  144  LYS144     -0.1977
    190  CA        -2.3690   50.7320   23.5250 C.3   144  LYS144      0.1596
    191  C         -3.0450   52.0990   23.5120 C.2   144  LYS144      0.2287
    192  O         -2.6950   52.9630   22.7040 O.2   144  LYS144     -0.2864
    193  CB        -3.2390   49.6820   22.8270 C.3   144  LYS144      0.0298
    194  CG        -3.5680   49.9720   21.3780 C.3   144  LYS144      0.0038
    195  CD        -3.4330   48.7000   20.5340 C.3   144  LYS144      0.0206
    196  CE        -4.3080   48.7170   19.2800 C.3   144  LYS144      0.1093
    197  NZ        -3.9520   49.8140   18.3690 N.3   144  LYS144     -0.1314
@<TRIPOS>BOND
     1    70    69    1
     2    70    71    1
     3    69    68    1
     4    78    77    1
     5    78    79    1
     6    77    76    1
     7    79    80    1
     8    68    67    1
     9    67    64    1
    10    76    73    1
    11    73    72    1
    12    73    74    1
    13    72    65   am
    14    65    64    1
    15    65    66    2
    16    64    63    1
    17    62    60   ar
    18   197   196    1
    19    63    56   am
    20    74    81   am
    21    74    75    2
    22    46    45    2
    23   196   195    1
    24    81    82    1
    25    60    61   ar
    26    60    59    1
    27    99    97    1
    28    50    52   ar
    29    50    48   ar
    30    56    55    1
    31    56    57    2
    32    52    53   ar
    33    84    83    2
    34    55    54    1
    35    55    58    1
    36    45    54   am
    37    45    44    1
    38   195   194    1
    39    59    58    1
    40    82    83    1
    41    82    85    1
    42    83    93   am
    43    85    86    1
    44    47    48    1
    45    47    44    1
    46    97    98    1
    47    97    94    1
    48    93    94    1
    49    48    49   ar
    50    43    44    1
    51    53    51   ar
    52    94    95    1
    53   194   193    1
    54    86    88   ar
    55    86    87   ar
    56   176   174    1
    57    88    90   ar
    58    49    51   ar
    59   169   167   ar
    60   175   177    1
    61   175   174    1
    62   165   164    2
    63   192   191    2
    64   171   174    1
    65   171   172    1
    66   171   170    1
    67    95   100   am
    68    95    96    2
    69   193   190    1
    70    87    89   ar
    71   100   101    1
    72    90    91   ar
    73   172   173    2
    74   164   170   am
    75   164   163    1
    76   191   190    1
    77   167   166    1
    78   167   168   ar
    79   190   189    1
    80   166   163    1
    81    89    91   ar
    82    91    92    1
    83    42    40    1
    84   104   101    1
    85   101   102    1
    86   163   162    1
    87    41    40    1
    88   103   102    2
    89   189   186   am
    90   161   160    1
    91   160   159    1
    92   187   186    2
    93   102   105   am
    94    40    37    1
    95   186   185    1
    96   159   158    1
    97   183   182    1
    98    37    36    1
    99    37    38    1
   100   158   157    1
   101     8     7    2
   102   144   142   am
   103     6     7    1
   104     6     5    1
   105   156   155    2
   106   157   154    1
   107   105   106    1
   108    35    33    1
   109   142   143    2
   110   142   141    1
   111    39    38    2
   112    36    31   am
   113     7     9   am
   114   154   155    1
   115   154   153    1
   116   141   140    1
   117   185   188    1
   118   185   184    1
   119     5     3   am
   120   106   107    1
   121   106   109    1
   122   182   179    1
   123    33    34    1
   124    33    30    1
   125    32    31    2
   126    31    30    1
   127   184   180   am
   128     4     3    2
   129   107   108    2
   130     3     2    1
   131    17    16    1
   132    17    18    1
   133   181   180    2
   134   180   179    1
   135   140   137    1
   136   110   109    1
   137     9    10    1
   138    16    11   am
   139   179   178    1
   140   153   147   am
   141    30    29    1
   142   152   150   am
   143   109   111    1
   144    11    10    1
   145    11    12    2
   146     2     1    1
   147    18    19    2
   148    18    20   am
   149    10    13    1
   150    29    22   am
   151   151   150    2
   152   150   149    1
   153   147   148    2
   154   147   146    1
   155   137   136    1
   156   137   138    1
   157    20    21    1
   158    22    23    2
   159    22    21    1
   160   136   134   am
   161   149   146    1
   162   119   117   ar
   163    13    15    1
   164    13    14    1
   165   138   139    2
   166   146   145    1
   167    21    24    1
   168   131   128    1
   169   134   133    1
   170   134   135    2
   171    28    27    1
   172   132   133    1
   173   132   129   am
   174    24    25    1
   175   117   118   ar
   176   117   116    1
   177   128   129    1
   178   128   127    1
   179   129   130    2
   180    25    26    1
   181   123   122    2
   182   116   113    1
   183    27    26    1
   184   127   122   am
   185   115   114    2
   186   122   121    1
   187   114   113    1
   188   114   120   am
   189   113   112    1
   190   121   120    1
   191   121   124    1
   192   124   125    1
   193   124   126    1
