@<TRIPOS>MOLECULE
tmp/5jlrA00.pdb
 80 75 0 0 0
SMALL
GASTEIGER

@<TRIPOS>ATOM
      1  N         -0.0390    4.5460  -19.3210 N.3    38  VAL38      -0.1231
      2  CA        -1.3040    3.9400  -19.7140 C.3    38  VAL38       0.1692
      3  C         -2.2630    3.9250  -18.5250 C.2    38  VAL38       0.2592
      4  O         -1.8320    3.9470  -17.3700 O.2    38  VAL38      -0.2718
      5  CB        -1.1270    2.4910  -20.2560 C.3    38  VAL38       0.0266
      6  CG1       -1.2080    1.4350  -19.1200 C.3    38  VAL38       0.0020
      7  CG2       -2.1500    2.2080  -21.3460 C.3    38  VAL38       0.0020
      8  N         -3.5580    3.9150  -18.8150 N.am   39  VAL39      -0.1966
      9  CA        -4.5520    3.6510  -17.8020 C.3    39  VAL39       0.1727
     10  C         -5.3150    2.4000  -18.1900 C.2    39  VAL39       0.2616
     11  O         -5.8650    2.3030  -19.2880 O.2    39  VAL39      -0.2715
     12  CB        -5.5370    4.8170  -17.6120 C.3    39  VAL39       0.0290
     13  CG1       -6.5220    4.4670  -16.5070 C.3    39  VAL39       0.0023
     14  CG2       -4.7830    6.1100  -17.2890 C.3    39  VAL39       0.0023
     15  N         -5.3160    1.4340  -17.2780 N.am   40  ILE40      -0.1977
     16  CA        -6.0440    0.1940  -17.4500 C.3    40  ILE40       0.1596
     17  C         -7.0240    0.0450  -16.2930 C.2    40  ILE40       0.2287
     18  O         -6.6030   -0.0280  -15.1320 O.2    40  ILE40      -0.2864
     19  CB        -5.0980   -1.0180  -17.4900 C.3    40  ILE40       0.0276
     20  CG1       -4.2800   -1.0290  -18.7860 C.3    40  ILE40       0.0022
     21  CG2       -5.8990   -2.3040  -17.3670 C.3    40  ILE40       0.0022
     22  CD1       -3.1260   -2.0670  -18.8250 C.3    40  ILE40       0.0001
     23  N          2.6690   -7.1780  -24.1230 N.3   124  LEU124     -0.1231
     24  CA         1.4060   -6.4540  -24.0100 C.3   124  LEU124      0.1693
     25  C          0.2410   -7.3740  -24.2650 C.2   124  LEU124      0.2592
     26  O          0.3430   -8.2940  -25.0810 O.2   124  LEU124     -0.2718
     27  CB         1.3740   -5.2750  -24.9970 C.3   124  LEU124      0.0284
     28  CG         0.1650   -4.3270  -25.0690 C.3   124  LEU124      0.0019
     29  CD1        0.5850   -2.9630  -25.6310 C.3   124  LEU124      0.0001
     30  CD2       -0.9320   -4.8890  -25.9320 C.3   124  LEU124      0.0001
     31  N         -0.8770   -7.1170  -23.5980 N.am  125  ILE125     -0.1966
     32  CA        -2.1110   -7.7770  -23.9600 C.3   125  ILE125      0.1727
     33  C         -3.2060   -6.7500  -24.1010 C.2   125  ILE125      0.2616
     34  O         -3.2940   -5.8180  -23.3220 O.2   125  ILE125     -0.2715
     35  CB        -2.5620   -8.8530  -22.9110 C.3   125  ILE125      0.0290
     36  CG1       -1.4360   -9.8450  -22.6160 C.3   125  ILE125      0.0022
     37  CG2       -3.7940   -9.5820  -23.3980 C.3   125  ILE125      0.0023
     38  CD1       -1.8210  -10.9270  -21.5860 C.3   125  ILE125      0.0001
     39  N         -4.0670   -6.9300  -25.0830 N.am  126  ARG126     -0.1963
     40  CA        -5.1870   -6.0330  -25.2210 C.3   126  ARG126      0.1729
     41  C         -6.2930   -6.7880  -25.8960 C.2   126  ARG126      0.2616
     42  O         -6.0420   -7.8320  -26.5010 O.2   126  ARG126     -0.2715
     43  CB        -4.7930   -4.7960  -26.0390 C.3   126  ARG126      0.0348
     44  CG        -4.6100   -5.0730  -27.5240 C.3   126  ARG126      0.0492
     45  CD        -4.3990   -3.7540  -28.2920 C.3   126  ARG126      0.2205
     46  NE        -4.1750   -3.9560  -29.7230 N.pl3 126  ARG126     -0.0865
     47  CZ        -4.4510   -3.0350  -30.6520 C.cat 126  ARG126      0.5346
     48  NH1       -4.9850   -1.8670  -30.3070 N.pl3 126  ARG126      0.1354
     49  NH2       -4.2170   -3.2800  -31.9350 N.pl3 126  ARG126      0.1354
     50  N         -7.5120   -6.2720  -25.7890 N.am  127  GLY127     -0.1955
     51  CA        -8.6260   -6.7660  -26.5680 C.3   127  GLY127      0.1869
     52  C         -8.6020   -6.1680  -27.9680 C.2   127  GLY127      0.2309
     53  O         -8.1930   -5.0090  -28.1440 O.2   127  GLY127     -0.2863
     54  N          1.1450   -9.2160  -27.7870 N.3   139  ARG139     -0.1245
     55  CA         2.4180   -8.9090  -28.4070 C.3   139  ARG139      0.1563
     56  C          3.4930   -9.5120  -27.5380 C.2   139  ARG139      0.2260
     57  O          3.5000   -9.3210  -26.3190 O.2   139  ARG139     -0.2867
     58  CB         2.6070   -7.4020  -28.5570 C.3   139  ARG139      0.0307
     59  CG         1.3720   -6.6980  -29.1090 C.3   139  ARG139      0.0489
     60  CD         1.6720   -5.8150  -30.3240 C.3   139  ARG139      0.2205
     61  NE         0.4090   -5.3150  -30.8530 N.pl3 139  ARG139     -0.0865
     62  CZ        -0.0430   -4.0790  -30.6800 C.cat 139  ARG139      0.5346
     63  NH1        0.6930   -3.1770  -30.0480 N.pl3 139  ARG139      0.1354
     64  NH2       -1.2240   -3.7390  -31.1720 N.pl3 139  ARG139      0.1354
     65  N         -8.8720   -3.5680  -35.1210 N.3   385  THR385     -0.1218
     66  CA        -9.7980   -3.8290  -34.0210 C.3   385  THR385      0.1862
     67  C        -11.2450   -3.5540  -34.4060 C.2   385  THR385      0.2287
     68  O        -11.5130   -2.7930  -35.3170 O.2   385  THR385     -0.2866
     69  CB        -9.4770   -2.9790  -32.7750 C.3   385  THR385      0.1770
     70  OG1       -9.9240   -1.6360  -32.9950 O.3   385  THR385     -0.2211
     71  CG2       -7.9830   -2.9950  -32.4750 C.3   385  THR385      0.0375
     72  N        -12.0160    0.1030  -34.1690 N.3   388  GLU388     -0.1245
     73  CA       -11.4880    0.8660  -35.3050 C.3   388  GLU388      0.1567
     74  C        -12.3990    0.7360  -36.5210 C.2   388  GLU388      0.2260
     75  O        -12.6130    1.7000  -37.2500 O.2   388  GLU388     -0.2867
     76  CB       -10.0670    0.4100  -35.6530 C.3   388  GLU388      0.0388
     77  CG        -9.0200    0.9670  -34.7000 C.3   388  GLU388      0.1160
     78  CD        -7.6710    0.2820  -34.8120 C.2   388  GLU388      0.3649
     79  OE1       -7.5360   -0.6640  -35.6040 O.co2 388  GLU388     -0.2457
     80  OE2       -6.7330    0.6930  -34.1070 O.co2 388  GLU388     -0.2457
@<TRIPOS>BOND
     1    75    74    2
     2    74    73    1
     3    76    73    1
     4    76    77    1
     5    79    78   ar
     6    68    67    2
     7    73    72    1
     8    65    66    1
     9    78    77    1
    10    78    80   ar
    11    67    66    1
    12    66    69    1
    13    70    69    1
    14    69    71    1
    15    49    47    1
    16    64    62    1
    17    61    62    2
    18    61    60    1
    19    62    63    1
    20    47    48    1
    21    47    46    2
    22    60    59    1
    23    46    45    1
    24    59    58    1
    25    58    55    1
    26    55    54    1
    27    55    56    1
    28    45    44    1
    29    53    52    2
    30    52    51    1
    31    56    57    2
    32    44    43    1
    33    51    50    1
    34    42    41    2
    35    43    40    1
    36    30    28    1
    37    41    50   am
    38    41    40    1
    39    29    28    1
    40    40    39    1
    41    39    33   am
    42    26    25    2
    43    28    27    1
    44    27    24    1
    45    25    24    1
    46    25    31   am
    47    23    24    1
    48    33    32    1
    49    33    34    2
    50    32    31    1
    51    32    35    1
    52    37    35    1
    53    35    36    1
    54    36    38    1
    55     7     5    1
    56     5     2    1
    57     5     6    1
    58     2     1    1
    59     2     3    1
    60    11    10    2
    61    22    20    1
    62     8     3   am
    63     8     9    1
    64    20    19    1
    65     3     4    2
    66    10     9    1
    67    10    15   am
    68     9    12    1
    69    12    14    1
    70    12    13    1
    71    19    16    1
    72    19    21    1
    73    16    15    1
    74    16    17    1
    75    17    18    2
