@<TRIPOS>MOLECULE
tmp/5jm5A02.pdb
 113 108 0 0 0
SMALL
GASTEIGER

@<TRIPOS>ATOM
      1  N         -0.6080  -21.1660   41.1640 N.3     3  GLN3       -0.1231
      2  CA         0.3940  -22.2390   41.0960 C.3     3  GLN3        0.1698
      3  C          1.7510  -21.8450   41.6890 C.2     3  GLN3        0.2592
      4  O          2.1070  -20.6630   41.7020 O.2     3  GLN3       -0.2718
      5  CB         0.5910  -22.7190   39.6510 C.3     3  GLN3        0.0381
      6  CG        -0.6120  -23.4660   39.0760 C.3     3  GLN3        0.0905
      7  CD        -0.2600  -24.3370   37.8780 C.2     3  GLN3        0.2608
      8  OE1       -1.1230  -24.6820   37.0740 O.2     3  GLN3       -0.2717
      9  NE2        1.0120  -24.7020   37.7610 N.am    3  GLN3       -0.0878
     10  N          2.4740  -22.8510   42.1930 N.am    4  CYS4       -0.1956
     11  CA         3.8140  -22.6950   42.7750 C.3     4  CYS4        0.1843
     12  C          4.7650  -23.7270   42.1610 C.2     4  CYS4        0.2625
     13  O          4.3660  -24.8730   41.9240 O.2     4  CYS4       -0.2714
     14  CB         3.7960  -22.8860   44.2990 C.3     4  CYS4        0.0997
     15  SG         2.6510  -21.8610   45.2380 S.3     4  CYS4       -0.0797
     16  N          6.0150  -23.3420   41.9100 N.am    5  VAL5       -0.1963
     17  CA         6.9890  -24.3060   41.4210 C.3     5  VAL5        0.1727
     18  C          8.0230  -24.6050   42.5150 C.2     5  VAL5        0.2616
     19  O          8.4160  -23.7230   43.2830 O.2     5  VAL5       -0.2715
     20  CB         7.6780  -23.8130   40.1210 C.3     5  VAL5        0.0290
     21  CG1        8.3730  -22.4820   40.3480 C.3     5  VAL5        0.0023
     22  CG2        8.6600  -24.8590   39.6010 C.3     5  VAL5        0.0023
     23  N          8.4240  -25.8680   42.6050 N.am    6  LYS6       -0.1977
     24  CA         9.4320  -26.2870   43.5670 C.3     6  LYS6        0.1596
     25  C         10.8260  -25.9770   43.0310 C.2     6  LYS6        0.2287
     26  O         11.1960  -26.4220   41.9480 O.2     6  LYS6       -0.2864
     27  CB         9.2990  -27.7810   43.8740 C.3     6  LYS6        0.0298
     28  CG        10.1640  -28.2660   45.0230 C.3     6  LYS6        0.0038
     29  CD         9.7560  -29.6720   45.4440 C.3     6  LYS6        0.0206
     30  CE        10.4840  -30.7160   44.6240 C.3     6  LYS6        0.1093
     31  NZ        11.9550  -30.6330   44.8760 N.3     6  LYS6       -0.1314
     32  N          4.3010  -18.8340   40.8020 N.3    15  VAL15      -0.1245
     33  CA         4.7250  -18.6140   39.4130 C.3    15  VAL15       0.1561
     34  C          4.3380  -17.2460   38.8470 C.2    15  VAL15       0.2260
     35  O          4.7760  -16.8780   37.7550 O.2    15  VAL15      -0.2867
     36  CB         4.1630  -19.6920   38.4710 C.3    15  VAL15       0.0252
     37  CG1        4.7250  -21.0490   38.8440 C.3    15  VAL15       0.0019
     38  CG2        2.6240  -19.7060   38.5060 C.3    15  VAL15       0.0019
     39  N         15.0800  -22.3800   37.5370 N.3   209  VAL209     -0.1245
     40  CA        13.8830  -21.6680   37.0850 C.3   209  VAL209      0.1561
     41  C         14.2510  -20.3880   36.3530 C.2   209  VAL209      0.2260
     42  O         15.0770  -19.6180   36.8260 O.2   209  VAL209     -0.2867
     43  CB        12.9410  -21.3030   38.2620 C.3   209  VAL209      0.0252
     44  CG1       11.7780  -20.4290   37.7630 C.3   209  VAL209      0.0019
     45  CG2       12.4090  -22.5590   38.9380 C.3   209  VAL209      0.0019
     46  N          0.4690  -15.1380   30.1850 N.3   255  ARG255     -0.1245
     47  CA         0.0620  -16.5390   30.0670 C.3   255  ARG255      0.1563
     48  C          1.0640  -17.3180   29.2280 C.2   255  ARG255      0.2260
     49  O          1.3870  -18.4610   29.5450 O.2   255  ARG255     -0.2867
     50  CB        -1.3510  -16.6730   29.4700 C.3   255  ARG255      0.0307
     51  CG        -1.8620  -18.1190   29.4180 C.3   255  ARG255      0.0489
     52  CD        -2.3090  -18.6340   30.7940 C.3   255  ARG255      0.2205
     53  NE        -2.3890  -20.0960   30.8760 N.pl3 255  ARG255     -0.0865
     54  CZ        -2.7250  -20.7610   31.9850 C.cat 255  ARG255      0.5346
     55  NH1       -3.0350  -20.0970   33.0850 N.pl3 255  ARG255      0.1354
     56  NH2       -2.7670  -22.0860   31.9960 N.pl3 255  ARG255      0.1354
     57  N          3.7860  -18.3840   31.4350 N.3   258  LEU258     -0.1231
     58  CA         3.3780  -19.4570   32.3320 C.3   258  LEU258      0.1693
     59  C          3.3540  -20.7950   31.6070 C.2   258  LEU258      0.2592
     60  O          3.8820  -21.7820   32.1010 O.2   258  LEU258     -0.2718
     61  CB         2.0100  -19.1710   32.9580 C.3   258  LEU258      0.0284
     62  CG         2.0130  -18.1040   34.0550 C.3   258  LEU258      0.0019
     63  CD1        0.6350  -18.0010   34.6700 C.3   258  LEU258      0.0001
     64  CD2        3.0660  -18.4040   35.1330 C.3   258  LEU258      0.0001
     65  N          2.7780  -20.8260   30.4130 N.am  259  GLN259     -0.1966
     66  CA         2.6370  -22.0940   29.7260 C.3   259  GLN259      0.1733
     67  C          3.9720  -22.5980   29.1910 C.2   259  GLN259      0.2616
     68  O          4.0600  -23.7650   28.8150 O.2   259  GLN259     -0.2715
     69  CB         1.5960  -21.9860   28.6180 C.3   259  GLN259      0.0408
     70  CG         0.2150  -21.7120   29.1880 C.3   259  GLN259      0.0908
     71  CD        -0.9130  -21.8960   28.1930 C.2   259  GLN259      0.2608
     72  OE1       -1.9720  -21.2780   28.3230 O.2   259  GLN259     -0.2717
     73  NE2       -0.7060  -22.7620   27.2120 N.am  259  GLN259     -0.0878
     74  N          5.0150  -21.7570   29.1850 N.am  260  ARG260     -0.1963
     75  CA         6.3670  -22.2940   28.9090 C.3   260  ARG260      0.1729
     76  C          7.1180  -22.8380   30.1250 C.2   260  ARG260      0.2617
     77  O          8.2550  -23.2930   30.0010 O.2   260  ARG260     -0.2715
     78  CB         7.2770  -21.2430   28.2720 C.3   260  ARG260      0.0348
     79  CG         6.6290  -20.3770   27.2560 C.3   260  ARG260      0.0492
     80  CD         7.4510  -19.1330   27.0800 C.3   260  ARG260      0.2205
     81  NE         8.5130  -19.3490   26.1130 N.pl3 260  ARG260     -0.0865
     82  CZ         9.6620  -18.6930   26.1170 C.cat 260  ARG260      0.5346
     83  NH1        9.9150  -17.7840   27.0590 N.pl3 260  ARG260      0.1354
     84  NH2       10.5650  -18.9620   25.1890 N.pl3 260  ARG260      0.1354
     85  N          6.5220  -22.7760   31.3080 N.am  261  GLY261     -0.1940
     86  CA         7.2500  -23.2130   32.4840 C.3   261  GLY261      0.2014
     87  C          8.1530  -22.1180   33.0200 C.2   261  GLY261      0.2639
     88  O          9.0980  -22.3940   33.7490 O.2   261  GLY261     -0.2714
     89  N          7.8420  -20.8760   32.6570 N.am  262  VAL262     -0.1963
     90  CA         8.5750  -19.6980   33.1040 C.3   262  VAL262      0.1727
     91  C          7.8010  -18.9790   34.2130 C.2   262  VAL262      0.2616
     92  O          6.5890  -18.7820   34.1010 O.2   262  VAL262     -0.2715
     93  CB         8.8330  -18.7290   31.9200 C.3   262  VAL262      0.0290
     94  CG1        9.3640  -17.3760   32.3840 C.3   262  VAL262      0.0023
     95  CG2        9.7820  -19.3620   30.9010 C.3   262  VAL262      0.0023
     96  N          8.4920  -18.6100   35.2910 N.am  263  VAL263     -0.1977
     97  CA         7.8790  -17.8030   36.3370 C.3   263  VAL263      0.1596
     98  C          7.8460  -16.3760   35.8180 C.2   263  VAL263      0.2287
     99  O          8.8250  -15.9110   35.2450 O.2   263  VAL263     -0.2864
    100  CB         8.6580  -17.8950   37.6850 C.3   263  VAL263      0.0276
    101  CG1        8.2520  -16.7780   38.6180 C.3   263  VAL263      0.0022
    102  CG2        8.4450  -19.2690   38.3470 C.3   263  VAL263      0.0022
    103  N         -4.4110  -16.8160   35.4840 N.3   281  PHE281     -0.1241
    104  CA        -4.7030  -18.2200   35.7610 C.3   281  PHE281      0.1605
    105  C         -6.0830  -18.6590   35.2730 C.2   281  PHE281      0.2264
    106  O         -6.4530  -19.8140   35.4440 O.2   281  PHE281     -0.2867
    107  CB        -4.5960  -18.5030   37.2660 C.3   281  PHE281      0.0534
    108  CG        -3.2200  -18.2890   37.8180 C.ar  281  PHE281     -0.0203
    109  CD1       -2.1850  -19.1440   37.4720 C.ar  281  PHE281     -0.0042
    110  CD2       -2.9520  -17.2250   38.6660 C.ar  281  PHE281     -0.0042
    111  CE1       -0.9050  -18.9480   37.9720 C.ar  281  PHE281     -0.0003
    112  CE2       -1.6640  -17.0220   39.1680 C.ar  281  PHE281     -0.0003
    113  CZ        -0.6470  -17.8890   38.8250 C.ar  281  PHE281     -0.0000
@<TRIPOS>BOND
     1    84    82    1
     2    81    82    2
     3    81    80    1
     4    82    83    1
     5    80    79    1
     6    73    71   am
     7    79    78    1
     8    71    72    2
     9    71    70    1
    10    78    75    1
    11    69    70    1
    12    69    66    1
    13    68    67    2
    14    75    74    1
    15    75    76    1
    16    74    67   am
    17    67    66    1
    18    48    49    2
    19    48    47    1
    20    51    50    1
    21    51    52    1
    22    50    47    1
    23    66    65    1
    24    77    76    2
    25    47    46    1
    26    76    85   am
    27    65    59   am
    28    52    53    1
    29    53    54    2
    30    95    93    1
    31    85    86    1
    32    57    58    1
    33    59    60    2
    34    59    58    1
    35    93    94    1
    36    93    90    1
    37    54    56    1
    38    54    55    1
    39    58    61    1
    40    86    87    1
    41    89    87   am
    42    89    90    1
    43    61    62    1
    44    87    88    2
    45    90    91    1
    46    62    63    1
    47    62    64    1
    48    92    91    2
    49    91    96   am
    50    99    98    2
    51   105   106    2
    52   105   104    1
    53    96    97    1
    54   103   104    1
    55   104   107    1
    56    98    97    1
    57    97   100    1
    58    41    42    2
    59    41    40    1
    60     8     7    2
    61    40    39    1
    62    40    43    1
    63   107   108    1
    64   109   108   ar
    65   109   111   ar
    66   100   102    1
    67   100   101    1
    68    35    34    2
    69     9     7   am
    70    44    43    1
    71   108   110   ar
    72     7     6    1
    73   111   113   ar
    74    43    45    1
    75    36    38    1
    76    36    37    1
    77    36    33    1
    78   110   112   ar
    79   113   112   ar
    80    34    33    1
    81     6     5    1
    82    33    32    1
    83    22    20    1
    84     5     2    1
    85    20    21    1
    86    20    17    1
    87     2     1    1
    88     2     3    1
    89    17    16    1
    90    17    18    1
    91     3     4    2
    92     3    10   am
    93    16    12   am
    94    13    12    2
    95    26    25    2
    96    12    11    1
    97    10    11    1
    98    18    23   am
    99    18    19    2
   100    23    24    1
   101    11    14    1
   102    25    24    1
   103    24    27    1
   104    27    28    1
   105    14    15    1
   106    30    31    1
   107    30    29    1
   108    28    29    1
