@<TRIPOS>MOLECULE
tmp/5jm5B01.pdb
 189 191 0 0 0
SMALL
GASTEIGER

@<TRIPOS>ATOM
      1  N         16.6230   20.3220    3.2570 N.3    21  TYR21      -0.1241
      2  CA        17.3970   21.2210    2.4110 C.3    21  TYR21       0.1605
      3  C         16.5250   21.9820    1.4330 C.2    21  TYR21       0.2264
      4  O         15.6740   21.4000    0.7570 O.2    21  TYR21      -0.2867
      5  CB        18.4830   20.4900    1.6140 C.3    21  TYR21       0.0534
      6  CG        19.2770   21.4810    0.8000 C.ar   21  TYR21      -0.0201
      7  CD1       20.2470   22.2640    1.4040 C.ar   21  TYR21      -0.0009
      8  CD2       19.0220   21.6760   -0.5610 C.ar   21  TYR21      -0.0009
      9  CE1       20.9620   23.1840    0.6880 C.ar   21  TYR21       0.0417
     10  CE2       19.7300   22.6120   -1.2940 C.ar   21  TYR21       0.0417
     11  CZ        20.7020   23.3630   -0.6570 C.ar   21  TYR21       0.1957
     12  OH        21.4220   24.3000   -1.3490 O.3    21  TYR21      -0.2866
     13  N         25.6640   22.1130    6.5750 N.3    51  LEU51      -0.1231
     14  CA        25.6590   22.6310    5.2110 C.3    51  LEU51       0.1693
     15  C         24.3820   23.3970    4.8970 C.2    51  LEU51       0.2592
     16  O         24.3900   24.3520    4.1290 O.2    51  LEU51      -0.2718
     17  CB        25.8230   21.4830    4.2150 C.3    51  LEU51       0.0284
     18  CG        25.8420   21.8490    2.7340 C.3    51  LEU51       0.0019
     19  CD1       27.0460   22.7160    2.4540 C.3    51  LEU51       0.0001
     20  CD2       25.8580   20.5940    1.8540 C.3    51  LEU51       0.0001
     21  N         23.2850   22.9910    5.5260 N.am   52  TYR52      -0.1976
     22  CA        21.9750   23.4170    5.0620 C.3    52  TYR52       0.1639
     23  C         21.6340   24.8340    5.5020 C.2    52  TYR52       0.2290
     24  O         20.6360   25.3980    5.0430 O.2    52  TYR52      -0.2864
     25  CB        20.8960   22.4350    5.5370 C.3    52  TYR52       0.0560
     26  CG        21.0390   21.0500    4.9420 C.ar   52  TYR52      -0.0198
     27  CD1       21.9960   20.7910    3.9770 C.ar   52  TYR52      -0.0009
     28  CD2       20.2100   20.0030    5.3420 C.ar   52  TYR52      -0.0009
     29  CE1       22.1450   19.5340    3.4370 C.ar   52  TYR52       0.0417
     30  CE2       20.3450   18.7390    4.8070 C.ar   52  TYR52       0.0417
     31  CZ        21.3240   18.5140    3.8400 C.ar   52  TYR52       0.1957
     32  OH        21.4950   17.2710    3.2800 O.3    52  TYR52      -0.2866
     33  N         30.2890   18.6960    8.4360 N.3    83  TRP83      -0.1241
     34  CA        30.6070   19.1860    7.1090 C.3    83  TRP83       0.1605
     35  C         32.0920   18.9460    6.8240 C.2    83  TRP83       0.2264
     36  O         32.8740   18.7490    7.7450 O.2    83  TRP83      -0.2867
     37  CB        30.2280   20.6590    6.9500 C.3    83  TRP83       0.0550
     38  CG        30.5670   21.1810    5.5850 C.ar   83  TRP83       0.0003
     39  CD1       31.3620   22.2500    5.2910 C.ar   83  TRP83       0.0946
     40  CD2       30.1680   20.6210    4.3240 C.ar   83  TRP83       0.0152
     41  NE1       31.4640   22.4040    3.9310 N.ar   83  TRP83      -0.2442
     42  CE2       30.7490   21.4130    3.3150 C.ar   83  TRP83       0.0810
     43  CE3       29.3710   19.5290    3.9520 C.ar   83  TRP83       0.0012
     44  CZ2       30.5540   21.1550    1.9570 C.ar   83  TRP83       0.0191
     45  CZ3       29.1890   19.2700    2.6070 C.ar   83  TRP83       0.0001
     46  CH2       29.7750   20.0800    1.6250 C.ar   83  TRP83       0.0015
     47  N         29.1830   13.9110    6.3560 N.3   114  HIS114     -0.1226
     48  CA        28.3540   14.3070    5.2180 C.3   114  HIS114      0.1752
     49  C         28.8810   13.7870    3.8770 C.2   114  HIS114      0.2597
     50  O         28.1070   13.4450    2.9920 O.2   114  HIS114     -0.2718
     51  CB        28.2440   15.8350    5.1640 C.3   114  HIS114      0.0759
     52  CG        27.0200   16.3380    4.4590 C.ar  114  HIS114      0.0818
     53  ND1       26.4350   17.5490    4.7670 N.ar  114  HIS114     -0.2268
     54  CD2       26.2750   15.8040    3.4600 C.ar  114  HIS114      0.1154
     55  CE1       25.3710   17.7300    4.0010 C.ar  114  HIS114      0.1986
     56  NE2       25.2590   16.6900    3.1930 N.ar  114  HIS114     -0.2212
     57  N         30.2000   13.7180    3.7400 N.am  115  SER115     -0.1938
     58  CA        30.8250   13.3710    2.4710 C.3   115  SER115      0.2040
     59  C         32.2320   12.8870    2.7580 C.2   115  SER115      0.2485
     60  O         32.8460   13.3530    3.7060 O.2   115  SER115     -0.2729
     61  CB        30.8480   14.5850    1.5380 C.3   115  SER115      0.2129
     62  OG        31.7340   14.3920    0.4540 O.3   115  SER115     -0.2179
     63  N         32.7390   11.9280    1.9740 N.am  116  PRO116     -0.2715
     64  CA        34.1340   11.5330    2.2200 C.3   116  PRO116      0.1536
     65  C         35.1190   12.5470    1.6620 C.2   116  PRO116      0.2598
     66  O         36.3210   12.4160    1.9060 O.2   116  PRO116     -0.2715
     67  CB        34.2560   10.1980    1.4850 C.3   116  PRO116      0.0310
     68  CG        33.2670   10.3430    0.3340 C.3   116  PRO116      0.0237
     69  CD        32.0950   11.0790    0.9580 C.3   116  PRO116      0.0939
     70  N         34.6130   13.5380    0.9280 N.am  117  MET117     -0.1978
     71  CA        35.4630   14.4970    0.2310 C.3   117  MET117      0.1605
     72  C         35.8690   15.6750    1.1290 C.2   117  MET117      0.2287
     73  O         35.2680   16.7520    1.1110 O.2   117  MET117     -0.2864
     74  CB        34.7710   14.9820   -1.0490 C.3   117  MET117      0.0413
     75  CG        34.7160   13.9100   -2.1430 C.3   117  MET117      0.0598
     76  SD        33.9490   14.4090   -3.7070 S.3   117  MET117     -0.1393
     77  CE        32.2260   14.5670   -3.1950 C.3   117  MET117      0.0692
     78  N         37.5120   18.8560    2.7750 N.3   119  LEU119     -0.1245
     79  CA        37.8120   20.1760    2.2330 C.3   119  LEU119      0.1561
     80  C         38.6710   20.9730    3.2100 C.2   119  LEU119      0.2260
     81  O         38.7450   20.6500    4.4040 O.2   119  LEU119     -0.2867
     82  CB        36.5350   20.9570    1.9170 C.3   119  LEU119      0.0270
     83  CG        35.4700   20.3280    1.0150 C.3   119  LEU119      0.0019
     84  CD1       34.3160   21.2980    0.8360 C.3   119  LEU119      0.0001
     85  CD2       36.0400   19.9220   -0.3320 C.3   119  LEU119      0.0001
     86  N         32.5490   26.3370    1.3920 N.3   126  SER126     -0.1217
     87  CA        33.0300   25.8280    0.1210 C.3   126  SER126      0.1889
     88  C         34.2850   26.5990   -0.2660 C.2   126  SER126      0.2288
     89  O         34.2530   27.4160   -1.1870 O.2   126  SER126     -0.2866
     90  CB        31.9410   25.9600   -0.9510 C.3   126  SER126      0.2089
     91  OG        32.2940   25.2840   -2.1440 O.3   126  SER126     -0.2183
     92  N         27.4280    9.2720    1.5430 N.3   160  ASN160     -0.1240
     93  CA        28.1460    9.3460    0.2590 C.3   160  ASN160      0.1653
     94  C         29.4390    8.5360    0.2200 C.2   160  ASN160      0.2266
     95  O         30.3140    8.8050   -0.5990 O.2   160  ASN160     -0.2867
     96  CB        28.4470   10.8040   -0.1090 C.3   160  ASN160      0.1155
     97  CG        27.1880   11.6010   -0.3880 C.2   160  ASN160      0.2627
     98  OD1       26.5160   11.3740   -1.3950 O.2   160  ASN160     -0.2716
     99  ND2       26.8630   12.5470    0.4980 N.am  160  ASN160     -0.0877
    100  N         18.6720    9.4360   -0.3420 N.3   209  TYR209     -0.1241
    101  CA        18.3280   10.8110   -0.6560 C.3   209  TYR209      0.1605
    102  C         18.1530   10.9850   -2.1510 C.2   209  TYR209      0.2264
    103  O         18.5120   10.1020   -2.9430 O.2   209  TYR209     -0.2867
    104  CB        19.3660   11.8020   -0.1020 C.3   209  TYR209      0.0534
    105  CG        20.7260   11.8820   -0.7670 C.ar  209  TYR209     -0.0201
    106  CD1       20.8830   12.4120   -2.0550 C.ar  209  TYR209     -0.0009
    107  CD2       21.8700   11.5210   -0.0680 C.ar  209  TYR209     -0.0009
    108  CE1       22.1400   12.5250   -2.6370 C.ar  209  TYR209      0.0417
    109  CE2       23.1270   11.6280   -0.6440 C.ar  209  TYR209      0.0417
    110  CZ        23.2520   12.1320   -1.9230 C.ar  209  TYR209      0.1957
    111  OH        24.4990   12.2380   -2.4850 O.3   209  TYR209     -0.2866
    112  N         22.7020   24.3640  -10.5440 N.3   219  ARG219     -0.1231
    113  CA        24.1200   24.3480  -10.2100 C.3   219  ARG219      0.1694
    114  C         24.7050   22.9360  -10.0810 C.2   219  ARG219      0.2592
    115  O         25.9140   22.7590  -10.1980 O.2   219  ARG219     -0.2718
    116  CB        24.3600   25.1170   -8.9110 C.3   219  ARG219      0.0321
    117  CG        23.8470   26.5500   -8.9110 C.3   219  ARG219      0.0489
    118  CD        23.8480   27.1000   -7.4880 C.3   219  ARG219      0.2205
    119  NE        23.1770   26.1750   -6.5760 N.pl3 219  ARG219     -0.0865
    120  CZ        23.1930   26.2660   -5.2490 C.cat 219  ARG219      0.5346
    121  NH1       23.8500   27.2500   -4.6450 N.pl3 219  ARG219      0.1354
    122  NH2       22.5440   25.3640   -4.5220 N.pl3 219  ARG219      0.1354
    123  N         23.8590   21.9340   -9.8460 N.am  220  TRP220     -0.1976
    124  CA        24.3500   20.5800   -9.5720 C.3   220  TRP220      0.1640
    125  C         23.7980   19.5070  -10.4940 C.2   220  TRP220      0.2290
    126  O         24.2800   18.3740  -10.4850 O.2   220  TRP220     -0.2864
    127  CB        24.0350   20.2070   -8.1250 C.3   220  TRP220      0.0576
    128  CG        24.5960   21.2120   -7.2200 C.ar  220  TRP220      0.0006
    129  CD1       23.9180   22.1770   -6.5410 C.ar  220  TRP220      0.0946
    130  CD2       25.9820   21.4130   -6.9390 C.ar  220  TRP220      0.0152
    131  NE1       24.7990   22.9550   -5.8320 N.ar  220  TRP220     -0.2442
    132  CE2       26.0730   22.5030   -6.0560 C.ar  220  TRP220      0.0810
    133  CE3       27.1570   20.7670   -7.3390 C.ar  220  TRP220      0.0012
    134  CZ2       27.2960   22.9630   -5.5620 C.ar  220  TRP220      0.0191
    135  CZ3       28.3680   21.2260   -6.8530 C.ar  220  TRP220      0.0001
    136  CH2       28.4290   22.3140   -5.9740 C.ar  220  TRP220      0.0015
    137  N         23.5400   14.4450   -8.8210 N.3   299  PHE299     -0.1241
    138  CA        24.6590   15.2770   -8.3890 C.3   299  PHE299      0.1605
    139  C         25.7150   15.2920   -9.4810 C.2   299  PHE299      0.2264
    140  O         26.2300   14.2480   -9.8710 O.2   299  PHE299     -0.2867
    141  CB        25.2570   14.7720   -7.0760 C.3   299  PHE299      0.0534
    142  CG        26.4370   15.5600   -6.5520 C.ar  299  PHE299     -0.0203
    143  CD1       26.3610   16.9010   -6.2940 C.ar  299  PHE299     -0.0042
    144  CD2       27.6220   14.9320   -6.2650 C.ar  299  PHE299     -0.0042
    145  CE1       27.3900   17.6340   -5.7420 C.ar  299  PHE299     -0.0003
    146  CE2       28.7020   15.6460   -5.6870 C.ar  299  PHE299     -0.0003
    147  CZ        28.5650   16.9760   -5.4780 C.ar  299  PHE299     -0.0000
    148  N         34.2850   18.4860   -8.3850 N.3   304  PHE304     -0.1241
    149  CA        34.4090   17.4900   -7.3280 C.3   304  PHE304      0.1605
    150  C         34.7360   16.0950   -7.8310 C.2   304  PHE304      0.2264
    151  O         35.1770   15.2480   -7.0590 O.2   304  PHE304     -0.2867
    152  CB        33.1310   17.4620   -6.4910 C.3   304  PHE304      0.0534
    153  CG        33.0580   18.5840   -5.5120 C.ar  304  PHE304     -0.0203
    154  CD1       33.5260   18.4170   -4.2190 C.ar  304  PHE304     -0.0042
    155  CD2       32.5780   19.8260   -5.8970 C.ar  304  PHE304     -0.0042
    156  CE1       33.4890   19.4580   -3.3160 C.ar  304  PHE304     -0.0003
    157  CE2       32.5390   20.8760   -5.0010 C.ar  304  PHE304     -0.0003
    158  CZ        32.9980   20.6950   -3.7110 C.ar  304  PHE304     -0.0000
    159  N         36.4860   11.0980   -4.2480 N.3   310  TYR310     -0.1228
    160  CA        35.2610   11.0160   -5.0380 C.3   310  TYR310      0.1721
    161  C         34.7820    9.5730   -5.0130 C.2   310  TYR310      0.2437
    162  O         35.5000    8.6640   -5.4230 O.2   310  TYR310     -0.2733
    163  CB        35.4970   11.4890   -6.4780 C.3   310  TYR310      0.0547
    164  CG        34.2480   11.6520   -7.3190 C.ar  310  TYR310     -0.0200
    165  CD1       33.2250   12.5050   -6.9190 C.ar  310  TYR310     -0.0009
    166  CD2       34.1110   10.9870   -8.5360 C.ar  310  TYR310     -0.0009
    167  CE1       32.0920   12.6740   -7.6910 C.ar  310  TYR310      0.0417
    168  CE2       32.9820   11.1500   -9.3200 C.ar  310  TYR310      0.0417
    169  CZ        31.9730   11.9930   -8.8930 C.ar  310  TYR310      0.1957
    170  OH        30.8370   12.1640   -9.6600 O.3   310  TYR310     -0.2866
    171  N         33.5740    9.3520   -4.4900 N.am  311  PRO311     -0.2718
    172  CA        33.1170    7.9780   -4.2680 C.3   311  PRO311      0.1535
    173  C         32.5670    7.3000   -5.5230 C.2   311  PRO311      0.2598
    174  O         32.3970    6.0780   -5.5190 O.2   311  PRO311     -0.2715
    175  CB        32.0240    8.1550   -3.2140 C.3   311  PRO311      0.0310
    176  CG        31.4780    9.5260   -3.4940 C.3   311  PRO311      0.0237
    177  CD        32.6410   10.3520   -3.9400 C.3   311  PRO311      0.0939
    178  N         32.3100    8.0680   -6.5780 N.am  312  TYR312     -0.1974
    179  CA        31.7050    7.5080   -7.7850 C.3   312  TYR312      0.1639
    180  C         32.7450    7.0320   -8.8070 C.2   312  TYR312      0.2290
    181  O         33.7740    7.6740   -9.0190 O.2   312  TYR312     -0.2864
    182  CB        30.7660    8.5320   -8.4350 C.3   312  TYR312      0.0560
    183  CG        29.5540    8.8800   -7.5970 C.ar  312  TYR312     -0.0198
    184  CD1       29.0220    7.9650   -6.6970 C.ar  312  TYR312     -0.0009
    185  CD2       28.9410   10.1240   -7.7040 C.ar  312  TYR312     -0.0009
    186  CE1       27.9100    8.2770   -5.9290 C.ar  312  TYR312      0.0417
    187  CE2       27.8320   10.4440   -6.9400 C.ar  312  TYR312      0.0417
    188  CZ        27.3230    9.5130   -6.0500 C.ar  312  TYR312      0.1957
    189  OH        26.2190    9.8190   -5.2830 O.3   312  TYR312     -0.2866
@<TRIPOS>BOND
     1   112   113    1
     2   125   126    2
     3   125   124    1
     4   113   114    1
     5   113   116    1
     6   115   114    2
     7   114   123   am
     8   140   139    2
     9   123   124    1
    10   170   169    1
    11   124   127    1
    12   139   138    1
    13   168   169   ar
    14   168   166   ar
    15   181   180    2
    16   116   117    1
    17   117   118    1
    18   169   167   ar
    19   137   138    1
    20   180   179    1
    21   166   164   ar
    22   182   179    1
    23   182   183    1
    24   138   141    1
    25   148   149    1
    26   127   128    1
    27   150   149    1
    28   150   151    2
    29   179   178    1
    30   185   183   ar
    31   185   187   ar
    32   167   165   ar
    33   183   184   ar
    34   118   119    1
    35   133   130   ar
    36   133   135   ar
    37   149   152    1
    38   164   165   ar
    39   164   163    1
    40   128   130   ar
    41   128   129   ar
    42   141   142    1
    43   187   188   ar
    44   130   132   ar
    45   135   136   ar
    46   184   186   ar
    47   178   173   am
    48   119   120    2
    49   142   143   ar
    50   142   144   ar
    51   129   131   ar
    52   152   153    1
    53   163   160    1
    54   143   145   ar
    55   144   146   ar
    56   132   131   ar
    57   132   134   ar
    58   188   186   ar
    59   188   189    1
    60   136   134   ar
    61   155   153   ar
    62   155   157   ar
    63   145   147   ar
    64   146   147   ar
    65   173   174    2
    66   173   172    1
    67   153   154   ar
    68   162   161    2
    69   120   121    1
    70   120   122    1
    71   160   161    1
    72   160   159    1
    73   161   171   am
    74   157   158   ar
    75   171   172    1
    76   171   177    1
    77   172   175    1
    78   154   156   ar
    79   177   176    1
    80   158   156   ar
    81    76    77    1
    82    76    75    1
    83   176   175    1
    84   103   102    2
    85   108   106   ar
    86   108   110   ar
    87   111   110    1
    88   102   101    1
    89    91    90    1
    90    75    74    1
    91   106   105   ar
    92   110   109   ar
    93    98    97    2
    94    12    11    1
    95    10    11   ar
    96    10     8   ar
    97    89    88    2
    98    74    71    1
    99    90    87    1
   100   105   104    1
   101   105   107   ar
   102    11     9   ar
   103   101   100    1
   104   101   104    1
   105   109   107   ar
   106    95    94    2
   107     8     6   ar
   108    97    96    1
   109    97    99   am
   110    85    83    1
   111    88    87    1
   112    96    93    1
   113    87    86    1
   114    94    93    1
   115    71    70    1
   116    71    72    1
   117    93    92    1
   118    68    69    1
   119    68    67    1
   120    62    61    1
   121     9     7   ar
   122     4     3    2
   123     6     7   ar
   124     6     5    1
   125    84    83    1
   126    70    65   am
   127    69    63    1
   128    83    82    1
   129    73    72    2
   130     3     2    1
   131    67    64    1
   132    61    58    1
   133     5     2    1
   134    46    44   ar
   135    46    45   ar
   136    65    66    2
   137    65    64    1
   138    20    18    1
   139    82    79    1
   140    44    42   ar
   141    63    64    1
   142    63    59   am
   143    79    78    1
   144    79    80    1
   145     2     1    1
   146    19    18    1
   147    58    59    1
   148    58    57    1
   149    45    43   ar
   150    18    17    1
   151    59    60    2
   152    50    49    2
   153    56    54   ar
   154    56    55   ar
   155    80    81    2
   156    32    31    1
   157    42    41   ar
   158    42    40   ar
   159    29    31   ar
   160    29    27   ar
   161    54    52   ar
   162    57    49   am
   163    31    30   ar
   164    49    48    1
   165    41    39   ar
   166    43    40   ar
   167    27    26   ar
   168    55    53   ar
   169    16    15    2
   170    17    14    1
   171    40    38   ar
   172    52    53   ar
   173    52    51    1
   174    30    28   ar
   175    15    14    1
   176    15    21   am
   177    26    28   ar
   178    26    25    1
   179    24    23    2
   180    22    23    1
   181    22    21    1
   182    22    25    1
   183    51    48    1
   184    14    13    1
   185    48    47    1
   186    39    38   ar
   187    38    37    1
   188    35    34    1
   189    35    36    2
   190    37    34    1
   191    34    33    1
