@<TRIPOS>MOLECULE
tmp/5jm5B02.pdb
 102 96 0 0 0
SMALL
GASTEIGER

@<TRIPOS>ATOM
      1  N          6.6110    3.1930   11.5050 N.3     3  GLN3       -0.1231
      2  CA         7.4910    2.0730   11.2630 C.3     3  GLN3        0.1698
      3  C          8.9580    2.4710   11.4600 C.2     3  GLN3        0.2592
      4  O          9.4270    3.4640   10.9030 O.2     3  GLN3       -0.2718
      5  CB         7.2470    1.5600    9.8490 C.3     3  GLN3        0.0381
      6  CG         8.0810    0.3740    9.4670 C.3     3  GLN3        0.0905
      7  CD         7.3170   -0.9210    9.5890 C.2     3  GLN3        0.2608
      8  OE1        7.4860   -1.6580   10.5630 O.2     3  GLN3       -0.2717
      9  NE2        6.4670   -1.2120    8.6010 N.am    3  GLN3       -0.0878
     10  N          9.6720    1.7100   12.2760 N.am    4  CYS4       -0.1956
     11  CA        11.0700    2.0100   12.5430 C.3     4  CYS4        0.1843
     12  C         11.9510    0.7900   12.2880 C.2     4  CYS4        0.2625
     13  O         11.4980   -0.3480   12.4000 O.2     4  CYS4       -0.2714
     14  CB        11.2400    2.4960   13.9830 C.3     4  CYS4        0.0997
     15  SG        10.4710    4.0950   14.3780 S.3     4  CYS4       -0.0797
     16  N         13.2070    1.0360   11.9370 N.am    5  VAL5       -0.1963
     17  CA        14.1770   -0.0280   11.7340 C.3     5  VAL5        0.1727
     18  C         15.2150    0.0450   12.8490 C.2     5  VAL5        0.2616
     19  O         15.6340    1.1320   13.2500 O.2     5  VAL5       -0.2715
     20  CB        14.8610    0.0660   10.3440 C.3     5  VAL5        0.0290
     21  CG1       15.6330    1.3820   10.1870 C.3     5  VAL5        0.0023
     22  CG2       15.7820   -1.1200   10.1230 C.3     5  VAL5        0.0023
     23  N         15.6100   -1.1120   13.3660 N.am    6  LYS6       -0.1977
     24  CA        16.5920   -1.1910   14.4450 C.3     6  LYS6        0.1596
     25  C         18.0030   -1.0200   13.9020 C.2     6  LYS6        0.2287
     26  O         18.4050   -1.7510   13.0060 O.2     6  LYS6       -0.2864
     27  CB        16.4670   -2.5360   15.1720 C.3     6  LYS6        0.0298
     28  CG        17.3060   -2.6810   16.4310 C.3     6  LYS6        0.0038
     29  CD        17.0390   -4.0350   17.0610 C.3     6  LYS6        0.0206
     30  CE        18.1210   -4.4450   18.0330 C.3     6  LYS6        0.1093
     31  NZ        17.8360   -5.8060   18.5890 N.3     6  LYS6       -0.1314
     32  N         11.5180    4.8750    9.3350 N.3    15  VAL15      -0.1245
     33  CA        11.9370    4.5640    7.9610 C.3    15  VAL15       0.1561
     34  C         11.5750    5.6360    6.9350 C.2    15  VAL15       0.2260
     35  O         12.0550    5.5770    5.7920 O.2    15  VAL15      -0.2867
     36  CB        11.3370    3.2180    7.4720 C.3    15  VAL15       0.0252
     37  CG1       11.7800    2.0830    8.3860 C.3    15  VAL15       0.0019
     38  CG2        9.8070    3.2960    7.3840 C.3    15  VAL15       0.0019
     39  N         22.2830    0.2300    7.6120 N.3   205  VAL205     -0.1245
     40  CA        21.0950    0.7140    6.9320 C.3   205  VAL205      0.1561
     41  C         21.4450    1.6640    5.7850 C.2   205  VAL205      0.2260
     42  O         22.2360    2.5970    5.9600 O.2   205  VAL205     -0.2867
     43  CB        20.1650    1.4380    7.9310 C.3   205  VAL205      0.0252
     44  CG1       18.9440    1.9490    7.2280 C.3   205  VAL205      0.0019
     45  CG2       19.7960    0.5030    9.0890 C.3   205  VAL205      0.0019
     46  N          7.6350    4.2440   -1.9790 N.3   251  ARG251     -0.1245
     47  CA         7.2400    2.9060   -1.5380 C.3   251  ARG251      0.1563
     48  C          8.2430    1.8590   -2.0110 C.2   251  ARG251      0.2260
     49  O          8.5660    0.9140   -1.2900 O.2   251  ARG251     -0.2867
     50  CB         5.8330    2.5570   -2.0330 C.3   251  ARG251      0.0307
     51  CG         5.3190    1.2260   -1.5120 C.3   251  ARG251      0.0489
     52  CD         4.8950    1.3270   -0.0540 C.3   251  ARG251      0.2205
     53  NE         4.7090    0.0090    0.5410 N.pl3 251  ARG251     -0.0865
     54  CZ         4.4810   -0.1950    1.8330 C.cat 251  ARG251      0.5346
     55  NH1        4.4020    0.8390    2.6600 N.pl3 251  ARG251      0.1354
     56  NH2        4.3430   -1.4290    2.2990 N.pl3 251  ARG251      0.1354
     57  N         11.0340    1.8200    0.5020 N.3   254  LEU254     -0.1231
     58  CA        10.6020    1.1550    1.7320 C.3   254  LEU254      0.1693
     59  C         10.6130   -0.3630    1.5650 C.2   254  LEU254      0.2591
     60  O         11.1440   -1.0980    2.3960 O.2   254  LEU254     -0.2718
     61  CB         9.1980    1.6160    2.1320 C.3   254  LEU254      0.0284
     62  CG         9.1320    3.0050    2.7570 C.3   254  LEU254      0.0019
     63  CD1        7.7450    3.2270    3.3240 C.3   254  LEU254      0.0001
     64  CD2       10.2170    3.1550    3.8390 C.3   254  LEU254      0.0001
     65  N         10.0590   -0.8280    0.4540 N.am  255  GLN255     -0.1979
     66  CA         9.8970   -2.2520    0.2660 C.3   255  GLN255      0.1601
     67  C         11.2090   -2.9150   -0.0840 C.2   255  GLN255      0.2287
     68  O         11.2950   -4.1420   -0.0550 O.2   255  GLN255     -0.2864
     69  CB         8.8430   -2.5350   -0.7950 C.3   255  GLN255      0.0394
     70  CG         7.4310   -2.4540   -0.2210 C.3   255  GLN255      0.0908
     71  CD         6.3360   -2.9040   -1.1850 C.2   255  GLN255      0.2608
     72  OE1        5.2980   -2.2530   -1.2950 O.2   255  GLN255     -0.2717
     73  NE2        6.5510   -4.0300   -1.8630 N.am  255  GLN255     -0.0878
     74  N         13.8030   -2.2710    1.8500 N.3   257  GLY257     -0.1210
     75  CA        14.4970   -2.2240    3.1190 C.3   257  GLY257      0.1956
     76  C         15.3800   -0.9980    3.2060 C.2   257  GLY257      0.2612
     77  O         16.3050   -0.9400    4.0060 O.2   257  GLY257     -0.2717
     78  N         15.0850   -0.0110    2.3760 N.am  258  VAL258     -0.1965
     79  CA        15.8220    1.2400    2.3760 C.3   258  VAL258      0.1727
     80  C         15.0650    2.2870    3.1880 C.2   258  VAL258      0.2616
     81  O         13.8490    2.4150    3.0550 O.2   258  VAL258     -0.2715
     82  CB        16.0430    1.7310    0.9310 C.3   258  VAL258      0.0290
     83  CG1       16.5600    3.1460    0.9140 C.3   258  VAL258      0.0023
     84  CG2       16.9960    0.7930    0.1950 C.3   258  VAL258      0.0023
     85  N         15.7670    3.0030    4.0630 N.am  259  VAL259     -0.1977
     86  CA        15.1550    4.1390    4.7420 C.3   259  VAL259      0.1596
     87  C         15.1200    5.2960    3.7560 C.2   259  VAL259      0.2287
     88  O         16.1170    5.5910    3.1100 O.2   259  VAL259     -0.2864
     89  CB        15.9060    4.5420    6.0450 C.3   259  VAL259      0.0276
     90  CG1       15.3790    5.8570    6.5710 C.3   259  VAL259      0.0022
     91  CG2       15.7540    3.4610    7.1180 C.3   259  VAL259      0.0022
     92  N          2.6470    4.7630    3.6330 N.3   277  PHE277     -0.1241
     93  CA         2.3980    3.5690    4.4300 C.3   277  PHE277      0.1605
     94  C          1.0290    2.9830    4.1130 C.2   277  PHE277      0.2264
     95  O          0.6570    1.9370    4.6410 O.2   277  PHE277     -0.2867
     96  CB         2.5110    3.8750    5.9260 C.3   277  PHE277      0.0534
     97  CG         3.8820    4.3010    6.3450 C.ar  277  PHE277     -0.0203
     98  CD1        4.9160    3.3810    6.4080 C.ar  277  PHE277     -0.0042
     99  CD2        4.1440    5.6230    6.6560 C.ar  277  PHE277     -0.0042
    100  CE1        6.1800    3.7690    6.7830 C.ar  277  PHE277     -0.0003
    101  CE2        5.4060    6.0140    7.0290 C.ar  277  PHE277     -0.0003
    102  CZ         6.4250    5.0850    7.0970 C.ar  277  PHE277     -0.0000
@<TRIPOS>BOND
     1    50    47    1
     2    50    51    1
     3    48    47    1
     4    48    49    2
     5    46    47    1
     6    73    71   am
     7    51    52    1
     8    72    71    2
     9    71    70    1
    10    69    70    1
    11    69    66    1
    12    67    68    2
    13    67    66    1
    14    52    53    1
    15    84    82    1
    16    66    65    1
    17    65    59   am
    18    57    58    1
    19    53    54    2
    20    83    82    1
    21    82    79    1
    22    59    58    1
    23    59    60    2
    24    58    61    1
    25    54    56    1
    26    54    55    1
    27    74    75    1
    28    61    62    1
    29    78    79    1
    30    78    76   am
    31    79    80    1
    32    62    63    1
    33    62    64    1
    34    81    80    2
    35    88    87    2
    36    75    76    1
    37    80    85   am
    38    76    77    2
    39    92    93    1
    40    87    86    1
    41    85    86    1
    42    94    93    1
    43    94    95    2
    44    93    96    1
    45    86    89    1
    46    41    42    2
    47    41    40    1
    48    35    34    2
    49    96    97    1
    50    89    90    1
    51    89    91    1
    52    97    98   ar
    53    97    99   ar
    54    98   100   ar
    55    99   101   ar
    56   100   102   ar
    57    40    39    1
    58    40    43    1
    59    34    33    1
    60   101   102   ar
    61    44    43    1
    62    38    36    1
    63    36    33    1
    64    36    37    1
    65    43    45    1
    66    33    32    1
    67     9     7   am
    68     6     7    1
    69     6     5    1
    70     7     8    2
    71     5     2    1
    72    22    20    1
    73    21    20    1
    74    20    17    1
    75     4     3    2
    76     2     3    1
    77     2     1    1
    78     3    10   am
    79    17    16    1
    80    17    18    1
    81    16    12   am
    82    10    11    1
    83    12    13    2
    84    12    11    1
    85    11    14    1
    86    18    19    2
    87    18    23   am
    88    26    25    2
    89    23    24    1
    90    25    24    1
    91    14    15    1
    92    24    27    1
    93    27    28    1
    94    28    29    1
    95    29    30    1
    96    30    31    1
