@<TRIPOS>MOLECULE
tmp/5jm8B00.pdb
 196 185 0 0 0
SMALL
GASTEIGER

@<TRIPOS>ATOM
      1  N         52.3640   45.1420  -16.7020 N.3   135  LEU135     -0.1245
      2  CA        53.1540   44.5280  -17.7660 C.3   135  LEU135      0.1561
      3  C         52.4100   44.5560  -19.1010 C.2   135  LEU135      0.2260
      4  O         51.5830   43.6860  -19.3830 O.2   135  LEU135     -0.2867
      5  CB        53.5210   43.0860  -17.4000 C.3   135  LEU135      0.0270
      6  CG        54.3960   42.3310  -18.4090 C.3   135  LEU135      0.0019
      7  CD1       55.7600   42.9870  -18.5570 C.3   135  LEU135      0.0001
      8  CD2       54.5400   40.8750  -18.0110 C.3   135  LEU135      0.0001
      9  N         55.1410   42.3160  -21.8760 N.3   138  GLY138     -0.1210
     10  CA        55.1520   40.8710  -21.7350 C.3   138  GLY138      0.1956
     11  C         56.5650   40.3250  -21.6650 C.2   138  GLY138      0.2612
     12  O         57.5000   41.0440  -21.3130 O.2   138  GLY138     -0.2717
     13  N         56.7180   39.0460  -21.9980 N.am  139  HIS139     -0.1961
     14  CA        58.0240   38.3890  -21.9800 C.3   139  HIS139      0.1787
     15  C         58.9610   39.0530  -22.9840 C.2   139  HIS139      0.2620
     16  O         58.7340   38.9890  -24.1900 O.2   139  HIS139     -0.2715
     17  CB        57.8720   36.8970  -22.2850 C.3   139  HIS139      0.0785
     18  CG        59.0790   36.0810  -21.9400 C.ar  139  HIS139      0.0821
     19  ND1       60.3560   36.6000  -21.9480 N.ar  139  HIS139     -0.2267
     20  CD2       59.2030   34.7850  -21.5700 C.ar  139  HIS139      0.1154
     21  CE1       61.2150   35.6580  -21.6010 C.ar  139  HIS139      0.1986
     22  NE2       60.5410   34.5470  -21.3650 N.ar  139  HIS139     -0.2212
     23  N         60.0110   39.6930  -22.4770 N.am  140  ALA140     -0.1977
     24  CA        60.8770   40.5400  -23.2960 C.3   140  ALA140      0.1597
     25  C         61.7000   39.7590  -24.3210 C.2   140  ALA140      0.2287
     26  O         62.3220   40.3590  -25.1990 O.2   140  ALA140     -0.2864
     27  CB        61.8050   41.3480  -22.4020 C.3   140  ALA140      0.0319
     28  N         54.7400   37.8100  -27.3620 N.3   145  PRO145     -0.2116
     29  CA        54.4300   37.7570  -25.9290 C.3   145  PRO145      0.1372
     30  C         52.9610   38.0270  -25.5980 C.2   145  PRO145      0.2244
     31  O         52.5600   37.8050  -24.4540 O.2   145  PRO145     -0.2868
     32  CB        55.3210   38.8520  -25.3420 C.3   145  PRO145      0.0268
     33  CG        55.5200   39.8110  -26.4540 C.3   145  PRO145      0.0207
     34  CD        55.5550   38.9880  -27.7040 C.3   145  PRO145      0.0892
     35  N         46.0670   38.5660  -12.9860 N.3   252  THR252     -0.1203
     36  CA        47.4610   38.9280  -12.7560 C.3   252  THR252      0.1994
     37  C         48.2680   38.7570  -14.0440 C.2   252  THR252      0.2619
     38  O         47.6960   38.5170  -15.1060 O.2   252  THR252     -0.2717
     39  CB        48.0770   38.0710  -11.6320 C.3   252  THR252      0.1784
     40  OG1       48.1040   36.6960  -12.0320 O.3   252  THR252     -0.2211
     41  CG2       47.2660   38.2090  -10.3470 C.3   252  THR252      0.0376
     42  N         49.5910   38.8730  -13.9440 N.am  253  THR253     -0.1938
     43  CA        50.4750   38.7670  -15.1090 C.3   253  THR253      0.2028
     44  C         50.2590   37.4760  -15.8960 C.2   253  THR253      0.2642
     45  O         50.3670   37.4610  -17.1220 O.2   253  THR253     -0.2714
     46  CB        51.9590   38.8340  -14.6960 C.3   253  THR253      0.1808
     47  OG1       52.1660   38.0360  -13.5240 O.3   253  THR253     -0.2208
     48  CG2       52.3770   40.2670  -14.4050 C.3   253  THR253      0.0379
     49  N         49.9580   36.3970  -15.1800 N.am  254  SER254     -0.1949
     50  CA        49.7310   35.0890  -15.7920 C.3   254  SER254      0.1924
     51  C         48.2940   34.9090  -16.2860 C.2   254  SER254      0.2314
     52  O         47.9680   33.8930  -16.9040 O.2   254  SER254     -0.2863
     53  CB        50.0590   33.9870  -14.7890 C.3   254  SER254      0.2116
     54  OG        49.2250   34.0860  -13.6450 O.3   254  SER254     -0.2180
     55  N         45.6530   33.5770  -15.6880 N.3   256  ARG256     -0.1231
     56  CA        44.8540   32.4970  -15.1100 C.3   256  ARG256      0.1694
     57  C         44.8650   32.5400  -13.5890 C.2   256  ARG256      0.2592
     58  O         43.9980   31.9490  -12.9450 O.2   256  ARG256     -0.2718
     59  CB        45.3390   31.1310  -15.5970 C.3   256  ARG256      0.0321
     60  CG        46.7800   30.7780  -15.2560 C.3   256  ARG256      0.0489
     61  CD        47.0040   29.2920  -15.4830 C.3   256  ARG256      0.2205
     62  NE        48.4130   28.9270  -15.5870 N.pl3 256  ARG256     -0.0865
     63  CZ        48.8480   27.6880  -15.8050 C.cat 256  ARG256      0.5346
     64  NH1       50.1470   27.4420  -15.8870 N.pl3 256  ARG256      0.1354
     65  NH2       47.9850   26.6910  -15.9410 N.pl3 256  ARG256      0.1354
     66  N         45.8450   33.2350  -13.0200 N.am  257  SER257     -0.1952
     67  CA        45.8700   33.4760  -11.5830 C.3   257  SER257      0.1924
     68  C         45.2350   34.8290  -11.2830 C.2   257  SER257      0.2314
     69  O         45.6040   35.8410  -11.8810 O.2   257  SER257     -0.2863
     70  CB        47.2980   33.4150  -11.0430 C.3   257  SER257      0.2116
     71  OG        47.7980   32.0880  -11.0880 O.3   257  SER257     -0.2180
     72  N         43.9700   30.0480   -9.0230 N.3   268  LYS268     -0.1245
     73  CA        44.6420   29.7860  -10.2850 C.3   268  LYS268      0.1561
     74  C         43.8530   28.7570  -11.0800 C.2   268  LYS268      0.2260
     75  O         43.8730   27.5690  -10.7620 O.2   268  LYS268     -0.2867
     76  CB        46.0630   29.2980  -10.0220 C.3   268  LYS268      0.0271
     77  CG        46.8840   29.0100  -11.2600 C.3   268  LYS268      0.0035
     78  CD        48.3100   28.6420  -10.8660 C.3   268  LYS268      0.0206
     79  CE        49.1920   28.3580  -12.0670 C.3   268  LYS268      0.1093
     80  NZ        50.5850   28.0510  -11.6490 N.3   268  LYS268     -0.1314
     81  N         48.9140   31.1600  -23.9650 N.3   275  LEU275     -0.1231
     82  CA        49.7770   32.2700  -23.5700 C.3   275  LEU275      0.1693
     83  C         51.2450   31.8690  -23.7240 C.2   275  LEU275      0.2592
     84  O         51.7320   30.9890  -23.0150 O.2   275  LEU275     -0.2718
     85  CB        49.4880   32.6980  -22.1270 C.3   275  LEU275      0.0284
     86  CG        48.4660   33.8230  -21.9180 C.3   275  LEU275      0.0019
     87  CD1       47.0790   33.4220  -22.3900 C.3   275  LEU275      0.0001
     88  CD2       48.4280   34.2390  -20.4550 C.3   275  LEU275      0.0001
     89  N         51.9350   32.5370  -24.6460 N.am  276  THR276     -0.1953
     90  CA        53.3230   32.2290  -25.0070 C.3   276  THR276      0.1897
     91  C         53.6400   30.7320  -25.0860 C.2   276  THR276      0.2313
     92  O         54.5800   30.2510  -24.4580 O.2   276  THR276     -0.2863
     93  CB        54.3250   32.8770  -24.0220 C.3   276  THR276      0.1794
     94  OG1       53.9440   32.5850  -22.6720 O.3   276  THR276     -0.2208
     95  CG2       54.3810   34.3820  -24.2280 C.3   276  THR276      0.0378
     96  N         46.9720   26.9890  -21.1530 N.3   280  ARG280     -0.1245
     97  CA        47.0670   27.2550  -19.7250 C.3   280  ARG280      0.1563
     98  C         46.0550   26.4750  -18.8940 C.2   280  ARG280      0.2260
     99  O         45.6040   26.9390  -17.8470 O.2   280  ARG280     -0.2867
    100  CB        46.9170   28.7580  -19.4800 C.3   280  ARG280      0.0307
    101  CG        48.0610   29.5790  -20.0610 C.3   280  ARG280      0.0489
    102  CD        49.3710   29.3130  -19.3270 C.3   280  ARG280      0.2205
    103  NE        50.5270   29.8630  -20.0270 N.pl3 280  ARG280     -0.0865
    104  CZ        51.7710   29.8180  -19.5610 C.cat 280  ARG280      0.5346
    105  NH1       52.0230   29.2550  -18.3850 N.pl3 280  ARG280      0.1354
    106  NH2       52.7640   30.3430  -20.2660 N.pl3 280  ARG280      0.1354
    107  N         45.8920   29.5690   -3.7540 N.3   339  ARG339     -0.1245
    108  CA        47.2110   30.0600   -3.3920 C.3   339  ARG339      0.1563
    109  C         47.1140   31.0160   -2.2050 C.2   339  ARG339      0.2260
    110  O         46.2700   31.9130   -2.1930 O.2   339  ARG339     -0.2867
    111  CB        47.8480   30.7450   -4.6020 C.3   339  ARG339      0.0307
    112  CG        49.1060   31.5350   -4.3210 C.3   339  ARG339      0.0489
    113  CD        49.6280   32.1610   -5.6000 C.3   339  ARG339      0.2205
    114  NE        50.1280   31.1550   -6.5330 N.pl3 339  ARG339     -0.0865
    115  CZ        50.1680   31.3070   -7.8530 C.cat 339  ARG339      0.5346
    116  NH1       49.7260   32.4270   -8.4130 N.pl3 339  ARG339      0.1354
    117  NH2       50.6440   30.3330   -8.6160 N.pl3 339  ARG339      0.1354
    118  N         58.9770   41.3660  -13.0090 N.3   355  VAL355     -0.1245
    119  CA        58.9220   41.5310  -14.4600 C.3   355  VAL355      0.1561
    120  C         58.3400   42.8800  -14.8860 C.2   355  VAL355      0.2260
    121  O         58.7740   43.4610  -15.8790 O.2   355  VAL355     -0.2867
    122  CB        58.1010   40.3910  -15.1150 C.3   355  VAL355      0.0252
    123  CG1       56.6400   40.4380  -14.6790 C.3   355  VAL355      0.0019
    124  CG2       58.2140   40.4560  -16.6270 C.3   355  VAL355      0.0019
    125  N         61.2050   32.6550  -12.3950 N.3   417  HIS417     -0.1226
    126  CA        61.1640   33.6430  -13.4610 C.3   417  HIS417      0.1752
    127  C         61.2580   35.0390  -12.8830 C.2   417  HIS417      0.2596
    128  O         61.3320   35.2380  -11.6750 O.2   417  HIS417     -0.2718
    129  CB        59.8710   33.5500  -14.2730 C.3   417  HIS417      0.0759
    130  CG        59.7250   32.2820  -15.0470 C.ar  417  HIS417      0.0818
    131  ND1       58.7920   31.3200  -14.7290 N.ar  417  HIS417     -0.2268
    132  CD2       60.3820   31.8250  -16.1380 C.ar  417  HIS417      0.1154
    133  CE1       58.8850   30.3200  -15.5880 C.ar  417  HIS417      0.1986
    134  NE2       59.8430   30.6020  -16.4530 N.ar  417  HIS417     -0.2212
    135  N         61.2280   36.0110  -13.7780 N.am  418  GLN418     -0.1965
    136  CA        61.0390   37.3950  -13.4080 C.3   418  GLN418      0.1733
    137  C         59.5950   37.6290  -12.9750 C.2   418  GLN418      0.2616
    138  O         59.2610   38.6610  -12.3910 O.2   418  GLN418     -0.2715
    139  CB        61.3860   38.2750  -14.5900 C.3   418  GLN418      0.0408
    140  CG        61.8520   39.6320  -14.2340 C.3   418  GLN418      0.0908
    141  CD        62.2300   40.4320  -15.4520 C.2   418  GLN418      0.2608
    142  OE1       62.4310   41.6330  -15.3600 O.2   418  GLN418     -0.2717
    143  NE2       62.3370   39.7690  -16.6040 N.am  418  GLN418     -0.0878
    144  N         58.7410   36.6570  -13.2830 N.am  419  GLN419     -0.1963
    145  CA        57.3120   36.7670  -13.0360 C.3   419  GLN419      0.1733
    146  C         56.8860   35.9270  -11.8280 C.2   419  GLN419      0.2616
    147  O         55.8110   36.1360  -11.2690 O.2   419  GLN419     -0.2715
    148  CB        56.5410   36.3470  -14.2920 C.3   419  GLN419      0.0408
    149  CG        55.0290   36.5100  -14.1970 C.3   419  GLN419      0.0908
    150  CD        54.3000   35.2180  -13.8630 C.2   419  GLN419      0.2608
    151  OE1       54.8470   34.1230  -13.9950 O.2   419  GLN419     -0.2717
    152  NE2       53.0520   35.3450  -13.4320 N.am  419  GLN419     -0.0878
    153  N         57.7340   34.9830  -11.4280 N.am  420  ASN420     -0.1972
    154  CA        57.5000   34.1980  -10.2180 C.3   420  ASN420      0.1688
    155  C         58.0770   34.8910   -8.9880 C.2   420  ASN420      0.2292
    156  O         57.7110   34.5740   -7.8560 O.2   420  ASN420     -0.2864
    157  CB        58.1060   32.8030  -10.3630 C.3   420  ASN420      0.1181
    158  CG        57.3450   31.9360  -11.3410 C.2   420  ASN420      0.2629
    159  OD1       56.3670   32.3750  -11.9420 O.2   420  ASN420     -0.2716
    160  ND2       57.8000   30.7010  -11.5160 N.am  420  ASN420     -0.0877
    161  N         56.3170   32.6240   -6.0260 N.3   436  ARG436     -0.1231
    162  CA        54.9970   32.2110   -6.4780 C.3   436  ARG436      0.1694
    163  C         55.1220   31.1800   -7.5990 C.2   436  ARG436      0.2592
    164  O         56.1370   31.1450   -8.2930 O.2   436  ARG436     -0.2718
    165  CB        54.2080   33.4350   -6.9500 C.3   436  ARG436      0.0321
    166  CG        52.9200   33.1210   -7.6880 C.3   436  ARG436      0.0489
    167  CD        52.2540   34.3860   -8.1770 C.3   436  ARG436      0.2205
    168  NE        53.0910   35.1150   -9.1240 N.pl3 436  ARG436     -0.0865
    169  CZ        52.9280   36.3980   -9.4210 C.cat 436  ARG436      0.5346
    170  NH1       51.9640   37.0970   -8.8350 N.pl3 436  ARG436      0.1354
    171  NH2       53.7340   36.9870  -10.2920 N.pl3 436  ARG436      0.1354
    172  N         54.0820   30.3590   -7.7530 N.am  437  ASP437     -0.1974
    173  CA        53.9900   29.3220   -8.7860 C.3   437  ASP437      0.1709
    174  C         54.7500   28.0650   -8.3800 C.2   437  ASP437      0.2293
    175  O         55.9520   27.9440   -8.6160 O.2   437  ASP437     -0.2864
    176  CB        54.5050   29.8280  -10.1340 C.3   437  ASP437      0.1436
    177  CG        54.0660   28.9500  -11.2900 C.2   437  ASP437      0.3671
    178  OD1       53.4670   27.8850  -11.0310 O.co2 437  ASP437     -0.2456
    179  OD2       54.3260   29.3170  -12.4550 O.co2 437  ASP437     -0.2456
    180  N         54.3040   24.8770   -9.3660 N.3   439  GLN439     -0.1245
    181  CA        54.5450   23.8250  -10.3520 C.3   439  GLN439      0.1566
    182  C         55.9360   24.0140  -10.9430 C.2   439  GLN439      0.2260
    183  O         56.4080   23.1880  -11.7240 O.2   439  GLN439     -0.2867
    184  CB        53.4780   23.8160  -11.4570 C.3   439  GLN439      0.0367
    185  CG        53.5170   24.9900  -12.4310 C.3   439  GLN439      0.0905
    186  CD        52.7500   24.7140  -13.7180 C.2   439  GLN439      0.2608
    187  OE1       52.2620   23.6080  -13.9410 O.2   439  GLN439     -0.2717
    188  NE2       52.6480   25.7250  -14.5730 N.am  439  GLN439     -0.0878
    189  N         66.7600   35.2370  -17.2440 N.3   479  ASN479     -0.1240
    190  CA        65.3950   35.7450  -17.2100 C.3   479  ASN479      0.1653
    191  C         65.0150   36.2460  -15.8150 C.2   479  ASN479      0.2266
    192  O         63.9680   35.8840  -15.2780 O.2   479  ASN479     -0.2867
    193  CB        64.4200   34.6570  -17.6710 C.3   479  ASN479      0.1155
    194  CG        63.0410   35.2010  -17.9920 C.2   479  ASN479      0.2627
    195  OD1       62.8540   36.4080  -18.1460 O.2   479  ASN479     -0.2716
    196  ND2       62.0660   34.3070  -18.1000 N.am  479  ASN479     -0.0877
@<TRIPOS>BOND
     1    34    28    1
     2    34    33    1
     3    28    29    1
     4    33    32    1
     5    29    30    1
     6    29    32    1
     7    30    31    2
     8    26    25    2
     9    91    90    1
    10    91    92    2
    11    90    89    1
    12    90    93    1
    13    89    83   am
    14    25    24    1
    15    95    93    1
    16    16    15    2
    17    93    94    1
    18    81    82    1
    19    83    82    1
    20    83    84    2
    21    82    85    1
    22    24    23    1
    23    24    27    1
    24    15    23   am
    25    15    14    1
    26    87    86    1
    27    17    14    1
    28    17    18    1
    29    85    86    1
    30    13    14    1
    31    13    11   am
    32    19    18   ar
    33    19    21   ar
    34    18    20   ar
    35    86    88    1
    36     9    10    1
    37    10    11    1
    38    11    12    2
    39    21    22   ar
    40    20    22   ar
    41    96    97    1
    42   106   104    1
    43   101   100    1
    44   101   102    1
    45   103   104    2
    46   103   102    1
    47    97   100    1
    48    97    98    1
    49   104   105    1
    50     4     3    2
    51     3     2    1
    52    98    99    2
    53     7     6    1
    54     6     8    1
    55     6     5    1
    56   195   194    2
    57   196   194   am
    58   194   193    1
    59     2     5    1
    60     2     1    1
    61   193   190    1
    62   189   190    1
    63   190   191    1
    64    45    44    2
    65    52    51    2
    66   124   122    1
    67   143   141   am
    68   134   132   ar
    69   134   133   ar
    70    51    50    1
    71   132   130   ar
    72    65    63    1
    73    44    49   am
    74    44    43    1
    75    64    63    1
    76   121   120    2
    77   191   192    2
    78    63    62    2
    79    50    49    1
    80    50    53    1
    81    55    56    1
    82    59    60    1
    83    59    56    1
    84   133   131   ar
    85    62    61    1
    86    61    60    1
    87   141   142    2
    88   141   140    1
    89   122   123    1
    90   122   119    1
    91    56    57    1
    92    43    46    1
    93    43    42    1
    94    38    37    2
    95   130   131   ar
    96   130   129    1
    97   120   119    1
    98    53    54    1
    99    46    48    1
   100    46    47    1
   101   139   140    1
   102   139   136    1
   103   188   186   am
   104   119   118    1
   105   148   149    1
   106   148   145    1
   107   129   126    1
   108   149   150    1
   109    37    42   am
   110    37    36    1
   111   151   150    2
   112   187   186    2
   113   150   152   am
   114   135   136    1
   115   135   127   am
   116   186   185    1
   117    57    66   am
   118    57    58    2
   119   126   127    1
   120   126   125    1
   121   136   137    1
   122   144   145    1
   123   144   137   am
   124   145   146    1
   125    66    67    1
   126    35    36    1
   127   137   138    2
   128   127   128    2
   129    36    39    1
   130   179   177   ar
   131   185   184    1
   132    79    80    1
   133    79    78    1
   134    40    39    1
   135   159   158    2
   136    69    68    2
   137   146   153   am
   138   146   147    2
   139   183   182    2
   140    39    41    1
   141    67    68    1
   142    67    70    1
   143   160   158   am
   144   184   181    1
   145   153   154    1
   146   158   157    1
   147   177   178   ar
   148   177   176    1
   149    77    78    1
   150    77    76    1
   151    71    70    1
   152    74    75    2
   153    74    73    1
   154   182   181    1
   155   157   154    1
   156   181   180    1
   157   171   169    1
   158    73    76    1
   159    73    72    1
   160   154   155    1
   161   176   173    1
   162   169   168    2
   163   169   170    1
   164   168   167    1
   165   155   156    2
   166   173   174    1
   167   173   172    1
   168   117   115    1
   169   175   174    2
   170   116   115    1
   171   164   163    2
   172   167   166    1
   173   115   114    2
   174   172   163   am
   175   166   165    1
   176   163   162    1
   177   165   162    1
   178   114   113    1
   179   162   161    1
   180   113   112    1
   181   111   112    1
   182   111   108    1
   183   107   108    1
   184   108   109    1
   185   109   110    2
