@<TRIPOS>MOLECULE
tmp/5jmaA00.pdb
 104 97 0 0 0
SMALL
GASTEIGER

@<TRIPOS>ATOM
      1  N        -15.0240  -20.3500  -53.2490 N.3   185  ASP185     -0.1239
      2  CA       -15.8690  -21.4160  -52.7040 C.3   185  ASP185      0.1674
      3  C        -15.5080  -21.8470  -51.2850 C.2   185  ASP185      0.2266
      4  O        -14.4120  -22.3720  -51.0490 O.2   185  ASP185     -0.2867
      5  CB       -15.8160  -22.6290  -53.6280 C.3   185  ASP185      0.1410
      6  CG       -16.1290  -22.2620  -55.0520 C.2   185  ASP185      0.3668
      7  OD1      -17.3230  -22.3000  -55.3990 O.co2 185  ASP185     -0.2456
      8  OD2      -15.1900  -21.8870  -55.7930 O.co2 185  ASP185     -0.2456
      9  N        -20.4600  -24.4650  -52.4300 N.3   192  GLU192     -0.1231
     10  CA       -19.6060  -24.7810  -53.5540 C.3   192  GLU192      0.1699
     11  C        -20.4190  -24.6090  -54.8300 C.2   192  GLU192      0.2592
     12  O        -21.4210  -25.2940  -55.0270 O.2   192  GLU192     -0.2718
     13  CB       -19.0520  -26.2120  -53.4250 C.3   192  GLU192      0.0402
     14  CG       -18.1310  -26.4580  -52.2010 C.3   192  GLU192      0.1161
     15  CD       -16.6990  -25.9690  -52.4270 C.2   192  GLU192      0.3649
     16  OE1      -16.2500  -25.9650  -53.5940 O.co2 192  GLU192     -0.2457
     17  OE2      -16.0160  -25.5820  -51.4480 O.co2 192  GLU192     -0.2457
     18  N        -20.0000  -23.6640  -55.6630 N.am  193  VAL193     -0.1966
     19  CA       -20.7010  -23.3510  -56.9070 C.3   193  VAL193      0.1727
     20  C        -20.9150  -24.5910  -57.7660 C.2   193  VAL193      0.2616
     21  O        -22.0230  -24.8440  -58.2530 O.2   193  VAL193     -0.2715
     22  CB       -19.9360  -22.2990  -57.7130 C.3   193  VAL193      0.0290
     23  CG1      -20.4680  -22.2350  -59.1380 C.3   193  VAL193      0.0023
     24  CG2      -20.0470  -20.9520  -57.0310 C.3   193  VAL193      0.0023
     25  N        -19.8660  -25.3920  -57.9060 N.am  194  ILE194     -0.1977
     26  CA       -19.9730  -26.6310  -58.6720 C.3   194  ILE194      0.1596
     27  C        -21.0720  -27.5540  -58.1430 C.2   194  ILE194      0.2287
     28  O        -21.7050  -28.2560  -58.9340 O.2   194  ILE194     -0.2864
     29  CB       -18.6220  -27.3900  -58.7210 C.3   194  ILE194      0.0276
     30  CG1      -18.6330  -28.3980  -59.8740 C.3   194  ILE194      0.0022
     31  CG2      -18.3040  -28.0750  -57.4030 C.3   194  ILE194      0.0022
     32  CD1      -17.3100  -28.5060  -60.5960 C.3   194  ILE194      0.0001
     33  N        -15.9080  -33.3700  -54.5690 N.3   211  THR211     -0.1218
     34  CA       -15.4740  -32.0820  -54.0300 C.3   211  THR211      0.1862
     35  C        -14.7840  -32.2270  -52.6730 C.2   211  THR211      0.2287
     36  O        -13.6790  -31.7250  -52.4650 O.2   211  THR211     -0.2866
     37  CB       -16.6620  -31.1140  -53.8770 C.3   211  THR211      0.1770
     38  OG1      -17.1730  -30.7760  -55.1700 O.3   211  THR211     -0.2211
     39  CG2      -16.2440  -29.8300  -53.1280 C.3   211  THR211      0.0375
     40  N        -10.9750  -31.3930  -51.8690 N.3   215  MET215     -0.1245
     41  CA       -10.6180  -30.3810  -50.8770 C.3   215  MET215      0.1570
     42  C         -9.8770  -30.9600  -49.6640 C.2   215  MET215      0.2261
     43  O         -9.2900  -30.2130  -48.8880 O.2   215  MET215     -0.2867
     44  CB       -11.8720  -29.6300  -50.4120 C.3   215  MET215      0.0387
     45  CG       -12.5030  -28.7310  -51.4880 C.3   215  MET215      0.0595
     46  SD       -11.3250  -27.6480  -52.3150 S.3   215  MET215     -0.1393
     47  CE       -11.0230  -28.5520  -53.8530 C.3   215  MET215      0.0692
     48  N         -6.5200  -32.2900  -58.2800 N.3   221  PHE221     -0.1241
     49  CA        -7.5120  -31.2360  -58.4660 C.3   221  PHE221      0.1605
     50  C         -8.0400  -31.1680  -59.8870 C.2   221  PHE221      0.2264
     51  O         -9.2450  -31.0530  -60.0940 O.2   221  PHE221     -0.2867
     52  CB        -6.9750  -29.8580  -58.1040 C.3   221  PHE221      0.0534
     53  CG        -7.9690  -28.7710  -58.3830 C.ar  221  PHE221     -0.0203
     54  CD1       -9.0440  -28.5780  -57.5360 C.ar  221  PHE221     -0.0042
     55  CD2       -7.8830  -28.0020  -59.5280 C.ar  221  PHE221     -0.0042
     56  CE1       -9.9890  -27.6180  -57.8040 C.ar  221  PHE221     -0.0003
     57  CE2       -8.8350  -27.0400  -59.8000 C.ar  221  PHE221     -0.0003
     58  CZ        -9.8820  -26.8460  -58.9300 C.ar  221  PHE221     -0.0000
     59  N        -11.7360  -31.7780  -61.0810 N.3   225  LEU225     -0.1245
     60  CA       -12.5150  -30.7280  -61.7210 C.3   225  LEU225      0.1561
     61  C        -13.1400  -31.2570  -63.0170 C.2   225  LEU225      0.2260
     62  O        -14.3020  -30.9610  -63.3180 O.2   225  LEU225     -0.2867
     63  CB       -11.6500  -29.4920  -61.9950 C.3   225  LEU225      0.0270
     64  CG       -12.4060  -28.2770  -62.5470 C.3   225  LEU225      0.0019
     65  CD1      -13.2830  -27.6620  -61.4660 C.3   225  LEU225      0.0001
     66  CD2      -11.4680  -27.2330  -63.1550 C.3   225  LEU225      0.0001
     67  N        -16.1180  -33.5540  -62.1920 N.3   228  ARG228     -0.1245
     68  CA       -17.2840  -32.8730  -61.6490 C.3   228  ARG228      0.1563
     69  C        -17.9870  -32.0220  -62.7120 C.2   228  ARG228      0.2260
     70  O        -19.2100  -32.0380  -62.8150 O.2   228  ARG228     -0.2867
     71  CB       -16.8910  -32.0210  -60.4370 C.3   228  ARG228      0.0307
     72  CG       -16.6070  -32.8450  -59.1760 C.3   228  ARG228      0.0489
     73  CD       -16.0690  -31.9750  -58.0410 C.3   228  ARG228      0.2205
     74  NE       -14.7140  -31.5100  -58.3240 N.pl3 228  ARG228     -0.0865
     75  CZ       -14.1530  -30.4600  -57.7410 C.cat 228  ARG228      0.5346
     76  NH1      -14.8380  -29.7630  -56.8400 N.pl3 228  ARG228      0.1354
     77  NH2      -12.9130  -30.1010  -58.0650 N.pl3 228  ARG228      0.1354
     78  N        -10.7240  -22.0860  -58.7950 N.3   272  GLY272     -0.1210
     79  CA       -10.8160  -23.1430  -59.7860 C.3   272  GLY272      0.1956
     80  C        -12.1970  -23.1440  -60.4180 C.2   272  GLY272      0.2612
     81  O        -12.4920  -23.9270  -61.3210 O.2   272  GLY272     -0.2717
     82  N        -13.0500  -22.2500  -59.9330 N.am  273  GLY273     -0.1942
     83  CA       -14.4090  -22.1440  -60.4250 C.3   273  GLY273      0.2014
     84  C        -14.4920  -21.4020  -61.7360 C.2   273  GLY273      0.2638
     85  O        -13.5300  -21.3540  -62.4950 O.2   273  GLY273     -0.2714
     86  N        -15.6450  -20.7910  -61.9770 N.am  274  PHE274     -0.1973
     87  CA       -16.0390  -20.3870  -63.3160 C.3   274  PHE274      0.1639
     88  C        -16.2440  -18.8880  -63.4400 C.2   274  PHE274      0.2290
     89  O        -16.9680  -18.2780  -62.6490 O.2   274  PHE274     -0.2864
     90  CB       -17.2930  -21.1540  -63.6850 C.3   274  PHE274      0.0560
     91  CG       -17.2360  -22.5830  -63.2380 C.ar  274  PHE274     -0.0200
     92  CD1      -16.2730  -23.4310  -63.7520 C.ar  274  PHE274     -0.0042
     93  CD2      -18.0830  -23.0520  -62.2520 C.ar  274  PHE274     -0.0042
     94  CE1      -16.1860  -24.7270  -63.3360 C.ar  274  PHE274     -0.0003
     95  CE2      -17.9990  -24.3520  -61.8200 C.ar  274  PHE274     -0.0003
     96  CZ       -17.0500  -25.1950  -62.3670 C.ar  274  PHE274     -0.0000
     97  N         -6.7350  -27.5190  -52.3370 N.3   342  ASN342     -0.1240
     98  CA        -6.5740  -26.7900  -53.5740 C.3   342  ASN342      0.1653
     99  C         -5.8060  -25.4740  -53.3760 C.2   342  ASN342      0.2266
    100  O         -5.1810  -24.9500  -54.3040 O.2   342  ASN342     -0.2867
    101  CB        -7.9580  -26.5260  -54.1670 C.3   342  ASN342      0.1155
    102  CG        -7.9000  -25.7750  -55.4650 C.2   342  ASN342      0.2627
    103  OD1       -8.6640  -24.8330  -55.6870 O.2   342  ASN342     -0.2716
    104  ND2       -6.9790  -26.1740  -56.3360 N.am  342  ASN342     -0.0877
@<TRIPOS>BOND
     1    92    94   ar
     2    92    91   ar
     3    90    87    1
     4    90    91    1
     5    88    87    1
     6    88    89    2
     7    94    96   ar
     8    62    61    2
     9    87    86    1
    10    91    93   ar
    11    66    64    1
    12    61    60    1
    13    70    69    2
    14    69    68    1
    15    64    63    1
    16    64    65    1
    17    85    84    2
    18    96    95   ar
    19    93    95   ar
    20    67    68    1
    21    63    60    1
    22    86    84   am
    23    84    83    1
    24    60    59    1
    25    68    71    1
    26    81    80    2
    27    32    30    1
    28    71    72    1
    29    83    82    1
    30    80    82   am
    31    80    79    1
    32    51    50    2
    33    50    49    1
    34    30    29    1
    35    57    55   ar
    36    57    58   ar
    37    79    78    1
    38    55    53   ar
    39    72    73    1
    40    23    22    1
    41    28    27    2
    42    58    56   ar
    43    29    26    1
    44    29    31    1
    45    26    27    1
    46    26    25    1
    47    49    48    1
    48    49    52    1
    49    53    52    1
    50    53    54   ar
    51    74    73    1
    52    74    75    2
    53    21    20    2
    54    77    75    1
    55    25    20   am
    56    56    54   ar
    57    20    19    1
    58    75    76    1
    59    22    24    1
    60    22    19    1
    61    19    18    1
    62   104   102   am
    63     8     6   ar
    64   103   102    2
    65    18    11   am
    66   102   101    1
    67     7     6   ar
    68    38    37    1
    69     6     5    1
    70    12    11    2
    71    11    10    1
    72    33    34    1
    73   100    99    2
    74   101    98    1
    75    34    37    1
    76    34    35    1
    77    37    39    1
    78    47    46    1
    79     5     2    1
    80    16    15   ar
    81    98    99    1
    82    98    97    1
    83    10    13    1
    84    10     9    1
    85    13    14    1
    86     1     2    1
    87     2     3    1
    88    35    36    2
    89    15    14    1
    90    15    17   ar
    91    46    45    1
    92    40    41    1
    93    45    44    1
    94     3     4    2
    95    41    44    1
    96    41    42    1
    97    42    43    2
