@<TRIPOS>MOLECULE
tmp/5jmmA01.pdb
 178 168 0 0 0
SMALL
GASTEIGER

@<TRIPOS>ATOM
      1  N         28.5150    6.7210   11.8960 N.3    38  MET38      -0.1245
      2  CA        28.0050    5.7660   10.9210 C.3    38  MET38       0.1570
      3  C         27.3180    4.5950   11.6170 C.2    38  MET38       0.2261
      4  O         26.3140    4.0670   11.1210 O.2    38  MET38      -0.2867
      5  CB        29.1470    5.2860   10.0240 C.3    38  MET38       0.0387
      6  CG        28.6880    4.6700    8.7300 C.3    38  MET38       0.0595
      7  SD        28.0160    5.8940    7.6010 S.3    38  MET38      -0.1393
      8  CE        26.7010    4.9470    6.8250 C.3    38  MET38       0.0692
      9  N         23.7660    5.3690   12.1270 N.3    41  LEU41      -0.1231
     10  CA        22.9290    5.1510   10.9560 C.3    41  LEU41       0.1693
     11  C         22.6290    3.6690   10.7530 C.2    41  LEU41       0.2592
     12  O         21.4770    3.2950   10.4920 O.2    41  LEU41      -0.2718
     13  CB        23.6040    5.7450    9.7190 C.3    41  LEU41       0.0284
     14  CG        23.9090    7.2440    9.8590 C.3    41  LEU41       0.0019
     15  CD1       24.3800    7.8660    8.5450 C.3    41  LEU41       0.0001
     16  CD2       22.6970    7.9830   10.3910 C.3    41  LEU41       0.0001
     17  N         23.6460    2.8050   10.8870 N.am   42  THR42      -0.1953
     18  CA        23.4250    1.3800   10.6420 C.3    42  THR42       0.1897
     19  C         22.5990    0.7450   11.7520 C.2    42  THR42       0.2313
     20  O         21.7910   -0.1530   11.4890 O.2    42  THR42      -0.2863
     21  CB        24.7570    0.6480   10.4680 C.3    42  THR42       0.1794
     22  OG1       25.5790    0.8510   11.6210 O.3    42  THR42      -0.2208
     23  CG2       25.4970    1.1820    9.2390 C.3    42  THR42       0.0378
     24  N         20.2340    2.3620   13.3600 N.3    44  LEU44      -0.1231
     25  CA        18.8810    2.8070   13.0450 C.3    44  LEU44       0.1693
     26  C         18.2990    2.0260   11.8660 C.2    44  LEU44       0.2591
     27  O         17.1540    1.5580   11.9170 O.2    44  LEU44      -0.2718
     28  CB        18.8950    4.3090   12.7640 C.3    44  LEU44       0.0284
     29  CG        17.6360    4.9660   12.1910 C.3    44  LEU44       0.0019
     30  CD1       16.5810    5.1640   13.2770 C.3    44  LEU44       0.0001
     31  CD2       17.9940    6.3020   11.5410 C.3    44  LEU44       0.0001
     32  N         19.0790    1.8660   10.7940 N.am   45  ALA45      -0.1980
     33  CA        18.5770    1.1520    9.6250 C.3    45  ALA45       0.1597
     34  C         18.1550   -0.2660    9.9830 C.2    45  ALA45       0.2287
     35  O         17.1250   -0.7590    9.5080 O.2    45  ALA45      -0.2864
     36  CB        19.6390    1.1380    8.5220 C.3    45  ALA45       0.0319
     37  N         14.7970   -0.0370   11.6030 N.3    48  GLU48      -0.1245
     38  CA        13.7790    0.2670   10.5970 C.3    48  GLU48       0.1567
     39  C         13.4400   -0.9490    9.7370 C.2    48  GLU48       0.2260
     40  O         12.2810   -1.1220    9.3360 O.2    48  GLU48      -0.2867
     41  CB        14.2440    1.4070    9.7020 C.3    48  GLU48       0.0388
     42  CG        14.3860    2.7500   10.3810 C.3    48  GLU48       0.1160
     43  CD        14.7430    3.8330    9.3630 C.2    48  GLU48       0.3649
     44  OE1       15.9530    4.0550    9.1250 O.co2  48  GLU48      -0.2457
     45  OE2       13.8130    4.4350    8.7780 O.co2  48  GLU48      -0.2457
     46  N         15.5300   -2.9020   -0.1510 N.3    77  TRP77      -0.1227
     47  CA        15.4590   -2.3870    1.2220 C.3    77  TRP77       0.1737
     48  C         16.0950   -1.0020    1.3510 C.2    77  TRP77       0.2595
     49  O         15.5160   -0.1050    1.9700 O.2    77  TRP77      -0.2718
     50  CB        16.0890   -3.3680    2.2140 C.3    77  TRP77       0.0564
     51  CG        17.5550   -3.5910    2.0790 C.ar   77  TRP77       0.0003
     52  CD1       18.1680   -4.5200    1.2890 C.ar   77  TRP77       0.0946
     53  CD2       18.6040   -2.9160    2.7880 C.ar   77  TRP77       0.0152
     54  NE1       19.5290   -4.4540    1.4440 N.ar   77  TRP77      -0.2442
     55  CE2       19.8260   -3.4750    2.3560 C.ar   77  TRP77       0.0810
     56  CE3       18.6340   -1.8900    3.7410 C.ar   77  TRP77       0.0012
     57  CZ2       21.0620   -3.0380    2.8390 C.ar   77  TRP77       0.0191
     58  CZ3       19.8770   -1.4550    4.2190 C.ar   77  TRP77       0.0001
     59  CH2       21.0630   -2.0290    3.7740 C.ar   77  TRP77       0.0015
     60  N         17.2770   -0.7990    0.7640 N.am   78  LEU78      -0.1980
     61  CA        17.9590    0.4820    0.9540 C.3    78  LEU78       0.1596
     62  C         17.2710    1.6010    0.1730 C.2    78  LEU78       0.2287
     63  O         17.1930    2.7370    0.6560 O.2    78  LEU78      -0.2864
     64  CB        19.4280    0.3700    0.5620 C.3    78  LEU78       0.0297
     65  CG        20.3030    1.6110    0.8150 C.3    78  LEU78       0.0022
     66  CD1       20.1480    2.1120    2.2490 C.3    78  LEU78       0.0001
     67  CD2       21.7850    1.3470    0.4980 C.3    78  LEU78       0.0001
     68  N         14.5050    2.6320    2.4580 N.3    81  LEU81      -0.1231
     69  CA        15.0240    3.4620    3.5450 C.3    81  LEU81       0.1693
     70  C         15.3600    4.8650    3.0520 C.2    81  LEU81       0.2591
     71  O         15.0600    5.8620    3.7240 O.2    81  LEU81      -0.2718
     72  CB        16.2530    2.8070    4.1850 C.3    81  LEU81       0.0284
     73  CG        15.9950    1.5950    5.0910 C.3    81  LEU81       0.0019
     74  CD1       17.2820    1.0770    5.6850 C.3    81  LEU81       0.0001
     75  CD2       14.9520    1.8810    6.2080 C.3    81  LEU81       0.0001
     76  N         15.9550    4.9650    1.8640 N.am   82  MET82      -0.1979
     77  CA        16.3840    6.2660    1.3620 C.3    82  MET82       0.1605
     78  C         15.1930    7.1410    0.9950 C.2    82  MET82       0.2287
     79  O         15.1810    8.3380    1.3050 O.2    82  MET82      -0.2864
     80  CB        17.3210    6.0840    0.1680 C.3    82  MET82       0.0413
     81  CG        18.7360    5.6620    0.5460 C.3    82  MET82       0.0598
     82  SD        19.7370    5.2980   -0.9060 S.3    82  MET82      -0.1393
     83  CE        21.3780    5.3540   -0.2080 C.3    82  MET82       0.0692
     84  N         13.8320    8.5300    3.9900 N.3    85  LEU85      -0.1245
     85  CA        14.6980    9.5950    4.4770 C.3    85  LEU85       0.1561
     86  C         14.4310   10.9040    3.7460 C.2    85  LEU85       0.2260
     87  O         14.2300   11.9480    4.3760 O.2    85  LEU85      -0.2867
     88  CB        16.1610    9.1930    4.3320 C.3    85  LEU85       0.0270
     89  CG        17.1480   10.3150    4.6460 C.3    85  LEU85       0.0019
     90  CD1       17.0040   10.7900    6.1020 C.3    85  LEU85       0.0001
     91  CD2       18.5500    9.8510    4.3750 C.3    85  LEU85       0.0001
     92  N         11.0400   12.5570    4.7700 N.3    88  ARG88      -0.1245
     93  CA        10.9620   13.2770    6.0350 C.3    88  ARG88       0.1563
     94  C         12.0030   14.3830    6.1460 C.2    88  ARG88       0.2260
     95  O         11.9300   15.1730    7.0860 O.2    88  ARG88      -0.2867
     96  CB        11.0570   12.3090    7.2290 C.3    88  ARG88       0.0307
     97  CG        12.3740   11.5920    7.4260 C.3    88  ARG88       0.0489
     98  CD        12.2450   10.4440    8.4560 C.3    88  ARG88       0.2205
     99  NE        13.4980    9.6900    8.5820 N.pl3  88  ARG88      -0.0865
    100  CZ        13.7020    8.4680    8.0830 C.cat  88  ARG88       0.5346
    101  NH1       12.7230    7.8240    7.4450 N.pl3  88  ARG88       0.1354
    102  NH2       14.8800    7.8730    8.2450 N.pl3  88  ARG88       0.1354
    103  N         17.5250   11.9430    9.5970 N.3    98  PHE98      -0.1241
    104  CA        17.5640   10.4940    9.8010 C.3    98  PHE98       0.1605
    105  C         16.6250   10.0720   10.9260 C.2    98  PHE98       0.2264
    106  O         15.9490    9.0400   10.8300 O.2    98  PHE98      -0.2867
    107  CB        18.9910   10.0400   10.1030 C.3    98  PHE98       0.0534
    108  CG        19.9170   10.1090    8.9180 C.ar   98  PHE98      -0.0203
    109  CD1       20.0560    9.0200    8.0650 C.ar   98  PHE98      -0.0042
    110  CD2       20.6530   11.2610    8.6640 C.ar   98  PHE98      -0.0042
    111  CE1       20.9230    9.0830    6.9770 C.ar   98  PHE98      -0.0003
    112  CE2       21.5220   11.3310    7.5860 C.ar   98  PHE98      -0.0003
    113  CZ        21.6560   10.2430    6.7380 C.ar   98  PHE98      -0.0000
    114  N         30.7250    8.7070    1.7950 N.3   108  MET108     -0.1245
    115  CA        29.5620    9.0660    2.5930 C.3   108  MET108      0.1570
    116  C         29.0720   10.4710    2.2400 C.2   108  MET108      0.2261
    117  O         27.8720   10.7460    2.2700 O.2   108  MET108     -0.2867
    118  CB        29.8820    8.9720    4.0830 C.3   108  MET108      0.0387
    119  CG        30.1390    7.5570    4.5860 C.3   108  MET108      0.0595
    120  SD        28.8840    6.3620    4.1040 S.3   108  MET108     -0.1393
    121  CE        29.9450    5.0030    3.6370 C.3   108  MET108      0.0692
    122  N         26.9040   10.3720   -1.2140 N.3   111  ILE111     -0.1231
    123  CA        25.5350    9.9040   -1.0380 C.3   111  ILE111      0.1692
    124  C         24.6810   10.9860   -0.3850 C.2   111  ILE111      0.2592
    125  O         23.5630   11.2640   -0.8330 O.2   111  ILE111     -0.2718
    126  CB        25.5340    8.5830   -0.2450 C.3   111  ILE111      0.0266
    127  CG1       25.8840    7.4240   -1.1840 C.3   111  ILE111      0.0019
    128  CG2       24.1990    8.3300    0.4140 C.3   111  ILE111      0.0020
    129  CD1       27.0100    6.5650   -0.6940 C.3   111  ILE111      0.0001
    130  N         25.2180   11.6580    0.6410 N.am  112  PHE112     -0.1976
    131  CA        24.4800   12.7400    1.2910 C.3   112  PHE112      0.1639
    132  C         24.0380   13.7930    0.2820 C.2   112  PHE112      0.2290
    133  O         22.8790   14.2220    0.2800 O.2   112  PHE112     -0.2864
    134  CB        25.3330   13.3760    2.3940 C.3   112  PHE112      0.0560
    135  CG        25.2240   12.6850    3.7360 C.ar  112  PHE112     -0.0200
    136  CD1       25.2680   11.2950    3.8350 C.ar  112  PHE112     -0.0042
    137  CD2       25.1100   13.4310    4.9040 C.ar  112  PHE112     -0.0042
    138  CE1       25.1790   10.6540    5.0660 C.ar  112  PHE112     -0.0003
    139  CE2       25.0250   12.8030    6.1440 C.ar  112  PHE112     -0.0003
    140  CZ        25.0590   11.4040    6.2240 C.ar  112  PHE112     -0.0000
    141  N         21.1350   12.4150   -1.7060 N.3   115  LEU115     -0.1245
    142  CA        19.8970   12.4110   -0.9400 C.3   115  LEU115      0.1561
    143  C         19.3580   13.8280   -0.7860 C.2   115  LEU115      0.2260
    144  O         18.1560   14.0620   -0.9470 O.2   115  LEU115     -0.2867
    145  CB        20.1330   11.7370    0.4160 C.3   115  LEU115      0.0270
    146  CG        20.5210   10.2560    0.3090 C.3   115  LEU115      0.0019
    147  CD1       21.2230    9.7370    1.5650 C.3   115  LEU115      0.0001
    148  CD2       19.2760    9.4010    0.0140 C.3   115  LEU115      0.0001
    149  N         25.2770    3.2460   -2.1860 N.3   203  GLY203     -0.1225
    150  CA        25.3410    3.0070   -0.7480 C.3   203  GLY203      0.1811
    151  C         25.6680    1.5660   -0.4070 C.2   203  GLY203      0.2280
    152  O         26.4090    1.2980    0.5410 O.2   203  GLY203     -0.2866
    153  N         29.3560    1.2370   -0.5930 N.3   206  HIS206     -0.1226
    154  CA        30.0270    1.7740    0.5840 C.3   206  HIS206      0.1752
    155  C         29.7270    0.9420    1.8240 C.2   206  HIS206      0.2595
    156  O         30.5780    0.8200    2.7110 O.2   206  HIS206     -0.2718
    157  CB        29.6200    3.2300    0.8070 C.3   206  HIS206      0.0759
    158  CG        30.2480    4.1810   -0.1630 C.ar  206  HIS206      0.0818
    159  ND1       29.6300    4.5660   -1.3340 N.ar  206  HIS206     -0.2268
    160  CD2       31.4480    4.8090   -0.1470 C.ar  206  HIS206      0.1154
    161  CE1       30.4180    5.3960   -1.9940 C.ar  206  HIS206      0.1986
    162  NE2       31.5280    5.5590   -1.2960 N.ar  206  HIS206     -0.2212
    163  N         28.5240    0.3820    1.9080 N.am  207  LEU207     -0.1980
    164  CA        28.2030   -0.5350    2.9930 C.3   207  LEU207      0.1596
    165  C         29.1300   -1.7400    2.9750 C.2   207  LEU207      0.2287
    166  O         29.6400   -2.1640    4.0180 O.2   207  LEU207     -0.2864
    167  CB        26.7520   -0.9830    2.8700 C.3   207  LEU207      0.0297
    168  CG        25.8630   -0.8450    4.0790 C.3   207  LEU207      0.0022
    169  CD1       26.1690    0.4610    4.7890 C.3   207  LEU207      0.0001
    170  CD2       24.4370   -0.8770    3.5820 C.3   207  LEU207      0.0001
    171  N         32.5650   -0.8230    4.1960 N.3   210  MET210     -0.1245
    172  CA        32.4740   -0.6470    5.6400 C.3   210  MET210      0.1570
    173  C         32.5630   -1.9850    6.3640 C.2   210  MET210      0.2261
    174  O         33.2840   -2.1150    7.3600 O.2   210  MET210     -0.2867
    175  CB        31.1670    0.0520    5.9740 C.3   210  MET210      0.0387
    176  CG        31.2200    0.9670    7.1430 C.3   210  MET210      0.0595
    177  SD        29.5560    1.6020    7.4210 S.3   210  MET210     -0.1393
    178  CE        29.1590    2.2000    5.7810 C.3   210  MET210      0.0692
@<TRIPOS>BOND
     1   149   150    1
     2   161   159   ar
     3   161   162   ar
     4   141   142    1
     5   159   158   ar
     6   162   160   ar
     7   122   123    1
     8   127   129    1
     9   127   126    1
    10   123   124    1
    11   123   126    1
    12   144   143    2
    13   142   143    1
    14   142   145    1
    15    82    83    1
    16    82    81    1
    17   125   124    2
    18   150   151    1
    19   153   154    1
    20   151   152    2
    21   124   130   am
    22   126   128    1
    23   158   160   ar
    24   158   157    1
    25    46    47    1
    26   148   146    1
    27    80    81    1
    28    80    77    1
    29    62    63    2
    30    62    61    1
    31   133   132    2
    32   132   131    1
    33   146   145    1
    34   146   147    1
    35    67    65    1
    36    64    65    1
    37    64    61    1
    38   154   157    1
    39   154   155    1
    40   130   131    1
    41    60    61    1
    42    60    48   am
    43    65    66    1
    44    78    79    2
    45    78    77    1
    46    47    48    1
    47    47    50    1
    48    52    54   ar
    49    52    51   ar
    50   131   134    1
    51    48    49    2
    52    77    76    1
    53    54    55   ar
    54   114   115    1
    55   155   163   am
    56   155   156    2
    57    76    70   am
    58   163   164    1
    59    51    50    1
    60    51    53   ar
    61   116   117    2
    62   116   115    1
    63    55    53   ar
    64    55    57   ar
    65   134   135    1
    66    68    69    1
    67   115   118    1
    68    53    56   ar
    69    57    59   ar
    70   167   164    1
    71   167   168    1
    72   165   164    1
    73   165   166    2
    74    70    69    1
    75    70    71    2
    76    69    72    1
    77   170   168    1
    78   121   120    1
    79   135   136   ar
    80   135   137   ar
    81    56    58   ar
    82    86    87    2
    83    86    85    1
    84    59    58   ar
    85   136   138   ar
    86    84    85    1
    87   168   169    1
    88   118   119    1
    89   120   119    1
    90    72    73    1
    91   171   172    1
    92    88    85    1
    93    88    89    1
    94    91    89    1
    95    89    90    1
    96    92    93    1
    97   137   139   ar
    98   138   140   ar
    99    73    74    1
   100    73    75    1
   101   172   175    1
   102   172   173    1
   103   178   177    1
   104   175   176    1
   105    93    94    1
   106    93    96    1
   107   139   140   ar
   108    94    95    2
   109   173   174    2
   110   113   111   ar
   111   113   112   ar
   112     8     7    1
   113   111   109   ar
   114   176   177    1
   115    96    97    1
   116    97    98    1
   117   101   100    1
   118   112   110   ar
   119     7     6    1
   120   109   108   ar
   121   100   102    1
   122   100    99    2
   123    98    99    1
   124    36    33    1
   125    15    14    1
   126   110   108   ar
   127     6     5    1
   128    45    43   ar
   129   108   107    1
   130    44    43   ar
   131    23    21    1
   132    40    39    2
   133    43    42    1
   134    35    34    2
   135   103   104    1
   136    33    34    1
   137    33    32    1
   138    41    42    1
   139    41    38    1
   140    13    14    1
   141    13    10    1
   142    39    38    1
   143   104   107    1
   144   104   105    1
   145    14    16    1
   146     5     2    1
   147    21    18    1
   148    21    22    1
   149    12    11    2
   150    38    37    1
   151    18    17    1
   152    18    19    1
   153    11    17   am
   154    11    10    1
   155    32    26   am
   156   106   105    2
   157     2     3    1
   158     2     1    1
   159    10     9    1
   160     4     3    2
   161    20    19    2
   162    31    29    1
   163    26    27    2
   164    26    25    1
   165    29    28    1
   166    29    30    1
   167    28    25    1
   168    25    24    1
