@<TRIPOS>MOLECULE
tmp/5jmpA00.pdb
 177 168 0 0 0
SMALL
GASTEIGER

@<TRIPOS>ATOM
      1  N         12.3020   16.8000   23.3140 N.3   129  LYS129     -0.1245
      2  CA        11.8410   18.1920   23.1850 C.3   129  LYS129      0.1561
      3  C         12.1530   19.0200   24.4290 C.2   129  LYS129      0.2260
      4  O         12.3380   20.2330   24.3330 O.2   129  LYS129     -0.2867
      5  CB        10.3320   18.2690   22.8770 C.3   129  LYS129      0.0271
      6  CG         9.3970   18.0670   24.0660 C.3   129  LYS129      0.0035
      7  CD         7.9530   17.8260   23.6410 C.3   129  LYS129      0.0206
      8  CE         7.7450   16.3710   23.2390 C.3   129  LYS129      0.1093
      9  NZ         6.4740   16.1770   22.5110 N.3   129  LYS129     -0.1314
     10  N         10.5350   14.9920   16.7310 N.3   155  ASP155     -0.1225
     11  CA         9.1880   15.2780   17.2510 C.3   155  ASP155      0.1805
     12  C          8.2490   15.4500   16.0470 C.2   155  ASP155      0.2598
     13  O          8.5890   16.1600   15.0960 O.2   155  ASP155     -0.2718
     14  CB         9.2310   16.5120   18.1700 C.3   155  ASP155      0.1424
     15  CG         8.0470   16.5920   19.1360 C.2   155  ASP155      0.3668
     16  OD1        7.0960   15.7920   19.0030 O.co2 155  ASP155     -0.2456
     17  OD2        8.0690   17.4760   20.0390 O.co2 155  ASP155     -0.2456
     18  N          7.1080   14.7500   16.0400 N.am  156  SER156     -0.1938
     19  CA         6.3460   14.5520   14.7860 C.3   156  SER156      0.2055
     20  C          5.8960   15.8530   14.1020 C.2   156  SER156      0.2642
     21  O          5.9460   15.9730   12.8740 O.2   156  SER156     -0.2714
     22  CB         5.1430   13.6150   14.9970 C.3   156  SER156      0.2130
     23  OG         4.1530   14.1930   15.8420 O.3   156  SER156     -0.2179
     24  N          5.4810   16.8280   14.8950 N.am  157  GLU157     -0.1976
     25  CA         4.9960   18.0960   14.3590 C.3   157  GLU157      0.1602
     26  C          6.1580   18.8990   13.7540 C.2   157  GLU157      0.2287
     27  O          5.9940   19.5610   12.7440 O.2   157  GLU157     -0.2864
     28  CB         4.2970   18.9280   15.4400 C.3   157  GLU157      0.0415
     29  CG         3.1170   18.2270   16.1130 C.3   157  GLU157      0.1163
     30  CD         3.5240   17.2770   17.2310 C.2   157  GLU157      0.3649
     31  OE1        4.7410   17.1200   17.4390 O.co2 157  GLU157     -0.2457
     32  OE2        2.6430   16.6710   17.8860 O.co2 157  GLU157     -0.2457
     33  N         -2.4320   19.6020   17.0690 N.3   193  SER193     -0.1202
     34  CA        -2.5570   18.8420   18.3150 C.3   193  SER193      0.2020
     35  C         -3.7060   17.8480   18.2070 C.2   193  SER193      0.2619
     36  O         -4.7180   18.1660   17.6020 O.2   193  SER193     -0.2717
     37  CB        -2.8600   19.7900   19.4590 C.3   193  SER193      0.2103
     38  OG        -2.9940   19.0850   20.6760 O.3   193  SER193     -0.2182
     39  N         -3.5480   16.6620   18.7960 N.am  194  SER194     -0.1937
     40  CA        -4.6680   15.7170   18.9330 C.3   194  SER194      0.2055
     41  C         -5.7980   16.3230   19.7560 C.2   194  SER194      0.2644
     42  O         -6.9720   15.9740   19.5520 O.2   194  SER194     -0.2714
     43  CB        -4.2160   14.3690   19.5470 C.3   194  SER194      0.2130
     44  OG        -4.2130   14.3590   20.9620 O.3   194  SER194     -0.2179
     45  N         -5.4410   17.2010   20.6970 N.am  195  GLY195     -0.1939
     46  CA        -6.3820   17.7450   21.6730 C.3   195  GLY195      0.2014
     47  C         -6.4530   16.9370   22.9720 C.2   195  GLY195      0.2639
     48  O         -6.9580   17.4340   23.9730 O.2   195  GLY195     -0.2714
     49  N         -5.9610   15.7000   22.9620 N.am  196  GLY196     -0.1954
     50  CA        -6.0120   14.8420   24.1390 C.3   196  GLY196      0.1869
     51  C         -7.4260   14.3360   24.4280 C.2   196  GLY196      0.2309
     52  O         -8.3460   14.5490   23.6340 O.2   196  GLY196     -0.2863
     53  N         -6.1430    7.7460   23.1540 N.3   219  LYS219     -0.1231
     54  CA        -6.1390    7.7150   21.6840 C.3   219  LYS219      0.1693
     55  C         -4.8380    7.0790   21.1870 C.2   219  LYS219      0.2592
     56  O         -4.8700    6.0270   20.5340 O.2   219  LYS219     -0.2718
     57  CB        -6.3390    9.1180   21.0860 C.3   219  LYS219      0.0285
     58  CG        -6.2470    9.1800   19.5590 C.3   219  LYS219      0.0035
     59  CD        -4.8770    9.6390   19.0510 C.3   219  LYS219      0.0206
     60  CE        -4.4230    8.8650   17.8200 C.3   219  LYS219      0.1093
     61  NZ        -5.3560    9.0120   16.6670 N.3   219  LYS219     -0.1314
     62  N         -3.7090    7.7100   21.5170 N.am  220  TRP220     -0.1976
     63  CA        -2.3960    7.1880   21.1550 C.3   220  TRP220      0.1640
     64  C         -1.7040    6.5800   22.3710 C.2   220  TRP220      0.2290
     65  O         -1.7070    7.1760   23.4520 O.2   220  TRP220     -0.2864
     66  CB        -1.5100    8.2770   20.5260 C.3   220  TRP220      0.0576
     67  CG        -0.3740    7.6780   19.7560 C.ar  220  TRP220      0.0006
     68  CD1        0.9650    7.7760   20.0320 C.ar  220  TRP220      0.0946
     69  CD2       -0.4860    6.8360   18.6080 C.ar  220  TRP220      0.0152
     70  NE1        1.6920    7.0640   19.1050 N.ar  220  TRP220     -0.2442
     71  CE2        0.8260    6.4710   18.2230 C.ar  220  TRP220      0.0810
     72  CE3       -1.5700    6.3570   17.8610 C.ar  220  TRP220      0.0012
     73  CZ2        1.0810    5.6500   17.1180 C.ar  220  TRP220      0.0191
     74  CZ3       -1.3190    5.5400   16.7720 C.ar  220  TRP220      0.0001
     75  CH2       -0.0010    5.1940   16.4080 C.ar  220  TRP220      0.0015
     76  N          1.4530    5.7480   24.3980 N.3   222  MET222     -0.1245
     77  CA         2.7940    6.3210   24.5790 C.3   222  MET222      0.1570
     78  C          3.1030    6.3930   26.0810 C.2   222  MET222      0.2261
     79  O          2.2780    5.9660   26.8920 O.2   222  MET222     -0.2867
     80  CB         2.8860    7.6930   23.8930 C.3   222  MET222      0.0387
     81  CG         1.7250    8.6350   24.1700 C.3   222  MET222      0.0595
     82  SD         1.6150   10.0270   23.0190 S.3   222  MET222     -0.1393
     83  CE         0.2110   10.8830   23.7250 C.3   222  MET222      0.0692
     84  N          4.3200   11.9930   28.7580 N.3   226  ILE226     -0.1245
     85  CA         3.7670   12.6560   27.5650 C.3   226  ILE226      0.1561
     86  C          2.2450   12.5170   27.4830 C.2   226  ILE226      0.2260
     87  O          1.5820   13.4410   27.0350 O.2   226  ILE226     -0.2867
     88  CB         4.4570   12.2520   26.2280 C.3   226  ILE226      0.0252
     89  CG1        4.0010   13.1850   25.0810 C.3   226  ILE226      0.0019
     90  CG2        4.1910   10.7970   25.8450 C.3   226  ILE226      0.0019
     91  CD1        4.8210   13.0610   23.8120 C.3   226  ILE226      0.0001
     92  N         -0.2000   15.6010   27.1440 N.3   230  SER230     -0.1217
     93  CA        -1.2180   15.6590   26.0890 C.3   230  SER230      0.1889
     94  C         -2.5870   16.0160   26.6650 C.2   230  SER230      0.2288
     95  O         -3.3280   16.8060   26.0680 O.2   230  SER230     -0.2866
     96  CB        -1.2750   14.3330   25.3100 C.3   230  SER230      0.2089
     97  OG        -2.3620   14.2970   24.3910 O.3   230  SER230     -0.2183
     98  N         -2.5470   19.6020   27.5510 N.3   233  MET233     -0.1245
     99  CA        -2.0180   20.3640   26.4010 C.3   233  MET233      0.1570
    100  C         -0.6830   21.0800   26.6860 C.2   233  MET233      0.2261
    101  O         -0.2090   21.8700   25.8650 O.2   233  MET233     -0.2867
    102  CB        -3.0640   21.3080   25.7780 C.3   233  MET233      0.0387
    103  CG        -4.2910   20.5800   25.2320 C.3   233  MET233      0.0595
    104  SD        -5.2640   21.5190   24.0460 S.3   233  MET233     -0.1393
    105  CE        -4.1740   21.4860   22.6290 C.3   233  MET233      0.0692
    106  N          1.9190   19.4470   26.4620 N.3   235  ASN235     -0.1225
    107  CA         2.7420   18.8880   25.3940 C.3   235  ASN235      0.1785
    108  C          2.8530   19.9010   24.2490 C.2   235  ASN235      0.2597
    109  O          3.9580   20.2160   23.7810 O.2   235  ASN235     -0.2718
    110  CB         2.2190   17.5500   24.8730 C.3   235  ASN235      0.1169
    111  CG         3.2000   16.8900   23.9270 C.2   235  ASN235      0.2627
    112  OD1        4.3990   16.8110   24.2210 O.2   235  ASN235     -0.2716
    113  ND2        2.7210   16.4680   22.7540 N.am  235  ASN235     -0.0877
    114  N          1.7180   20.4580   23.8540 N.am  236  LYS236     -0.1980
    115  CA         1.7080   21.4480   22.7900 C.3   236  LYS236      0.1596
    116  C          2.3900   22.7580   23.2190 C.2   236  LYS236      0.2287
    117  O          3.0950   23.3740   22.4240 O.2   236  LYS236     -0.2864
    118  CB         0.2890   21.6820   22.2590 C.3   236  LYS236      0.0298
    119  CG         0.2140   21.9670   20.7630 C.3   236  LYS236      0.0038
    120  CD         0.8500   20.9000   19.8600 C.3   236  LYS236      0.0206
    121  CE         0.6210   19.4560   20.3210 C.3   236  LYS236      0.1093
    122  NZ         1.0610   18.4610   19.3110 N.3   236  LYS236     -0.1314
    123  N          5.9160   22.2410   22.7990 N.3   239  GLU239     -0.1245
    124  CA         6.1710   22.2190   21.3480 C.3   239  GLU239      0.1567
    125  C          6.1340   23.5910   20.6530 C.2   239  GLU239      0.2260
    126  O          6.8170   23.7880   19.6500 O.2   239  GLU239     -0.2867
    127  CB         5.2280   21.2190   20.6810 C.3   239  GLU239      0.0388
    128  CG         5.5910   19.7970   21.0680 C.3   239  GLU239      0.1160
    129  CD         4.6810   18.7460   20.4770 C.2   239  GLU239      0.3649
    130  OE1        3.6570   19.1050   19.8570 O.co2 239  GLU239     -0.2457
    131  OE2        5.0010   17.5530   20.6540 O.co2 239  GLU239     -0.2457
    132  N         -5.3610   13.3900   13.6230 N.3   262  CYS262     -0.1235
    133  CA        -3.8990   13.1960   13.6230 C.3   262  CYS262      0.1677
    134  C         -3.3400   12.6810   12.2900 C.2   262  CYS262      0.2270
    135  O         -2.4370   11.8530   12.2670 O.2   262  CYS262     -0.2867
    136  CB        -3.4440   12.2880   14.7750 C.3   262  CYS262      0.0956
    137  SG        -3.9270   12.8660   16.4200 S.3   262  CYS262     -0.0801
    138  N          0.0680   16.6200   10.2400 N.3   265  HIS265     -0.1241
    139  CA         0.9380   16.6570   11.4270 C.3   265  HIS265      0.1621
    140  C          1.4350   18.0380   11.8150 C.2   265  HIS265      0.2264
    141  O          1.8780   18.2150   12.9520 O.2   265  HIS265     -0.2867
    142  CB         2.0690   15.6560   11.2950 C.3   265  HIS265      0.0745
    143  CG         1.5720   14.2530   11.2280 C.ar  265  HIS265      0.0817
    144  ND1        0.8190   13.6960   12.2410 N.ar  265  HIS265     -0.2268
    145  CD2        1.6260   13.3280   10.2460 C.ar  265  HIS265      0.1154
    146  CE1        0.4540   12.4740   11.8920 C.ar  265  HIS265      0.1986
    147  NE2        0.9420   12.2180   10.6940 N.ar  265  HIS265     -0.2212
    148  N         -0.8500    8.4210   12.0020 N.3   282  PRO282     -0.2102
    149  CA        -0.0010    8.6450   13.1740 C.3   282  PRO282      0.1504
    150  C          0.9480    7.4490   13.3920 C.2   282  PRO282      0.2576
    151  O          0.5000    6.3210   13.6360 O.2   282  PRO282     -0.2718
    152  CB        -1.0040    8.8470   14.3220 C.3   282  PRO282      0.0282
    153  CG        -2.2990    8.3310   13.8390 C.3   282  PRO282      0.0208
    154  CD        -2.2770    8.2800   12.3450 C.3   282  PRO282      0.0893
    155  N          2.2440    7.6870   13.2200 N.am  283  ASP283     -0.1960
    156  CA         3.2500    6.6260   13.1990 C.3   283  ASP283      0.1840
    157  C          4.6050    7.3090   13.2660 C.2   283  ASP283      0.2621
    158  O          4.9450    8.0660   12.3700 O.2   283  ASP283     -0.2715
    159  CB         3.1110    5.8090   11.8880 C.3   283  ASP283      0.1450
    160  CG         4.0940    4.6300   11.7740 C.2   283  ASP283      0.3671
    161  OD1        5.1010    4.5620   12.4800 O.co2 283  ASP283     -0.2456
    162  OD2        3.8350    3.7210   10.9430 O.co2 283  ASP283     -0.2456
    163  N          5.3910    7.0190   14.2990 N.am  284  MET284     -0.1977
    164  CA         6.6880    7.6760   14.4660 C.3   284  MET284      0.1605
    165  C          7.7690    7.2420   13.4730 C.2   284  MET284      0.2287
    166  O          8.8120    7.8950   13.3980 O.2   284  MET284     -0.2864
    167  CB         7.2060    7.5210   15.9030 C.3   284  MET284      0.0413
    168  CG         6.4970    8.4120   16.9110 C.3   284  MET284      0.0598
    169  SD         6.5440   10.1920   16.5440 S.3   284  MET284     -0.1393
    170  CE         8.3070   10.5520   16.6130 C.3   284  MET284      0.0692
    171  N          8.7120   10.2980   10.8350 N.3   287  PRO287     -0.2116
    172  CA         9.6230   11.3320   11.3650 C.3   287  PRO287      0.1372
    173  C         11.0410   10.8480   11.6620 C.2   287  PRO287      0.2244
    174  O         12.0220   11.5610   11.3610 O.2   287  PRO287     -0.2868
    175  CB         8.9430   11.7910   12.6590 C.3   287  PRO287      0.0268
    176  CG         7.5230   11.4060   12.5400 C.3   287  PRO287      0.0207
    177  CD         7.4120   10.2950   11.5350 C.3   287  PRO287      0.0892
@<TRIPOS>BOND
     1   138   139    1
     2   145   147   ar
     3   145   143   ar
     4   147   146   ar
     5   171   172    1
     6   171   177    1
     7   162   160   ar
     8   143   142    1
     9   143   144   ar
    10   142   139    1
    11   174   173    2
    12   172   173    1
    13   172   175    1
    14   139   140    1
    15   177   176    1
    16   160   159    1
    17   160   161   ar
    18   140   141    2
    19   159   156    1
    20   146   144   ar
    21   148   154    1
    22   148   149    1
    23   135   134    2
    24   134   133    1
    25   154   153    1
    26   158   157    2
    27   176   175    1
    28    27    26    2
    29    21    20    2
    30   149   150    1
    31   149   152    1
    32   156   155    1
    33   156   157    1
    34   155   150   am
    35   157   163   am
    36   150   151    2
    37   166   165    2
    38   165   164    1
    39   132   133    1
    40   133   136    1
    41    26    25    1
    42   153   152    1
    43    20    19    1
    44    20    24   am
    45   163   164    1
    46    25    24    1
    47    25    28    1
    48   164   167    1
    49   136   137    1
    50    19    22    1
    51    19    18    1
    52    22    23    1
    53    13    12    2
    54    28    29    1
    55   167   168    1
    56    18    12   am
    57    12    11    1
    58    29    30    1
    59    75    74   ar
    60    75    73   ar
    61   169   170    1
    62   169   168    1
    63    61    60    1
    64    10    11    1
    65    74    72   ar
    66    33    34    1
    67    73    71   ar
    68    30    31   ar
    69    30    32   ar
    70    11    14    1
    71    36    35    2
    72    60    59    1
    73    72    69   ar
    74    14    15    1
    75    35    34    1
    76    35    39   am
    77    71    69   ar
    78    71    70   ar
    79    34    37    1
    80    69    67   ar
    81    39    40    1
    82    40    43    1
    83    40    41    1
    84    16    15   ar
    85    59    58    1
    86    70    68   ar
    87    15    17   ar
    88   122   121    1
    89    37    38    1
    90    43    44    1
    91    42    41    2
    92    58    57    1
    93   126   125    2
    94    41    45   am
    95    67    68   ar
    96    67    66    1
    97   130   129   ar
    98   120   121    1
    99   120   119    1
   100   129   131   ar
   101   129   128    1
   102    66    63    1
   103    56    55    2
   104   125   124    1
   105   127   128    1
   106   127   124    1
   107    45    46    1
   108   119   118    1
   109    57    54    1
   110    63    62    1
   111    63    64    1
   112    55    62   am
   113    55    54    1
   114   124   123    1
   115    46    47    1
   116    54    53    1
   117   118   115    1
   118    64    65    2
   119   117   116    2
   120     9     8    1
   121   105   104    1
   122   113   111   am
   123   115   116    1
   124   115   114    1
   125     5     2    1
   126     5     6    1
   127    49    47   am
   128    49    50    1
   129    47    48    2
   130    82    83    1
   131    82    81    1
   132     2     1    1
   133     2     3    1
   134     8     7    1
   135    52    51    2
   136     7     6    1
   137   109   108    2
   138    91    89    1
   139   114   108   am
   140    80    81    1
   141    80    77    1
   142   111   112    2
   143   111   110    1
   144   104   103    1
   145    50    51    1
   146   108   107    1
   147     4     3    2
   148    97    96    1
   149    76    77    1
   150    77    78    1
   151   110   107    1
   152    89    88    1
   153   103   102    1
   154    96    93    1
   155   107   106    1
   156   102    99    1
   157    90    88    1
   158   101   100    2
   159    95    94    2
   160    78    79    2
   161    93    94    1
   162    93    92    1
   163    88    85    1
   164    99   100    1
   165    99    98    1
   166    87    86    2
   167    86    85    1
   168    85    84    1
