@<TRIPOS>MOLECULE
tmp/5jmsA00.pdb
 166 155 0 0 0
SMALL
GASTEIGER

@<TRIPOS>ATOM
      1  N         -1.5770  -14.6420   99.2690 N.3    14  LEU14      -0.1231
      2  CA        -1.5850  -15.0820   97.8690 C.3    14  LEU14       0.1693
      3  C         -1.6700  -13.8870   96.9050 C.2    14  LEU14       0.2593
      4  O         -0.9680  -13.8690   95.8930 O.2    14  LEU14      -0.2718
      5  CB        -2.7520  -16.0490   97.6100 C.3    14  LEU14       0.0284
      6  CG        -2.6500  -17.4030   98.3170 C.3    14  LEU14       0.0019
      7  CD1       -3.9870  -18.1270   98.3180 C.3    14  LEU14       0.0001
      8  CD2       -1.5700  -18.2800   97.6820 C.3    14  LEU14       0.0001
      9  N         -2.5150  -12.9100   97.2250 N.am   15  GLY15      -0.1942
     10  CA        -2.6690  -11.7160   96.4010 C.3    15  GLY15       0.2014
     11  C         -3.8580  -10.8570   96.7780 C.2    15  GLY15       0.2639
     12  O         -4.5190  -11.1110   97.7880 O.2    15  GLY15      -0.2714
     13  N         -4.1320   -9.8220   95.9620 N.am   16  LYS16      -0.1963
     14  CA        -5.2460   -8.8990   96.1840 C.3    16  LYS16       0.1728
     15  C         -6.3710   -9.1900   95.1860 C.2    16  LYS16       0.2616
     16  O         -6.1360   -9.1870   93.9770 O.2    16  LYS16      -0.2715
     17  CB        -4.7630   -7.4390   96.0450 C.3    16  LYS16       0.0311
     18  CG        -5.8580   -6.3720   96.2190 C.3    16  LYS16       0.0038
     19  CD        -6.5610   -6.4420   97.5820 C.3    16  LYS16       0.0206
     20  CE        -7.5620   -5.3240   97.7740 C.3    16  LYS16       0.1093
     21  NZ        -8.7800   -5.4860   96.9250 N.3    16  LYS16      -0.1314
     22  N         -7.5770   -9.4220   95.7060 N.am   17  GLY17      -0.1955
     23  CA        -8.7590   -9.7050   94.9000 C.3    17  GLY17       0.1869
     24  C         -9.5810   -8.4700   94.5870 C.2    17  GLY17       0.2309
     25  O         -9.1180   -7.3410   94.7760 O.2    17  GLY17      -0.2863
     26  N         -6.5650  -11.9790   99.4810 N.3    22  VAL22      -0.1245
     27  CA        -6.6580  -13.4380   99.4290 C.3    22  VAL22       0.1561
     28  C         -5.4750  -14.0200  100.1990 C.2    22  VAL22       0.2260
     29  O         -4.3280  -13.7440   99.8510 O.2    22  VAL22      -0.2867
     30  CB        -6.6790  -13.9570   97.9750 C.3    22  VAL22       0.0252
     31  CG1       -6.9730  -15.4520   97.9430 C.3    22  VAL22       0.0019
     32  CG2       -7.6940  -13.1960   97.1290 C.3    22  VAL22       0.0019
     33  N         -7.6750  -21.1740  100.1570 N.3    35  ALA35      -0.1245
     34  CA        -7.5050  -19.7780   99.7460 C.3    35  ALA35       0.1562
     35  C         -8.6830  -19.0300  100.3440 C.2    35  ALA35       0.2260
     36  O         -9.8250  -19.3990  100.0770 O.2    35  ALA35      -0.2867
     37  CB        -7.5260  -19.6610   98.2290 C.3    35  ALA35       0.0290
     38  N        -10.6280  -15.4520  100.8340 N.3    37  LYS37      -0.1245
     39  CA       -10.8120  -14.0490  100.4780 C.3    37  LYS37       0.1561
     40  C        -11.4020  -13.3430  101.7000 C.2    37  LYS37       0.2260
     41  O        -12.4490  -13.7580  102.1920 O.2    37  LYS37      -0.2867
     42  CB       -11.7340  -13.8970   99.2540 C.3    37  LYS37       0.0271
     43  CG       -12.2030  -12.4630   99.0180 C.3    37  LYS37       0.0035
     44  CD       -12.6800  -12.2440   97.5980 C.3    37  LYS37       0.0206
     45  CE       -11.5580  -11.8190   96.6880 C.3    37  LYS37       0.1093
     46  NZ       -11.9250  -11.9600   95.2590 N.3    37  LYS37      -0.1314
     47  N        -14.4070  -22.3630   90.7930 N.3    69  MET69      -0.1245
     48  CA       -13.7330  -22.4980   92.0810 C.3    69  MET69       0.1570
     49  C        -14.7190  -23.0090   93.1250 C.2    69  MET69       0.2261
     50  O        -15.8480  -22.5280   93.1940 O.2    69  MET69      -0.2867
     51  CB       -13.1330  -21.1690   92.5390 C.3    69  MET69       0.0387
     52  CG       -12.6590  -21.1930   93.9840 C.3    69  MET69       0.0595
     53  SD       -11.6880  -19.7570   94.4400 S.3    69  MET69      -0.1393
     54  CE       -11.2810  -20.1720   96.1070 C.3    69  MET69       0.0692
     55  N        -16.2870  -23.2370   96.6910 N.3    71  LEU71      -0.1245
     56  CA       -16.4540  -22.4940   97.9390 C.3    71  LEU71       0.1561
     57  C        -16.7420  -23.5380   99.0190 C.2    71  LEU71       0.2260
     58  O        -17.7440  -24.2450   98.9210 O.2    71  LEU71      -0.2867
     59  CB       -17.6330  -21.5030   97.8230 C.3    71  LEU71       0.0270
     60  CG       -17.9270  -20.6450   99.0700 C.3    71  LEU71       0.0019
     61  CD1      -16.8070  -19.6420   99.3310 C.3    71  LEU71       0.0001
     62  CD2      -19.2540  -19.9120   98.9260 C.3    71  LEU71       0.0001
     63  N        -14.4190  -15.8870  102.8870 N.3    83  LEU83      -0.1245
     64  CA       -14.8860  -16.8380  101.8790 C.3    83  LEU83       0.1561
     65  C        -13.7820  -17.8640  101.6950 C.2    83  LEU83       0.2260
     66  O        -12.7530  -17.5470  101.1060 O.2    83  LEU83      -0.2867
     67  CB       -15.1690  -16.1230  100.5530 C.3    83  LEU83       0.0270
     68  CG       -16.4670  -15.3330  100.4590 C.3    83  LEU83       0.0019
     69  CD1      -16.5890  -14.3170  101.5740 C.3    83  LEU83       0.0001
     70  CD2      -16.5470  -14.6230   99.1430 C.3    83  LEU83       0.0001
     71  N        -12.1830  -21.1680  100.1660 N.3    85  GLY85      -0.1210
     72  CA       -12.2390  -22.0600   99.0140 C.3    85  GLY85       0.1956
     73  C        -10.9320  -22.7670   98.7200 C.2    85  GLY85       0.2612
     74  O         -9.9650  -22.6630   99.4810 O.2    85  GLY85      -0.2717
     75  N        -10.9080  -23.5120   97.6110 N.am   86  GLU86      -0.1965
     76  CA        -9.7530  -24.3170   97.2090 C.3    86  GLU86       0.1733
     77  C         -8.6010  -23.4430   96.6870 C.2    86  GLU86       0.2616
     78  O         -8.8380  -22.3420   96.1840 O.2    86  GLU86      -0.2715
     79  CB       -10.1800  -25.3250   96.1310 C.3    86  GLU86       0.0429
     80  CG        -9.1700  -26.4270   95.8680 C.3    86  GLU86       0.1163
     81  CD        -9.7060  -27.5540   95.0090 C.2    86  GLU86       0.3649
     82  OE1      -10.5630  -27.2850   94.1360 O.co2  86  GLU86      -0.2457
     83  OE2       -9.2520  -28.7060   95.1950 O.co2  86  GLU86      -0.2457
     84  N         -7.3500  -23.9600   96.8160 N.am   87  VAL87      -0.1963
     85  CA        -6.1510  -23.2510   96.3690 C.3    87  VAL87       0.1727
     86  C         -5.7580  -23.7390   94.9670 C.2    87  VAL87       0.2616
     87  O         -5.8600  -24.9310   94.6700 O.2    87  VAL87      -0.2715
     88  CB        -4.9730  -23.4020   97.3800 C.3    87  VAL87       0.0290
     89  CG1       -4.3440  -24.7970   97.3310 C.3    87  VAL87       0.0023
     90  CG2       -3.9130  -22.3320   97.1430 C.3    87  VAL87       0.0023
     91  N         -5.2740  -22.8100   94.1240 N.am   88  TYR88      -0.1974
     92  CA        -4.8210  -23.0930   92.7590 C.3    88  TYR88       0.1639
     93  C         -3.4960  -22.3510   92.5720 C.2    88  TYR88       0.2290
     94  O         -3.4070  -21.1730   92.9150 O.2    88  TYR88      -0.2864
     95  CB        -5.8700  -22.6500   91.7220 C.3    88  TYR88       0.0560
     96  CG        -7.2420  -23.2490   91.9630 C.ar   88  TYR88      -0.0198
     97  CD1       -7.4210  -24.6250   92.0410 C.ar   88  TYR88      -0.0009
     98  CD2       -8.3600  -22.4370   92.1290 C.ar   88  TYR88      -0.0009
     99  CE1       -8.6740  -25.1800   92.2960 C.ar   88  TYR88       0.0417
    100  CE2       -9.6190  -22.9790   92.3790 C.ar   88  TYR88       0.0417
    101  CZ        -9.7760  -24.3540   92.4460 C.ar   88  TYR88       0.1957
    102  OH       -11.0220  -24.8840   92.6960 O.3    88  TYR88      -0.2866
    103  N         -1.5150  -20.0320   88.4930 N.3    91  GLY91      -0.1210
    104  CA        -1.4700  -18.6120   88.1580 C.3    91  GLY91       0.1956
    105  C         -2.5910  -18.1800   87.2380 C.2    91  GLY91       0.2611
    106  O         -3.4810  -18.9730   86.9250 O.2    91  GLY91      -0.2717
    107  N         -2.5520  -16.9160   86.7900 N.am   92  GLU92      -0.1979
    108  CA        -3.5730  -16.3750   85.8910 C.3    92  GLU92       0.1602
    109  C         -3.3790  -16.9120   84.4720 C.2    92  GLU92       0.2287
    110  O         -2.2470  -17.1620   84.0560 O.2    92  GLU92      -0.2864
    111  CB        -3.5360  -14.8370   85.8850 C.3    92  GLU92       0.0415
    112  CG        -3.9330  -14.2050   87.2100 C.3    92  GLU92       0.1163
    113  CD        -3.7290  -12.7020   87.2880 C.2    92  GLU92       0.3649
    114  OE1       -3.5410  -12.0640   86.2260 O.co2  92  GLU92      -0.2457
    115  OE2       -3.7740  -12.1590   88.4150 O.co2  92  GLU92      -0.2457
    116  N         -0.9210  -14.9290   82.1560 N.3    95  ASP95      -0.1239
    117  CA         0.4960  -15.0520   82.5600 C.3    95  ASP95       0.1674
    118  C          1.1350  -16.3220   81.9580 C.2    95  ASP95       0.2266
    119  O          2.3270  -16.3180   81.6470 O.2    95  ASP95      -0.2867
    120  CB         0.6500  -15.0690   84.0930 C.3    95  ASP95       0.1410
    121  CG         0.4130  -13.7310   84.7730 C.2    95  ASP95       0.3668
    122  OD1        0.6580  -12.6850   84.1320 O.co2  95  ASP95      -0.2456
    123  OD2        0.0370  -13.7310   85.9630 O.co2  95  ASP95      -0.2456
    124  N         -8.1130  -18.7030   86.6320 N.3   138  LEU138     -0.1245
    125  CA        -6.9110  -19.2780   87.2360 C.3   138  LEU138      0.1561
    126  C         -6.7010  -20.6920   86.7540 C.2   138  LEU138      0.2260
    127  O         -7.6660  -21.4280   86.5750 O.2   138  LEU138     -0.2867
    128  CB        -7.0210  -19.2860   88.7690 C.3   138  LEU138      0.0270
    129  CG        -7.1520  -17.9370   89.4630 C.3   138  LEU138      0.0019
    130  CD1       -7.0540  -18.1060   90.9650 C.3   138  LEU138      0.0001
    131  CD2       -6.0900  -16.9530   88.9810 C.3   138  LEU138      0.0001
    132  N        -12.9870  -17.7850   89.2420 N.3   151  ILE151     -0.1231
    133  CA       -13.0980  -17.3440   90.6390 C.3   151  ILE151      0.1692
    134  C        -14.0710  -16.1520   90.7400 C.2   151  ILE151      0.2592
    135  O        -14.3200  -15.4660   89.7490 O.2   151  ILE151     -0.2718
    136  CB       -11.6940  -16.9990   91.2360 C.3   151  ILE151      0.0266
    137  CG1      -10.9770  -15.9080   90.4200 C.3   151  ILE151      0.0019
    138  CG2      -10.8150  -18.2510   91.2820 C.3   151  ILE151      0.0020
    139  CD1       -9.9160  -15.1870   91.1600 C.3   151  ILE151      0.0001
    140  N        -14.6520  -15.9580   91.9430 N.am  152  ASP152     -0.1960
    141  CA       -15.5720  -14.8650   92.3060 C.3   152  ASP152      0.1840
    142  C        -16.9400  -14.9440   91.5960 C.2   152  ASP152      0.2622
    143  O        -17.5910  -13.9150   91.4460 O.2   152  ASP152     -0.2715
    144  CB       -14.9420  -13.4810   92.0310 C.3   152  ASP152      0.1450
    145  CG       -13.6650  -13.2340   92.7980 C.2   152  ASP152      0.3671
    146  OD1      -13.5230  -13.7910   93.9030 O.co2 152  ASP152     -0.2456
    147  OD2      -12.8490  -12.4060   92.3380 O.co2 152  ASP152     -0.2456
    148  N        -17.4430  -16.1480   91.3070 N.am  153  PHE153     -0.1974
    149  CA       -18.7760  -16.2730   90.7040 C.3   153  PHE153      0.1639
    150  C        -19.8590  -15.9710   91.7710 C.2   153  PHE153      0.2290
    151  O        -19.8480  -16.5780   92.8390 O.2   153  PHE153     -0.2864
    152  CB       -18.9950  -17.6840   90.1120 C.3   153  PHE153      0.0560
    153  CG       -19.4140  -17.6830   88.6580 C.ar  153  PHE153     -0.0200
    154  CD1      -20.6910  -17.2950   88.2880 C.ar  153  PHE153     -0.0042
    155  CD2      -18.5460  -18.1180   87.6670 C.ar  153  PHE153     -0.0042
    156  CE1      -21.0840  -17.3140   86.9480 C.ar  153  PHE153     -0.0003
    157  CE2      -18.9270  -18.0980   86.3270 C.ar  153  PHE153     -0.0003
    158  CZ       -20.1960  -17.7080   85.9770 C.ar  153  PHE153     -0.0000
    159  N        -20.3410  -13.1210   93.5790 N.3   155  LEU155     -0.1245
    160  CA       -20.0340  -12.1140   94.6100 C.3   155  LEU155      0.1561
    161  C        -20.5930  -10.7370   94.2540 C.2   155  LEU155      0.2260
    162  O        -21.1070  -10.0410   95.1300 O.2   155  LEU155     -0.2867
    163  CB       -18.5180  -11.9960   94.8220 C.3   155  LEU155      0.0270
    164  CG       -17.7840  -13.2750   95.2390 C.3   155  LEU155      0.0019
    165  CD1      -16.3460  -12.9650   95.6280 C.3   155  LEU155      0.0001
    166  CD2      -18.4990  -13.9820   96.3850 C.3   155  LEU155      0.0001
@<TRIPOS>BOND
     1   119   118    2
     2   118   117    1
     3   116   117    1
     4   117   120    1
     5   110   109    2
     6   120   121    1
     7   122   121   ar
     8   109   108    1
     9   121   123   ar
    10   111   108    1
    11   111   112    1
    12   108   107    1
    13   158   157   ar
    14   158   156   ar
    15   114   113   ar
    16   157   155   ar
    17   127   126    2
    18   124   125    1
    19   126   125    1
    20   107   105   am
    21   106   105    2
    22   156   154   ar
    23   112   113    1
    24   125   128    1
    25   105   104    1
    26   113   115   ar
    27   155   153   ar
    28   104   103    1
    29   154   153   ar
    30   153   152    1
    31   128   129    1
    32   131   129    1
    33   132   133    1
    34   129   130    1
    35   135   134    2
    36   152   149    1
    37   137   139    1
    38   137   136    1
    39   133   134    1
    40   133   136    1
    41   149   148    1
    42   149   150    1
    43   134   140   am
    44    47    48    1
    45   136   138    1
    46   148   142   am
    47   143   142    2
    48   142   141    1
    49    95    96    1
    50    95    92    1
    51   150   151    2
    52   140   141    1
    53    96    97   ar
    54    96    98   ar
    55   144   141    1
    56   144   145    1
    57    97    99   ar
    58    48    51    1
    59    48    49    1
    60    98   100   ar
    61    99   101   ar
    62   147   145   ar
    63   100   101   ar
    64   101   102    1
    65    51    52    1
    66    93    92    1
    67    93    94    2
    68    92    91    1
    69   145   146   ar
    70    49    50    2
    71   159   160    1
    72    16    15    2
    73    52    53    1
    74    91    86   am
    75    82    81   ar
    76   161   160    1
    77   161   162    2
    78    53    54    1
    79    24    25    2
    80    24    23    1
    81   160   163    1
    82    87    86    2
    83   163   164    1
    84    23    22    1
    85    86    85    1
    86    81    83   ar
    87    81    80    1
    88    15    22   am
    89    15    14    1
    90   164   165    1
    91   164   166    1
    92    46    45    1
    93    80    79    1
    94     4     3    2
    95    13    14    1
    96    13    11   am
    97    17    14    1
    98    17    18    1
    99    79    76    1
   100    78    77    2
   101    18    19    1
   102    85    84    1
   103    85    88    1
   104    10    11    1
   105    10     9    1
   106    77    84   am
   107    77    76    1
   108    45    44    1
   109    55    56    1
   110    11    12    2
   111     3     9   am
   112     3     2    1
   113    21    20    1
   114    32    30    1
   115    90    88    1
   116    76    75    1
   117    89    88    1
   118    19    20    1
   119    44    43    1
   120     5     2    1
   121     5     6    1
   122    75    73   am
   123     8     6    1
   124    59    56    1
   125    59    60    1
   126     2     1    1
   127    56    57    1
   128    31    30    1
   129    30    27    1
   130    37    34    1
   131     6     7    1
   132    73    72    1
   133    73    74    2
   134    58    57    2
   135    62    60    1
   136    72    71    1
   137    43    42    1
   138    60    61    1
   139    70    68    1
   140    42    39    1
   141    27    26    1
   142    27    28    1
   143    34    33    1
   144    34    35    1
   145    29    28    2
   146    36    35    2
   147    68    67    1
   148    68    69    1
   149    39    38    1
   150    39    40    1
   151    67    64    1
   152    66    65    2
   153    65    64    1
   154    40    41    2
   155    64    63    1
