@<TRIPOS>MOLECULE
tmp/5jmvA00.pdb
 143 135 0 0 0
SMALL
GASTEIGER

@<TRIPOS>ATOM
      1  N        161.6070  145.4350   27.0290 N.3    13  ALA13      -0.1231
      2  CA       161.8500  146.5410   27.9500 C.3    13  ALA13       0.1694
      3  C        160.6580  146.7870   28.8660 C.2    13  ALA13       0.2592
      4  O        160.0420  145.8490   29.3710 O.2    13  ALA13      -0.2718
      5  CB       162.1900  147.8050   27.1770 C.3    13  ALA13       0.0304
      6  N        160.3470  148.0610   29.0800 N.am   14  GLU14      -0.1966
      7  CA       159.3010  148.4630   30.0100 C.3    14  GLU14       0.1733
      8  C        157.9530  148.3690   29.3140 C.2    14  GLU14       0.2616
      9  O        156.9110  148.2540   29.9570 O.2    14  GLU14      -0.2715
     10  CB       159.5370  149.8890   30.5110 C.3    14  GLU14       0.0429
     11  CG       160.9460  150.1500   31.0100 C.3    14  GLU14       0.1163
     12  CD       161.1020  151.5360   31.6040 C.2    14  GLU14       0.3649
     13  OE1      160.6690  151.7430   32.7580 O.co2  14  GLU14      -0.2457
     14  OE2      161.6500  152.4190   30.9130 O.co2  14  GLU14      -0.2457
     15  N        157.9940  148.4140   27.9880 N.am   15  LYS15      -0.1977
     16  CA       156.7900  148.4770   27.1750 C.3    15  LYS15       0.1596
     17  C        156.3140  147.0890   26.7540 C.2    15  LYS15       0.2287
     18  O        157.0630  146.3210   26.1490 O.2    15  LYS15      -0.2864
     19  CB       157.0500  149.3330   25.9350 C.3    15  LYS15       0.0298
     20  CG       157.3190  150.7980   26.2330 C.3    15  LYS15       0.0038
     21  CD       157.1890  151.6460   24.9790 C.3    15  LYS15       0.0206
     22  CE       157.8440  153.0050   25.1680 C.3    15  LYS15       0.1093
     23  NZ       157.8900  153.7830   23.8990 N.3    15  LYS15      -0.1314
     24  N        162.9500  147.0200   14.5040 N.3   108  HIS108     -0.1241
     25  CA       162.8650  148.4750   14.4540 C.3   108  HIS108      0.1621
     26  C        163.1910  148.9930   13.0590 C.2   108  HIS108      0.2264
     27  O        162.5810  149.9480   12.5780 O.2   108  HIS108     -0.2867
     28  CB       163.8090  149.1040   15.4790 C.3   108  HIS108      0.0745
     29  CG       163.2050  149.2700   16.8370 C.ar  108  HIS108      0.0817
     30  ND1      162.2930  150.2620   17.1290 N.ar  108  HIS108     -0.2268
     31  CD2      163.3810  148.5720   17.9840 C.ar  108  HIS108      0.1154
     32  CE1      161.9350  150.1670   18.3970 C.ar  108  HIS108      0.1986
     33  NE2      162.5810  149.1510   18.9380 N.ar  108  HIS108     -0.2212
     34  N        167.4500  154.2320   21.3780 N.3   127  SER127     -0.1202
     35  CA       166.4310  153.7860   22.3220 C.3   127  SER127      0.2020
     36  C        166.7890  154.1440   23.7570 C.2   127  SER127      0.2619
     37  O        167.8380  154.7320   24.0210 O.2   127  SER127     -0.2717
     38  CB       166.2190  152.2740   22.2080 C.3   127  SER127      0.2103
     39  OG       165.3860  151.7980   23.2520 O.3   127  SER127     -0.2182
     40  N        165.9060  153.7800   24.6810 N.am  128  GLY128     -0.1956
     41  CA       166.1500  153.9780   26.0970 C.3   128  GLY128      0.1869
     42  C        167.2500  153.0700   26.6080 C.2   128  GLY128      0.2309
     43  O        167.8670  153.3440   27.6360 O.2   128  GLY128     -0.2863
     44  N        169.3670  157.4590   25.3910 N.3   153  GLY153     -0.1225
     45  CA       168.0300  157.3750   25.9490 C.3   153  GLY153      0.1811
     46  C        168.0960  157.1230   27.4430 C.2   153  GLY153      0.2280
     47  O        167.3450  157.7120   28.2200 O.2   153  GLY153     -0.2866
     48  N        169.4190  160.3030   29.2710 N.3   156  LEU156     -0.1231
     49  CA       168.4140  161.3340   29.4980 C.3   156  LEU156      0.1693
     50  C        167.5020  160.9730   30.6690 C.2   156  LEU156      0.2592
     51  O        167.0870  161.8460   31.4320 O.2   156  LEU156     -0.2718
     52  CB       167.5950  161.5620   28.2270 C.3   156  LEU156      0.0284
     53  CG       168.4250  162.0260   27.0270 C.3   156  LEU156      0.0019
     54  CD1      167.5450  162.3110   25.8270 C.3   156  LEU156      0.0001
     55  CD2      169.2510  163.2510   27.3900 C.3   156  LEU156      0.0001
     56  N        167.1920  159.6880   30.8070 N.am  157  ASP157     -0.1974
     57  CA       166.3770  159.2160   31.9210 C.3   157  ASP157      0.1709
     58  C        167.1140  159.3850   33.2440 C.2   157  ASP157      0.2293
     59  O        166.5490  159.8670   34.2260 O.2   157  ASP157     -0.2864
     60  CB       165.9870  157.7480   31.7280 C.3   157  ASP157      0.1436
     61  CG       165.1010  157.5330   30.5190 C.2   157  ASP157      0.3671
     62  OD1      164.3560  158.4660   30.1520 O.co2 157  ASP157     -0.2456
     63  OD2      165.1420  156.4260   29.9410 O.co2 157  ASP157     -0.2456
     64  N        159.8740  159.1420   32.3530 N.3   168  PRO168     -0.2102
     65  CA       160.2350  159.2950   30.9390 C.3   168  PRO168      0.1504
     66  C        160.8170  160.6820   30.6800 C.2   168  PRO168      0.2576
     67  O        160.1650  161.5270   30.0670 O.2   168  PRO168     -0.2718
     68  CB       158.9040  159.1010   30.2120 C.3   168  PRO168      0.0282
     69  CG       157.8800  159.5320   31.2000 C.3   168  PRO168      0.0208
     70  CD       158.4120  159.1250   32.5480 C.3   168  PRO168      0.0893
     71  N        162.0410  160.8990   31.1520 N.am  169  GLY169     -0.1943
     72  CA       162.6440  162.2180   31.1750 C.3   169  GLY169      0.2014
     73  C        162.9880  162.7980   29.8210 C.2   169  GLY169      0.2639
     74  O        163.0980  164.0150   29.6790 O.2   169  GLY169     -0.2714
     75  N        163.1730  161.9230   28.8370 N.am  170  GLY170     -0.1940
     76  CA       163.5380  162.3230   27.4880 C.3   170  GLY170      0.1998
     77  C        162.7890  163.5210   26.9280 C.2   170  GLY170      0.2480
     78  O        163.4030  164.5420   26.6170 O.2   170  GLY170     -0.2729
     79  N        161.4590  163.4010   26.7870 N.am  171  PRO171     -0.2726
     80  CA       160.6280  164.5060   26.2940 C.3   171  PRO171      0.1402
     81  C        160.7150  165.7490   27.1770 C.2   171  PRO171      0.2269
     82  O        160.7680  166.8660   26.6630 O.2   171  PRO171     -0.2865
     83  CB       159.2150  163.9180   26.3220 C.3   171  PRO171      0.0296
     84  CG       159.4230  162.4540   26.1700 C.3   171  PRO171      0.0237
     85  CD       160.6840  162.1550   26.9230 C.3   171  PRO171      0.0939
     86  N        163.7310  167.8820   26.5780 N.3   174  GLU174     -0.1245
     87  CA       163.6130  168.6180   25.3230 C.3   174  GLU174      0.1567
     88  C        162.8300  169.9180   25.4790 C.2   174  GLU174      0.2260
     89  O        163.1850  170.9400   24.8890 O.2   174  GLU174     -0.2867
     90  CB       162.9550  167.7410   24.2570 C.3   174  GLU174      0.0388
     91  CG       162.7940  168.4230   22.9100 C.3   174  GLU174      0.1160
     92  CD       162.2090  167.5020   21.8600 C.2   174  GLU174      0.3649
     93  OE1      161.5100  166.5370   22.2350 O.co2 174  GLU174     -0.2457
     94  OE2      162.4500  167.7430   20.6590 O.co2 174  GLU174     -0.2457
     95  N        171.5830  168.2670   25.2230 N.3   222  GLN222     -0.1245
     96  CA       171.0190  167.8320   23.9530 C.3   222  GLN222      0.1566
     97  C        171.9570  168.1370   22.7900 C.2   222  GLN222      0.2260
     98  O        172.2440  167.2630   21.9720 O.2   222  GLN222     -0.2867
     99  CB       169.6580  168.4890   23.7170 C.3   222  GLN222      0.0367
    100  CG       168.5470  167.9300   24.5890 C.3   222  GLN222      0.0905
    101  CD       167.1790  168.0920   23.9610 C.2   222  GLN222      0.2608
    102  OE1      166.2960  167.2560   24.1490 O.2   222  GLN222     -0.2717
    103  NE2      166.9950  169.1730   23.2120 N.am  222  GLN222     -0.0878
    104  N        163.6600  154.1780   17.2990 N.3   249  GLY249     -0.1210
    105  CA       163.8120  154.2390   18.7410 C.3   249  GLY249      0.1956
    106  C        162.9160  155.2990   19.3510 C.2   249  GLY249      0.2612
    107  O        162.3190  156.1000   18.6350 O.2   249  GLY249     -0.2717
    108  N        162.8160  155.2990   20.6750 N.am  250  GLY250     -0.1942
    109  CA       161.9600  156.2380   21.3790 C.3   250  GLY250      0.2014
    110  C        162.4250  157.6810   21.3180 C.2   250  GLY250      0.2638
    111  O        161.6140  158.6070   21.3630 O.2   250  GLY250     -0.2714
    112  N        163.7350  157.8740   21.2060 N.am  251  VAL251     -0.1977
    113  CA       164.3210  159.2100   21.2000 C.3   251  VAL251      0.1596
    114  C        164.1290  159.8790   19.8350 C.2   251  VAL251      0.2287
    115  O        164.4740  161.0450   19.6450 O.2   251  VAL251     -0.2864
    116  CB       165.8180  159.1580   21.5660 C.3   251  VAL251      0.0276
    117  CG1      166.3390  160.5340   21.9580 C.3   251  VAL251      0.0022
    118  CG2      166.0440  158.1760   22.7050 C.3   251  VAL251      0.0022
    119  N        161.4700  160.7620   18.8640 N.3   253  ALA253     -0.1231
    120  CA       160.4230  161.7360   19.1440 C.3   253  ALA253      0.1694
    121  C        161.0150  163.1220   19.3890 C.2   253  ALA253      0.2592
    122  O        160.2900  164.1160   19.4380 O.2   253  ALA253     -0.2718
    123  CB       159.5940  161.2950   20.3410 C.3   253  ALA253      0.0304
    124  N        162.3330  163.1800   19.5530 N.am  254  ASN254     -0.1974
    125  CA       163.0260  164.4430   19.7790 C.3   254  ASN254      0.1688
    126  C        163.0580  165.2950   18.5130 C.2   254  ASN254      0.2292
    127  O        163.5740  164.8670   17.4800 O.2   254  ASN254     -0.2864
    128  CB       164.4500  164.1830   20.2760 C.3   254  ASN254      0.1181
    129  CG       165.1320  165.4370   20.7810 C.2   254  ASN254      0.2629
    130  OD1      165.6610  166.2250   19.9980 O.2   254  ASN254     -0.2716
    131  ND2      165.1320  165.6250   22.0970 N.am  254  ASN254     -0.0877
    132  N        158.9100  153.7560   18.7180 N.3   281  GLY281     -0.1210
    133  CA       159.1850  153.0930   19.9790 C.3   281  GLY281      0.1956
    134  C        158.8820  151.6090   19.9160 C.2   281  GLY281      0.2611
    135  O        158.4920  151.0930   18.8680 O.2   281  GLY281     -0.2717
    136  N        159.0740  150.9190   21.0360 N.am  282  ASP282     -0.1973
    137  CA       158.7900  149.4900   21.1170 C.3   282  ASP282      0.1709
    138  C        157.3250  149.1920   20.8180 C.2   282  ASP282      0.2293
    139  O        156.4290  149.8140   21.3900 O.2   282  ASP282     -0.2864
    140  CB       159.1580  148.9480   22.5010 C.3   282  ASP282      0.1436
    141  CG       160.6440  149.0310   22.7840 C.2   282  ASP282      0.3671
    142  OD1      161.4270  149.1370   21.8170 O.co2 282  ASP282     -0.2456
    143  OD2      161.0300  148.9890   23.9720 O.co2 282  ASP282     -0.2456
@<TRIPOS>BOND
     1    27    26    2
     2    26    25    1
     3    25    24    1
     4    25    28    1
     5    28    29    1
     6    29    30   ar
     7    29    31   ar
     8    30    32   ar
     9   104   105    1
    10   127   126    2
    11    31    33   ar
    12    32    33   ar
    13   126   125    1
    14   107   106    2
    15   132   133    1
    16   105   106    1
    17   119   120    1
    18   135   134    2
    19   120   121    1
    20   120   123    1
    21   106   108   am
    22   121   122    2
    23   121   124   am
    24   124   125    1
    25   115   114    2
    26   125   128    1
    27   114   113    1
    28   134   133    1
    29   134   136   am
    30   130   129    2
    31   128   129    1
    32    94    92   ar
    33   108   109    1
    34   129   131   am
    35   138   137    1
    36   138   139    2
    37   136   137    1
    38   137   140    1
    39   113   112    1
    40   113   116    1
    41   112   110   am
    42   110   111    2
    43   110   109    1
    44    34    35    1
    45   116   117    1
    46   116   118    1
    47   142   141   ar
    48    92    93   ar
    49    92    91    1
    50    98    97    2
    51    38    35    1
    52    38    39    1
    53    35    36    1
    54   140   141    1
    55   141   143   ar
    56    97    96    1
    57    91    90    1
    58   103   101   am
    59    99    96    1
    60    99   100    1
    61    36    37    2
    62    36    40   am
    63    23    22    1
    64    96    95    1
    65   101   102    2
    66   101   100    1
    67    90    87    1
    68    40    41    1
    69    89    88    2
    70    21    22    1
    71    21    20    1
    72    87    88    1
    73    87    86    1
    74    44    45    1
    75    54    53    1
    76    19    20    1
    77    19    16    1
    78    45    46    1
    79    41    42    1
    80    18    17    2
    81    84    83    1
    82    84    85    1
    83    80    83    1
    84    80    79    1
    85    80    81    1
    86    42    43    2
    87    78    77    2
    88    82    81    2
    89    17    16    1
    90    79    85    1
    91    79    77   am
    92    77    76    1
    93    53    55    1
    94    53    52    1
    95     1     2    1
    96    16    15    1
    97     5     2    1
    98    46    47    2
    99    76    75    1
   100     2     3    1
   101    15     8   am
   102    52    49    1
   103    75    73   am
   104     3     6   am
   105     3     4    2
   106     6     7    1
   107    48    49    1
   108     8     9    2
   109     8     7    1
   110    49    50    1
   111    74    73    2
   112    73    72    1
   113    63    61   ar
   114     7    10    1
   115    67    66    2
   116    62    61   ar
   117    68    65    1
   118    68    69    1
   119    10    11    1
   120    61    60    1
   121    50    56   am
   122    50    51    2
   123    66    65    1
   124    66    71   am
   125    56    57    1
   126    14    12   ar
   127    65    64    1
   128    11    12    1
   129    71    72    1
   130    69    70    1
   131    12    13   ar
   132    60    57    1
   133    57    58    1
   134    64    70    1
   135    58    59    2
