@<TRIPOS>MOLECULE
tmp/5jmwB01.pdb
 97 90 0 0 0
SMALL
GASTEIGER

@<TRIPOS>ATOM
      1  N         -6.9990   26.9220  -26.8070 N.3   107  SER107     -0.1202
      2  CA        -7.0290   26.4840  -28.2110 C.3   107  SER107      0.2020
      3  C         -5.6450   26.5190  -28.8820 C.2   107  SER107      0.2618
      4  O         -4.6210   26.4530  -28.1880 O.2   107  SER107     -0.2717
      5  CB        -8.0720   27.2970  -28.9990 C.3   107  SER107      0.2103
      6  OG        -8.2710   26.7540  -30.2990 O.3   107  SER107     -0.2182
      7  N         -5.6090   26.6260  -30.2130 N.am  108  PHE108     -0.1975
      8  CA        -4.3530   26.5270  -30.9590 C.3   108  PHE108      0.1639
      9  C         -3.3470   27.6330  -30.6320 C.2   108  PHE108      0.2290
     10  O         -2.1660   27.3420  -30.4460 O.2   108  PHE108     -0.2864
     11  CB        -4.5910   26.4870  -32.4740 C.3   108  PHE108      0.0560
     12  CG        -3.3190   26.3600  -33.2700 C.ar  108  PHE108     -0.0200
     13  CD1       -2.6160   25.1570  -33.2890 C.ar  108  PHE108     -0.0042
     14  CD2       -2.7960   27.4490  -33.9630 C.ar  108  PHE108     -0.0042
     15  CE1       -1.4280   25.0370  -34.0000 C.ar  108  PHE108     -0.0003
     16  CE2       -1.6080   27.3340  -34.6750 C.ar  108  PHE108     -0.0003
     17  CZ        -0.9240   26.1260  -34.6950 C.ar  108  PHE108     -0.0000
     18  N         -1.2240   26.8230  -27.7700 N.3   111  LEU111     -0.1245
     19  CA        -0.1850   25.8440  -28.0950 C.3   111  LEU111      0.1561
     20  C          0.9210   26.4800  -28.9360 C.2   111  LEU111      0.2260
     21  O          2.1090   26.2620  -28.6870 O.2   111  LEU111     -0.2867
     22  CB        -0.7780   24.6300  -28.8230 C.3   111  LEU111      0.0270
     23  CG         0.2170   23.5370  -29.2470 C.3   111  LEU111      0.0019
     24  CD1        1.0710   23.0820  -28.0680 C.3   111  LEU111      0.0001
     25  CD2       -0.5380   22.3660  -29.8650 C.3   111  LEU111      0.0001
     26  N         -3.0540   26.2120  -19.8740 N.3   128  ASN128     -0.1240
     27  CA        -3.8660   25.5200  -20.8840 C.3   128  ASN128      0.1653
     28  C         -3.6480   24.0050  -20.8070 C.2   128  ASN128      0.2266
     29  O         -2.7270   23.4720  -21.4340 O.2   128  ASN128     -0.2867
     30  CB        -3.4890   26.0810  -22.2680 C.3   128  ASN128      0.1155
     31  CG        -4.3340   25.5190  -23.4060 C.2   128  ASN128      0.2627
     32  OD1       -4.8850   24.4140  -23.3290 O.2   128  ASN128     -0.2716
     33  ND2       -4.4070   26.2750  -24.4940 N.am  128  ASN128     -0.0877
     34  N         -5.5230   21.5560  -21.9930 N.3   130  GLU130     -0.1231
     35  CA        -5.8400   20.8580  -23.2420 C.3   130  GLU130      0.1699
     36  C         -4.6100   20.6950  -24.1380 C.2   130  GLU130      0.2592
     37  O         -4.4760   19.6760  -24.8080 O.2   130  GLU130     -0.2718
     38  CB        -6.9650   21.5540  -24.0120 C.3   130  GLU130      0.0402
     39  CG        -8.3410   21.4440  -23.3530 C.3   130  GLU130      0.1161
     40  CD        -8.6650   22.5740  -22.3900 C.2   130  GLU130      0.3649
     41  OE1       -7.7450   23.3190  -21.9860 O.co2 130  GLU130     -0.2457
     42  OE2       -9.8550   22.7030  -22.0240 O.co2 130  GLU130     -0.2457
     43  N         -3.7170   21.6860  -24.1310 N.am  131  SER131     -0.1952
     44  CA        -2.4740   21.6210  -24.9090 C.3   131  SER131      0.1924
     45  C         -1.5210   20.5340  -24.4020 C.2   131  SER131      0.2314
     46  O         -0.8700   19.8570  -25.1950 O.2   131  SER131     -0.2863
     47  CB        -1.7750   22.9860  -24.9550 C.3   131  SER131      0.2116
     48  OG        -1.2170   23.3470  -23.7010 O.3   131  SER131     -0.2180
     49  N         -3.3910   17.1000  -25.2430 N.3   134  SER134     -0.1217
     50  CA        -3.4290   16.8420  -26.6850 C.3   134  SER134      0.1889
     51  C         -2.0540   16.6910  -27.3200 C.2   134  SER134      0.2288
     52  O         -1.8760   15.8970  -28.2430 O.2   134  SER134     -0.2866
     53  CB        -4.1860   17.9700  -27.3930 C.3   134  SER134      0.2089
     54  OG        -4.3900   17.6840  -28.7740 O.3   134  SER134     -0.2183
     55  N         -9.4460   14.4990  -25.9050 N.3   344  ASN344     -0.1240
     56  CA        -9.5930   15.9370  -25.7810 C.3   344  ASN344      0.1653
     57  C        -10.4370   16.5430  -26.9030 C.2   344  ASN344      0.2266
     58  O        -11.3140   17.3630  -26.6430 O.2   344  ASN344     -0.2867
     59  CB        -8.2370   16.6250  -25.7360 C.3   344  ASN344      0.1155
     60  CG        -8.3780   18.1050  -25.5120 C.2   344  ASN344      0.2627
     61  OD1       -8.7580   18.5360  -24.4190 O.2   344  ASN344     -0.2716
     62  ND2       -8.1330   18.8840  -26.5470 N.am  344  ASN344     -0.0877
     63  N        -14.1330   18.1910  -26.7000 N.3   348  GLU348     -0.1245
     64  CA       -14.3540   19.5710  -27.1300 C.3   348  GLU348      0.1567
     65  C        -15.7100   19.6960  -27.8130 C.2   348  GLU348      0.2260
     66  O        -16.4930   20.5990  -27.5010 O.2   348  GLU348     -0.2867
     67  CB       -13.2490   20.0390  -28.0820 C.3   348  GLU348      0.0388
     68  CG       -13.2810   21.5180  -28.3900 C.3   348  GLU348      0.1160
     69  CD       -12.1040   21.9740  -29.2320 C.2   348  GLU348      0.3649
     70  OE1      -10.9550   21.5900  -28.9230 O.co2 348  GLU348     -0.2457
     71  OE2      -12.3340   22.7410  -30.1950 O.co2 348  GLU348     -0.2457
     72  N         -0.5340   15.5800  -34.7710 N.3   391  ILE391     -0.1231
     73  CA        -1.4490   15.9280  -33.6810 C.3   391  ILE391      0.1692
     74  C         -2.6290   16.7480  -34.2010 C.2   391  ILE391      0.2591
     75  O         -3.7860   16.4640  -33.8580 O.2   391  ILE391     -0.2718
     76  CB        -0.7110   16.6690  -32.5400 C.3   391  ILE391      0.0266
     77  CG1        0.2230   15.6990  -31.8110 C.3   391  ILE391      0.0019
     78  CG2       -1.6930   17.3120  -31.5550 C.3   391  ILE391      0.0020
     79  CD1        1.3310   16.3960  -31.0510 C.3   391  ILE391      0.0001
     80  N         -2.3380   17.7600  -35.0200 N.am  392  LEU392     -0.1980
     81  CA        -3.3940   18.6060  -35.6020 C.3   392  LEU392      0.1596
     82  C         -4.3580   17.8110  -36.4870 C.2   392  LEU392      0.2287
     83  O         -5.5770   18.0020  -36.4110 O.2   392  LEU392     -0.2864
     84  CB        -2.7910   19.7740  -36.3910 C.3   392  LEU392      0.0297
     85  CG        -2.1600   20.8850  -35.5370 C.3   392  LEU392      0.0022
     86  CD1       -1.1730   21.7260  -36.3470 C.3   392  LEU392      0.0001
     87  CD2       -3.2290   21.7780  -34.9260 C.3   392  LEU392      0.0001
     88  N         -6.4790   15.6370  -34.1230 N.3   395  HIS395     -0.1241
     89  CA        -7.4130   16.5440  -33.4460 C.3   395  HIS395      0.1621
     90  C         -8.6030   16.8680  -34.3530 C.2   395  HIS395      0.2264
     91  O         -9.7610   16.7390  -33.9380 O.2   395  HIS395     -0.2867
     92  CB        -6.6830   17.8230  -33.0200 C.3   395  HIS395      0.0745
     93  CG        -7.5660   18.8530  -32.3910 C.ar  395  HIS395      0.0817
     94  ND1       -7.9860   18.7740  -31.0810 N.ar  395  HIS395     -0.2268
     95  CD2       -8.0840   20.0040  -32.8840 C.ar  395  HIS395      0.1154
     96  CE1       -8.7400   19.8220  -30.7980 C.ar  395  HIS395      0.1986
     97  NE2       -8.8130   20.5870  -31.8760 N.ar  395  HIS395     -0.2212
@<TRIPOS>BOND
     1    82    83    2
     2    82    81    1
     3    84    81    1
     4    84    85    1
     5    86    85    1
     6    81    80    1
     7    85    87    1
     8    80    74   am
     9    72    73    1
    10    17    16   ar
    11    17    15   ar
    12    16    14   ar
    13    90    91    2
    14    90    89    1
    15    74    75    2
    16    74    73    1
    17    88    89    1
    18    15    13   ar
    19    14    12   ar
    20    73    76    1
    21    89    92    1
    22    13    12   ar
    23    12    11    1
    24    92    93    1
    25    95    93   ar
    26    95    97   ar
    27    76    77    1
    28    76    78    1
    29    11     8    1
    30    93    94   ar
    31    97    96   ar
    32    77    79    1
    33    94    96   ar
    34     8     9    1
    35     8     7    1
    36     9    10    2
    37     6     5    1
    38     7     3   am
    39    71    69   ar
    40    25    23    1
    41    23    22    1
    42    23    24    1
    43    69    70   ar
    44    69    68    1
    45     5     2    1
    46    20    21    2
    47    20    19    1
    48     3     2    1
    49     3     4    2
    50    22    19    1
    51    54    53    1
    52    68    67    1
    53    52    51    2
    54     2     1    1
    55    19    18    1
    56    67    64    1
    57    65    66    2
    58    65    64    1
    59    53    50    1
    60    51    50    1
    61    64    63    1
    62    57    58    2
    63    57    56    1
    64    50    49    1
    65    62    60   am
    66    55    56    1
    67    56    59    1
    68    59    60    1
    69    60    61    2
    70    46    45    2
    71    47    44    1
    72    47    48    1
    73    44    45    1
    74    44    43    1
    75    37    36    2
    76    33    31   am
    77    36    43   am
    78    36    35    1
    79    38    39    1
    80    38    35    1
    81    31    32    2
    82    31    30    1
    83    39    40    1
    84    35    34    1
    85    40    42   ar
    86    40    41   ar
    87    30    27    1
    88    29    28    2
    89    27    28    1
    90    27    26    1
