@<TRIPOS>MOLECULE
tmp/5jmxA00.pdb
 115 112 0 0 0
SMALL
GASTEIGER

@<TRIPOS>ATOM
      1  N         59.6980    6.8960   15.6600 N.3    49  TRP49      -0.1241
      2  CA        59.1910    7.8520   16.6350 C.3    49  TRP49       0.1605
      3  C         57.8650    8.4680   16.2290 C.2    49  TRP49       0.2264
      4  O         57.0730    8.8530   17.0880 O.2    49  TRP49      -0.2867
      5  CB        60.2030    8.9710   16.7610 C.3    49  TRP49       0.0550
      6  CG        61.5450    8.5550   17.2810 C.ar   49  TRP49       0.0003
      7  CD1       62.6530    8.2320   16.5570 C.ar   49  TRP49       0.0946
      8  CD2       61.9230    8.4680   18.6590 C.ar   49  TRP49       0.0152
      9  NE1       63.7100    7.9570   17.4090 N.ar   49  TRP49      -0.2442
     10  CE2       63.2790    8.0880   18.7010 C.ar   49  TRP49       0.0810
     11  CE3       61.2390    8.6640   19.8510 C.ar   49  TRP49       0.0012
     12  CZ2       63.9700    7.9060   19.9010 C.ar   49  TRP49       0.0191
     13  CZ3       61.9260    8.4810   21.0410 C.ar   49  TRP49       0.0001
     14  CH2       63.2740    8.0990   21.0490 C.ar   49  TRP49       0.0015
     15  N         57.0200   -2.7420   22.1550 N.3    76  HIS76      -0.1241
     16  CA        56.2910   -2.1920   23.2990 C.3    76  HIS76       0.1621
     17  C         55.5840   -0.9300   22.8520 C.2    76  HIS76       0.2264
     18  O         55.7190   -0.4810   21.7150 O.2    76  HIS76      -0.2867
     19  CB        57.1380   -2.0020   24.5710 C.3    76  HIS76       0.0745
     20  CG        58.1620   -0.9050   24.5220 C.ar   76  HIS76       0.0817
     21  ND1       59.4220   -1.1170   23.9790 N.ar   76  HIS76      -0.2268
     22  CD2       58.2230    0.3220   25.1130 C.ar   76  HIS76       0.1154
     23  CE1       60.1520   -0.0300   24.1290 C.ar   76  HIS76       0.1986
     24  NE2       59.4510    0.8710   24.7950 N.ar   76  HIS76      -0.2212
     25  N         55.6930    2.3670   23.5390 N.3    78  HIS78      -0.1226
     26  CA        56.2100    3.7240   23.5960 C.3    78  HIS78       0.1752
     27  C         56.4280    4.2500   22.1760 C.2    78  HIS78       0.2596
     28  O         56.5170    3.4890   21.2280 O.2    78  HIS78      -0.2718
     29  CB        57.5520    3.7050   24.3350 C.3    78  HIS78       0.0759
     30  CG        57.4570    3.6450   25.8230 C.ar   78  HIS78       0.0818
     31  ND1       58.5080    3.2260   26.6180 N.ar   78  HIS78      -0.2268
     32  CD2       56.4690    4.0140   26.6740 C.ar   78  HIS78       0.1154
     33  CE1       58.1540    3.3250   27.8880 C.ar   78  HIS78       0.1986
     34  NE2       56.9280    3.8160   27.9480 N.ar   78  HIS78      -0.2212
     35  N         56.5780    5.5770   22.0530 N.am   79  ALA79      -0.1966
     36  CA        56.5450    6.2220   20.7450 C.3    79  ALA79       0.1728
     37  C         57.6930    5.7780   19.8520 C.2    79  ALA79       0.2616
     38  O         57.5300    5.7130   18.6390 O.2    79  ALA79      -0.2715
     39  CB        56.5810    7.7380   20.9140 C.3    79  ALA79       0.0334
     40  N         58.8710    5.4950   20.4130 N.am   80  ASP80      -0.1971
     41  CA        59.9590    5.0480   19.5500 C.3    80  ASP80       0.1709
     42  C         59.6440    3.7410   18.8410 C.2    80  ASP80       0.2293
     43  O         60.2020    3.4630   17.7740 O.2    80  ASP80      -0.2864
     44  CB        61.2930    4.9850   20.3260 C.3    80  ASP80       0.1436
     45  CG        61.2940    3.9740   21.4470 C.2    80  ASP80       0.3671
     46  OD1       60.2330    3.7110   22.0650 O.co2  80  ASP80      -0.2456
     47  OD2       62.4060    3.4840   21.8090 O.co2  80  ASP80      -0.2456
     48  N         61.7960   -2.8700   31.1050 N.3   139  HIS139     -0.1241
     49  CA        61.7390   -1.4780   30.7010 C.3   139  HIS139      0.1621
     50  C         60.3020   -0.9900   30.6900 C.2   139  HIS139      0.2264
     51  O         60.0220    0.1600   31.0590 O.2   139  HIS139     -0.2867
     52  CB        62.3330   -1.3750   29.2950 C.3   139  HIS139      0.0745
     53  CG        61.9960   -0.0950   28.6030 C.ar  139  HIS139      0.0817
     54  ND1       62.4840    1.1210   29.0100 N.ar  139  HIS139     -0.2268
     55  CD2       61.1830    0.1580   27.5530 C.ar  139  HIS139      0.1154
     56  CE1       62.0170    2.0730   28.2270 C.ar  139  HIS139      0.1986
     57  NE2       61.2190    1.5120   27.3270 N.ar  139  HIS139     -0.2212
     58  N         64.0880   -2.2010   24.0110 N.3   158  CYS158     -0.1235
     59  CA        64.4620   -1.2910   25.0710 C.3   158  CYS158      0.1677
     60  C         64.6460   -1.9930   26.3930 C.2   158  CYS158      0.2270
     61  O         65.1390   -1.3650   27.3350 O.2   158  CYS158     -0.2867
     62  CB        63.4990   -0.1190   25.0950 C.3   158  CYS158      0.0956
     63  SG        63.4410    0.6750   23.4330 S.3   158  CYS158     -0.0801
     64  N         70.0290   -2.4850   27.2640 N.3   161  LYS161     -0.1245
     65  CA        70.7660   -1.2450   27.1280 C.3   161  LYS161      0.1561
     66  C         72.0700   -1.4760   26.3870 C.2   161  LYS161      0.2260
     67  O         72.7120   -2.5230   26.5140 O.2   161  LYS161     -0.2867
     68  CB        71.0920   -0.6780   28.5220 C.3   161  LYS161      0.0271
     69  CG        69.8970   -0.5470   29.4410 C.3   161  LYS161      0.0035
     70  CD        68.7550    0.2910   28.9110 C.3   161  LYS161      0.0206
     71  CE        69.1190    1.7190   28.6530 C.3   161  LYS161      0.1093
     72  NZ        67.8530    2.5400   28.3680 N.3   161  LYS161     -0.1314
     73  N         69.6930    3.4130   33.3980 N.3   168  LEU168     -0.1231
     74  CA        68.5700    2.7230   32.7840 C.3   168  LEU168      0.1693
     75  C         67.6950    3.6340   31.9370 C.2   168  LEU168      0.2593
     76  O         66.7620    3.1330   31.3100 O.2   168  LEU168     -0.2718
     77  CB        67.7270    2.0310   33.8490 C.3   168  LEU168      0.0284
     78  CG        68.4520    0.9230   34.6080 C.3   168  LEU168      0.0019
     79  CD1       67.6680    0.5680   35.8710 C.3   168  LEU168      0.0001
     80  CD2       68.6710   -0.2860   33.7330 C.3   168  LEU168      0.0001
     81  N         67.9450    4.9400   31.9280 N.am  169  GLY169     -0.1942
     82  CA        67.0780    5.8380   31.1800 C.3   169  GLY169      0.2014
     83  C         65.7950    6.1320   31.9450 C.2   169  GLY169      0.2638
     84  O         65.7460    6.0670   33.1660 O.2   169  GLY169     -0.2714
     85  N         64.7360    6.4530   31.2080 N.am  170  ASN170     -0.1972
     86  CA        63.4710    6.7940   31.8510 C.3   170  ASN170      0.1688
     87  C         62.8190    5.5150   32.3570 C.2   170  ASN170      0.2292
     88  O         62.5450    4.6010   31.5730 O.2   170  ASN170     -0.2864
     89  CB        62.5690    7.5200   30.8500 C.3   170  ASN170      0.1181
     90  CG        61.2910    8.0540   31.4840 C.2   170  ASN170      0.2629
     91  OD1       60.6630    7.3860   32.3010 O.2   170  ASN170     -0.2716
     92  ND2       60.9100    9.2780   31.1160 N.am  170  ASN170     -0.0877
     93  N         59.9700    5.5000   34.2740 N.3   172  ALA172     -0.1231
     94  CA        58.6150    5.8160   34.7110 C.3   172  ALA172      0.1694
     95  C         57.6790    4.6390   34.4870 C.2   172  ALA172      0.2592
     96  O         56.7810    4.3790   35.2940 O.2   172  ALA172     -0.2718
     97  CB        58.0960    7.0400   33.9620 C.3   172  ALA172      0.0304
     98  N         57.8580    3.9180   33.3930 N.am  173  ASP173     -0.1974
     99  CA        57.0120    2.7760   33.1030 C.3   173  ASP173      0.1709
    100  C         57.6770    1.4460   33.3920 C.2   173  ASP173      0.2293
    101  O         57.1680    0.4060   32.9440 O.2   173  ASP173     -0.2864
    102  CB        56.5640    2.8310   31.6360 C.3   173  ASP173      0.1436
    103  CG        55.7160    4.0410   31.3430 C.2   173  ASP173      0.3671
    104  OD1       54.9860    4.5350   32.2400 O.co2 173  ASP173     -0.2456
    105  OD2       55.7230    4.4980   30.1830 O.co2 173  ASP173     -0.2456
    106  N         68.3710    1.2900   21.6610 N.3   200  HIS200     -0.1241
    107  CA        69.1100    2.5020   21.3540 C.3   200  HIS200      0.1621
    108  C         70.5880    2.1650   21.4920 C.2   200  HIS200      0.2264
    109  O         70.9670    1.4980   22.4640 O.2   200  HIS200     -0.2867
    110  CB        68.7320    3.6420   22.3430 C.3   200  HIS200      0.0745
    111  CG        67.2480    3.8130   22.5020 C.ar  200  HIS200      0.0817
    112  ND1       66.5090    4.6780   21.7130 N.ar  200  HIS200     -0.2268
    113  CD2       66.3520    3.1570   23.2770 C.ar  200  HIS200      0.1154
    114  CE1       65.2330    4.5770   22.0350 C.ar  200  HIS200      0.1986
    115  NE2       65.1040    3.6530   22.9710 N.ar  200  HIS200     -0.2212
@<TRIPOS>BOND
     1     1     2    1
     2     3     2    1
     3     3     4    2
     4     7     6   ar
     5     7     9   ar
     6     2     5    1
     7     5     6    1
     8     6     8   ar
     9     9    10   ar
    10    43    42    2
    11    38    37    2
    12     8    10   ar
    13     8    11   ar
    14    10    12   ar
    15    42    41    1
    16    41    44    1
    17    41    40    1
    18    11    13   ar
    19    37    40   am
    20    37    36    1
    21    12    14   ar
    22    44    45    1
    23    36    39    1
    24    36    35    1
    25    13    14   ar
    26    28    27    2
    27   107   108    1
    28   107   106    1
    29   107   110    1
    30    45    47   ar
    31    45    46   ar
    32   108   109    2
    33   112   114   ar
    34   112   111   ar
    35    18    17    2
    36   114   115   ar
    37    35    27   am
    38    15    16    1
    39    27    26    1
    40   110   111    1
    41   111   113   ar
    42    17    16    1
    43   115   113   ar
    44    16    19    1
    45    63    62    1
    46    25    26    1
    47    26    29    1
    48    21    23   ar
    49    21    20   ar
    50    58    59    1
    51    23    24   ar
    52    29    30    1
    53    20    19    1
    54    20    22   ar
    55    24    22   ar
    56    59    62    1
    57    59    60    1
    58    30    31   ar
    59    30    32   ar
    60    66    67    2
    61    66    65    1
    62    60    61    2
    63    31    33   ar
    64    32    34   ar
    65    65    64    1
    66    65    68    1
    67    57    55   ar
    68    57    56   ar
    69    55    53   ar
    70    33    34   ar
    71    56    54   ar
    72    72    71    1
    73    68    69    1
    74    53    54   ar
    75    53    52    1
    76    71    70    1
    77    70    69    1
    78    52    49    1
    79   105   103   ar
    80    50    49    1
    81    50    51    2
    82    49    48    1
    83    89    90    1
    84    89    86    1
    85    92    90   am
    86    82    81    1
    87    82    83    1
    88    85    86    1
    89    85    83   am
    90    76    75    2
    91   103   102    1
    92   103   104   ar
    93    90    91    2
    94    88    87    2
    95   102    99    1
    96    86    87    1
    97    81    75   am
    98    75    74    1
    99    83    84    2
   100    74    73    1
   101    74    77    1
   102   101   100    2
   103    99   100    1
   104    99    98    1
   105    98    95   am
   106    80    78    1
   107    77    78    1
   108    97    94    1
   109    93    94    1
   110    95    94    1
   111    95    96    2
   112    78    79    1
