@<TRIPOS>MOLECULE
tmp/5jmyB04.pdb
 226 219 0 0 0
SMALL
GASTEIGER

@<TRIPOS>ATOM
      1  N         -8.2000  -29.5190  -34.4840 N.3    49  ARG49      -0.1245
      2  CA        -7.8990  -29.4540  -35.9080 C.3    49  ARG49       0.1563
      3  C         -8.9810  -28.5650  -36.5160 C.2    49  ARG49       0.2260
      4  O        -10.1320  -28.6600  -36.1060 O.2    49  ARG49      -0.2867
      5  CB        -7.9900  -30.8880  -36.5020 C.3    49  ARG49       0.0307
      6  CG        -7.6480  -30.9580  -37.9660 C.3    49  ARG49       0.0489
      7  CD        -7.8620  -32.3380  -38.5150 C.3    49  ARG49       0.2205
      8  NE        -9.2640  -32.6660  -38.7260 N.pl3  49  ARG49      -0.0865
      9  CZ        -9.6800  -33.8180  -39.2280 C.cat  49  ARG49       0.5346
     10  NH1       -8.8090  -34.7560  -39.5590 N.pl3  49  ARG49       0.1354
     11  NH2      -10.9710  -34.0440  -39.3960 N.pl3  49  ARG49       0.1354
     12  N        -13.1930  -29.1810  -43.9490 N.3    53  PHE53      -0.1241
     13  CA       -13.8720  -30.4240  -43.5750 C.3    53  PHE53       0.1605
     14  C        -14.5140  -30.3500  -42.1870 C.2    53  PHE53       0.2264
     15  O        -15.6910  -30.7100  -42.0470 O.2    53  PHE53      -0.2867
     16  CB       -12.9090  -31.6160  -43.7310 C.3    53  PHE53       0.0534
     17  CG       -13.5430  -32.9650  -43.5600 C.ar   53  PHE53      -0.0203
     18  CD1      -14.2460  -33.5540  -44.5930 C.ar   53  PHE53      -0.0042
     19  CD2      -13.4440  -33.6490  -42.3600 C.ar   53  PHE53      -0.0042
     20  CE1      -14.8580  -34.7990  -44.4290 C.ar   53  PHE53      -0.0003
     21  CE2      -14.0300  -34.9080  -42.2110 C.ar   53  PHE53      -0.0003
     22  CZ       -14.7540  -35.4620  -43.2470 C.ar   53  PHE53      -0.0000
     23  N        -18.7040  -30.1260  -40.3860 N.3    57  ARG57      -0.1245
     24  CA       -19.2180  -30.7940  -39.1890 C.3    57  ARG57       0.1563
     25  C        -19.7810  -29.7750  -38.2050 C.2    57  ARG57       0.2260
     26  O        -20.8270  -30.0240  -37.5950 O.2    57  ARG57      -0.2867
     27  CB       -18.1090  -31.6090  -38.5320 C.3    57  ARG57       0.0307
     28  CG       -17.8510  -32.8790  -39.3220 C.3    57  ARG57       0.0489
     29  CD       -16.8710  -33.7610  -38.6360 C.3    57  ARG57       0.2205
     30  NE       -16.6840  -34.9930  -39.4120 N.pl3  57  ARG57      -0.0865
     31  CZ       -15.5770  -35.7280  -39.4010 C.cat  57  ARG57       0.5346
     32  NH1      -14.5160  -35.3390  -38.6920 N.pl3  57  ARG57       0.1354
     33  NH2      -15.5080  -36.8420  -40.1190 N.pl3  57  ARG57       0.1354
     34  N        -19.0630  -37.9470  -43.1920 N.3   489  ASN489     -0.1225
     35  CA       -18.1130  -39.0260  -43.4330 C.3   489  ASN489      0.1785
     36  C        -18.7470  -40.0130  -44.4270 C.2   489  ASN489      0.2597
     37  O        -19.8520  -39.7820  -44.9120 O.2   489  ASN489     -0.2718
     38  CB       -17.7520  -39.7420  -42.1100 C.3   489  ASN489      0.1169
     39  CG       -16.2700  -39.6530  -41.7710 C.2   489  ASN489      0.2627
     40  OD1      -15.4520  -39.1250  -42.5210 O.2   489  ASN489     -0.2716
     41  ND2      -15.8710  -40.1670  -40.6340 N.am  489  ASN489     -0.0877
     42  N        -18.0040  -41.0440  -44.8100 N.am  490  ALA490     -0.1966
     43  CA       -18.4750  -42.1140  -45.7070 C.3   490  ALA490      0.1728
     44  C        -17.7530  -43.3400  -45.2280 C.2   490  ALA490      0.2616
     45  O        -16.7970  -43.2150  -44.4540 O.2   490  ALA490     -0.2715
     46  CB       -18.1500  -41.8150  -47.1590 C.3   490  ALA490      0.0334
     47  N        -18.2610  -44.5280  -45.5580 N.am  491  PHE491     -0.1960
     48  CA       -17.6910  -45.7500  -44.9990 C.3   491  PHE491      0.1771
     49  C        -17.6630  -46.9090  -45.9570 C.2   491  PHE491      0.2619
     50  O        -18.4280  -46.9630  -46.9210 O.2   491  PHE491     -0.2715
     51  CB       -18.4780  -46.1930  -43.7540 C.3   491  PHE491      0.0574
     52  CG       -18.6760  -45.1170  -42.7210 C.ar  491  PHE491     -0.0200
     53  CD1      -17.7180  -44.8930  -41.7310 C.ar  491  PHE491     -0.0042
     54  CD2      -19.7660  -44.2580  -42.7890 C.ar  491  PHE491     -0.0042
     55  CE1      -17.8810  -43.8650  -40.7990 C.ar  491  PHE491     -0.0003
     56  CE2      -19.8930  -43.1850  -41.8810 C.ar  491  PHE491     -0.0003
     57  CZ       -18.9590  -43.0150  -40.8910 C.ar  491  PHE491     -0.0000
     58  N        -16.7950  -47.8610  -45.6390 N.am  492  TYR492     -0.1974
     59  CA       -16.7150  -49.1470  -46.2770 C.3   492  TYR492      0.1639
     60  C        -16.7830  -50.1860  -45.1560 C.2   492  TYR492      0.2290
     61  O        -16.0470  -50.0620  -44.1790 O.2   492  TYR492     -0.2864
     62  CB       -15.4260  -49.3100  -47.0840 C.3   492  TYR492      0.0560
     63  CG       -15.3400  -50.7110  -47.6510 C.ar  492  TYR492     -0.0198
     64  CD1      -16.1710  -51.1140  -48.6950 C.ar  492  TYR492     -0.0009
     65  CD2      -14.5270  -51.6750  -47.0580 C.ar  492  TYR492     -0.0009
     66  CE1      -16.1720  -52.4300  -49.1560 C.ar  492  TYR492      0.0417
     67  CE2      -14.5140  -52.9950  -47.5170 C.ar  492  TYR492      0.0417
     68  CZ       -15.3450  -53.3690  -48.5620 C.ar  492  TYR492      0.1957
     69  OH       -15.3240  -54.6590  -49.0410 O.3   492  TYR492     -0.2866
     70  N        -22.4590  -36.0420  -45.8770 N.3   505  ILE505     -0.1245
     71  CA       -21.2940  -35.7740  -46.7600 C.3   505  ILE505      0.1561
     72  C        -21.7360  -35.3370  -48.1770 C.2   505  ILE505      0.2260
     73  O        -20.9310  -34.8620  -48.9580 O.2   505  ILE505     -0.2867
     74  CB       -20.2930  -36.9480  -46.7830 C.3   505  ILE505      0.0252
     75  CG1      -18.8790  -36.4240  -47.2100 C.3   505  ILE505      0.0019
     76  CG2      -20.8180  -38.1330  -47.6650 C.3   505  ILE505      0.0019
     77  CD1      -17.7240  -37.3130  -46.9800 C.3   505  ILE505      0.0001
     78  N        -18.1360  -31.3720  -51.4810 N.3   510  PHE510     -0.1241
     79  CA       -18.1440  -32.7390  -52.0310 C.3   510  PHE510      0.1605
     80  C        -19.1290  -32.9010  -53.1810 C.2   510  PHE510      0.2264
     81  O        -18.7600  -33.3950  -54.2370 O.2   510  PHE510     -0.2867
     82  CB       -18.4700  -33.7670  -50.9440 C.3   510  PHE510      0.0534
     83  CG       -17.3860  -33.8720  -49.8880 C.ar  510  PHE510     -0.0203
     84  CD1      -16.1880  -34.5320  -50.1600 C.ar  510  PHE510     -0.0042
     85  CD2      -17.5290  -33.2400  -48.6580 C.ar  510  PHE510     -0.0042
     86  CE1      -15.1720  -34.5970  -49.2060 C.ar  510  PHE510     -0.0003
     87  CE2      -16.5250  -33.3250  -47.6970 C.ar  510  PHE510     -0.0003
     88  CZ       -15.3550  -34.0090  -47.9710 C.ar  510  PHE510     -0.0000
     89  N        -14.2500  -34.4760  -58.3170 N.3   522  GLY522     -0.1210
     90  CA       -13.0610  -34.2290  -57.5010 C.3   522  GLY522      0.1956
     91  C        -13.3330  -34.3000  -56.0070 C.2   522  GLY522      0.2612
     92  O        -12.4060  -34.4890  -55.2070 O.2   522  GLY522     -0.2717
     93  N        -14.5970  -34.1190  -55.6440 N.am  523  GLY523     -0.1956
     94  CA       -15.0960  -34.1590  -54.2680 C.3   523  GLY523      0.1869
     95  C        -15.6830  -35.5110  -53.9500 C.2   523  GLY523      0.2309
     96  O        -14.9490  -36.4480  -53.5790 O.2   523  GLY523     -0.2863
     97  N        -14.1520  -38.7370  -55.7820 N.3   526  MET526     -0.1230
     98  CA       -12.9460  -39.1160  -55.0530 C.3   526  MET526      0.1702
     99  C        -13.2760  -39.9300  -53.7850 C.2   526  MET526      0.2592
    100  O        -12.6760  -40.9880  -53.5630 O.2   526  MET526     -0.2718
    101  CB       -12.1010  -37.8730  -54.7440 C.3   526  MET526      0.0401
    102  CG       -11.0900  -38.0520  -53.5790 C.3   526  MET526      0.0596
    103  SD        -9.7540  -39.1810  -54.0300 S.3   526  MET526     -0.1393
    104  CE        -9.1440  -39.5820  -52.4010 C.3   526  MET526      0.0692
    105  N        -14.2660  -39.4680  -52.9950 N.am  527  VAL527     -0.1980
    106  CA       -14.7170  -40.1260  -51.7700 C.3   527  VAL527      0.1595
    107  C        -15.2800  -41.5090  -52.0830 C.2   527  VAL527      0.2287
    108  O        -14.9890  -42.4620  -51.3520 O.2   527  VAL527     -0.2864
    109  CB       -15.7010  -39.2860  -50.9190 C.3   527  VAL527      0.0276
    110  CG1      -16.2240  -40.0850  -49.7400 C.3   527  VAL527      0.0022
    111  CG2      -15.0620  -37.9960  -50.4340 C.3   527  VAL527      0.0022
    112  N        -12.4080  -43.7400  -52.9840 N.3   530  HIS530     -0.1226
    113  CA       -11.7340  -44.0990  -51.7280 C.3   530  HIS530      0.1752
    114  C        -12.4520  -45.2640  -51.0490 C.2   530  HIS530      0.2595
    115  O        -11.7880  -46.2250  -50.6410 O.2   530  HIS530     -0.2718
    116  CB       -11.7010  -42.8600  -50.7730 C.3   530  HIS530      0.0759
    117  CG       -11.0070  -43.0720  -49.4500 C.ar  530  HIS530      0.0818
    118  ND1       -9.7340  -42.5930  -49.2320 N.ar  530  HIS530     -0.2268
    119  CD2      -11.4650  -43.6190  -48.3020 C.ar  530  HIS530      0.1154
    120  CE1       -9.4310  -42.9120  -47.9820 C.ar  530  HIS530      0.1986
    121  NE2      -10.4350  -43.5230  -47.3740 N.ar  530  HIS530     -0.2212
    122  N        -13.7940  -45.1790  -50.8870 N.am  531  GLU531     -0.1979
    123  CA       -14.5360  -46.2370  -50.2020 C.3   531  GLU531      0.1602
    124  C        -14.5610  -47.5770  -50.9720 C.2   531  GLU531      0.2287
    125  O        -14.5720  -48.6280  -50.3330 O.2   531  GLU531     -0.2864
    126  CB       -15.9570  -45.8000  -49.8110 C.3   531  GLU531      0.0415
    127  CG       -16.0330  -44.5950  -48.8840 C.3   531  GLU531      0.1163
    128  CD       -15.1830  -44.6240  -47.6230 C.2   531  GLU531      0.3649
    129  OE1      -14.8720  -45.7290  -47.1200 O.co2 531  GLU531     -0.2457
    130  OE2      -14.8000  -43.5280  -47.1580 O.co2 531  GLU531     -0.2457
    131  N        -11.2790  -49.3310  -50.5140 N.3   534  HIS534     -0.1241
    132  CA       -11.1160  -49.9700  -49.2040 C.3   534  HIS534      0.1621
    133  C        -11.4150  -51.4790  -49.2680 C.2   534  HIS534      0.2264
    134  O        -10.8820  -52.2340  -48.4630 O.2   534  HIS534     -0.2867
    135  CB       -11.9660  -49.2900  -48.1110 C.3   534  HIS534      0.0745
    136  CG       -11.2650  -48.1850  -47.3650 C.ar  534  HIS534      0.0817
    137  ND1       -9.9400  -48.2940  -46.9760 N.ar  534  HIS534     -0.2268
    138  CD2      -11.7480  -47.0050  -46.9150 C.ar  534  HIS534      0.1154
    139  CE1       -9.6550  -47.1720  -46.3440 C.ar  534  HIS534      0.1986
    140  NE2      -10.7180  -46.3800  -46.2590 N.ar  534  HIS534     -0.2212
    141  N         -5.3380  -46.2700  -45.8640 N.3   593  GLU593     -0.1245
    142  CA        -5.8870  -44.9780  -46.2780 C.3   593  GLU593      0.1567
    143  C         -5.2050  -44.3940  -47.4660 C.2   593  GLU593      0.2260
    144  O         -5.8990  -43.8310  -48.3150 O.2   593  GLU593     -0.2867
    145  CB        -5.9300  -43.9580  -45.1320 C.3   593  GLU593      0.0388
    146  CG        -6.8030  -44.4300  -43.9900 C.3   593  GLU593      0.1160
    147  CD        -8.2400  -44.7280  -44.3580 C.2   593  GLU593      0.3649
    148  OE1       -8.7640  -44.0950  -45.3080 O.co2 593  GLU593     -0.2457
    149  OE2       -8.8610  -45.5630  -43.6650 O.co2 593  GLU593     -0.2457
    150  N         -6.8180  -43.5040  -50.9740 N.3   597  ASP597     -0.1239
    151  CA        -6.7350  -42.1610  -51.5250 C.3   597  ASP597      0.1674
    152  C         -6.2140  -42.1850  -52.9410 C.2   597  ASP597      0.2266
    153  O         -6.7420  -41.4830  -53.8100 O.2   597  ASP597     -0.2867
    154  CB        -5.8380  -41.2520  -50.6620 C.3   597  ASP597      0.1410
    155  CG        -6.4280  -40.7710  -49.3360 C.2   597  ASP597      0.3668
    156  OD1       -7.6700  -40.8510  -49.1670 O.co2 597  ASP597     -0.2456
    157  OD2       -5.6680  -40.2440  -48.5180 O.co2 597  ASP597     -0.2456
    158  N        -10.5250  -31.0810  -55.1150 N.3   636  PHE636     -0.1241
    159  CA        -9.9730  -32.2350  -54.4420 C.3   636  PHE636      0.1605
    160  C         -9.0620  -31.7740  -53.2900 C.2   636  PHE636      0.2264
    161  O         -9.2230  -32.2170  -52.1520 O.2   636  PHE636     -0.2867
    162  CB        -9.1870  -33.0700  -55.4670 C.3   636  PHE636      0.0534
    163  CG        -8.2730  -34.1250  -54.8930 C.ar  636  PHE636     -0.0203
    164  CD1       -8.7640  -35.3770  -54.5380 C.ar  636  PHE636     -0.0042
    165  CD2       -6.9180  -33.8830  -54.7420 C.ar  636  PHE636     -0.0042
    166  CE1       -7.9130  -36.3500  -54.0090 C.ar  636  PHE636     -0.0003
    167  CE2       -6.0670  -34.8580  -54.2130 C.ar  636  PHE636     -0.0003
    168  CZ        -6.5640  -36.0840  -53.8670 C.ar  636  PHE636     -0.0000
    169  N        -10.6320  -29.7720  -50.0970 N.3   639  VAL639     -0.1231
    170  CA       -11.3450  -30.5780  -49.0810 C.3   639  VAL639      0.1692
    171  C        -10.4590  -30.5550  -47.8180 C.2   639  VAL639      0.2592
    172  O        -10.9690  -30.5060  -46.7020 O.2   639  VAL639     -0.2718
    173  CB       -11.5610  -32.0400  -49.5910 C.3   639  VAL639      0.0266
    174  CG1      -11.8810  -33.0000  -48.4480 C.3   639  VAL639      0.0020
    175  CG2      -12.6480  -32.1050  -50.6710 C.3   639  VAL639      0.0020
    176  N         -9.1220  -30.5230  -48.0170 N.am  640  TRP640     -0.1976
    177  CA        -8.2070  -30.5840  -46.8900 C.3   640  TRP640      0.1640
    178  C         -7.5230  -29.2600  -46.4980 C.2   640  TRP640      0.2290
    179  O         -6.6080  -29.3030  -45.6700 O.2   640  TRP640     -0.2864
    180  CB        -7.2040  -31.7180  -47.0950 C.3   640  TRP640      0.0576
    181  CG        -7.8860  -33.0340  -46.9140 C.ar  640  TRP640      0.0006
    182  CD1       -8.1320  -33.9610  -47.8770 C.ar  640  TRP640      0.0946
    183  CD2       -8.5590  -33.5000  -45.7260 C.ar  640  TRP640      0.0152
    184  NE1       -8.8760  -34.9960  -47.3570 N.ar  640  TRP640     -0.2442
    185  CE2       -9.1800  -34.7240  -46.0520 C.ar  640  TRP640      0.0810
    186  CE3       -8.7050  -32.9910  -44.4160 C.ar  640  TRP640      0.0012
    187  CZ2       -9.9460  -35.4490  -45.1270 C.ar  640  TRP640      0.0191
    188  CZ3       -9.4760  -33.7010  -43.5080 C.ar  640  TRP640      0.0001
    189  CH2      -10.0530  -34.9360  -43.8570 C.ar  640  TRP640      0.0015
    190  N         -4.1920  -41.7130  -35.7320 N.3   656  ASP656     -0.1239
    191  CA        -4.9920  -41.5970  -36.9550 C.3   656  ASP656      0.1674
    192  C         -4.4890  -42.5470  -38.0390 C.2   656  ASP656      0.2266
    193  O         -3.3060  -42.5110  -38.3600 O.2   656  ASP656     -0.2867
    194  CB        -5.0490  -40.1480  -37.4620 C.3   656  ASP656      0.1410
    195  CG        -6.2230  -39.8610  -38.4150 C.2   656  ASP656      0.3668
    196  OD1       -6.9000  -40.8280  -38.8440 O.co2 656  ASP656     -0.2456
    197  OD2       -6.4740  -38.6800  -38.7030 O.co2 656  ASP656     -0.2456
    198  N         -5.3740  -42.2360  -41.0930 N.3   658  HIS658     -0.1241
    199  CA        -5.2520  -41.3600  -42.2520 C.3   658  HIS658      0.1621
    200  C         -4.0050  -40.5660  -42.1330 C.2   658  HIS658      0.2264
    201  O         -3.6260  -40.2000  -41.0130 O.2   658  HIS658     -0.2867
    202  CB        -6.4190  -40.3540  -42.3060 C.3   658  HIS658      0.0745
    203  CG        -7.7520  -41.0160  -42.3000 C.ar  658  HIS658      0.0817
    204  ND1       -8.4390  -41.2420  -41.1250 N.ar  658  HIS658     -0.2268
    205  CD2       -8.4420  -41.5500  -43.3180 C.ar  658  HIS658      0.1154
    206  CE1       -9.5500  -41.8760  -41.4670 C.ar  658  HIS658      0.1986
    207  NE2       -9.5840  -42.1050  -42.7720 N.ar  658  HIS658     -0.2212
    208  N         -2.0800  -36.0760  -47.6680 N.3   664  ARG664     -0.1231
    209  CA        -3.0280  -36.8390  -48.4830 C.3   664  ARG664      0.1694
    210  C         -3.0620  -36.1770  -49.8460 C.2   664  ARG664      0.2591
    211  O         -3.0640  -36.8830  -50.8530 O.2   664  ARG664     -0.2718
    212  CB        -4.4340  -36.8170  -47.8820 C.3   664  ARG664      0.0321
    213  CG        -4.5440  -37.5820  -46.6060 C.3   664  ARG664      0.0489
    214  CD        -5.9390  -37.4910  -46.0740 C.3   664  ARG664      0.2205
    215  NE        -6.7690  -38.5750  -46.5810 N.pl3 664  ARG664     -0.0865
    216  CZ        -7.9100  -38.9310  -46.0280 C.cat 664  ARG664      0.5346
    217  NH1       -8.3510  -38.3040  -44.9430 N.pl3 664  ARG664      0.1354
    218  NH2       -8.6350  -39.8980  -46.5600 N.pl3 664  ARG664      0.1354
    219  N         -3.0240  -34.8180  -49.8660 N.am  665  ILE665     -0.1980
    220  CA        -3.0130  -33.9750  -51.0620 C.3   665  ILE665      0.1595
    221  C         -1.6750  -34.1060  -51.7730 C.2   665  ILE665      0.2287
    222  O         -1.6680  -34.4120  -52.9600 O.2   665  ILE665     -0.2864
    223  CB        -3.4170  -32.4920  -50.7800 C.3   665  ILE665      0.0276
    224  CG1       -4.8550  -32.3690  -50.1980 C.3   665  ILE665      0.0022
    225  CG2       -3.2770  -31.5760  -52.0330 C.3   665  ILE665      0.0022
    226  CD1       -5.9130  -33.3220  -50.7810 C.3   665  ILE665      0.0001
@<TRIPOS>BOND
     1    89    90    1
     2    90    91    1
     3    91    93   am
     4    91    92    2
     5    97    98    1
     6    93    94    1
     7   162   163    1
     8   162   159    1
     9   158   159    1
    10    98   101    1
    11    98    99    1
    12   163   165   ar
    13   163   164   ar
    14   101   102    1
    15   165   167   ar
    16   164   166   ar
    17   159   160    1
    18    94    95    1
    19    81    80    2
    20   167   168   ar
    21   103   102    1
    22   103   104    1
    23   166   168   ar
    24    95    96    2
    25   153   152    2
    26    99   100    2
    27    99   105   am
    28   160   161    2
    29    80    79    1
    30   105   106    1
    31   112   113    1
    32   222   221    2
    33   152   151    1
    34   107   106    1
    35   107   108    2
    36   225   223    1
    37    79    78    1
    38    79    82    1
    39   221   220    1
    40   106   109    1
    41   113   114    1
    42   113   116    1
    43   151   150    1
    44   151   154    1
    45   220   223    1
    46   220   219    1
    47   114   122   am
    48   114   115    2
    49   124   125    2
    50   124   123    1
    51    82    83    1
    52   109   111    1
    53   109   110    1
    54   122   123    1
    55   211   210    2
    56   226   224    1
    57   223   224    1
    58   116   117    1
    59   175   173    1
    60   154   155    1
    61   131   132    1
    62   123   126    1
    63    84    83   ar
    64    84    86   ar
    65   169   170    1
    66    83    85   ar
    67   219   210   am
    68   210   209    1
    69   126   127    1
    70   173   170    1
    71   173   174    1
    72   117   118   ar
    73   117   119   ar
    74   155   156   ar
    75   155   157   ar
    76   133   132    1
    77   133   134    2
    78   118   120   ar
    79    86    88   ar
    80   132   135    1
    81    66    64   ar
    82    66    68   ar
    83   170   171    1
    84    69    68    1
    85    73    72    2
    86   127   128    1
    87    64    63   ar
    88    85    87   ar
    89    68    67   ar
    90   209   212    1
    91   209   208    1
    92   144   143    2
    93   119   121   ar
    94    72    71    1
    95   135   136    1
    96   176   171   am
    97   176   177    1
    98   120   121   ar
    99    88    87   ar
   100   212   213    1
   101   182   184   ar
   102   182   181   ar
   103   171   172    2
   104    76    74    1
   105    63    62    1
   106    63    65   ar
   107   128   130   ar
   108   128   129   ar
   109    67    65   ar
   110   143   142    1
   111   136   137   ar
   112   136   138   ar
   113   184   185   ar
   114    75    77    1
   115    75    74    1
   116    46    43    1
   117   180   181    1
   118   180   177    1
   119    62    59    1
   120   137   139   ar
   121    50    49    2
   122   138   140   ar
   123   181   183   ar
   124   177   178    1
   125    74    71    1
   126    71    70    1
   127   213   214    1
   128   215   214    1
   129   215   216    2
   130   218   216    1
   131   178   179    2
   132   139   140   ar
   133   142   141    1
   134   142   145    1
   135    59    58    1
   136    59    60    1
   137   185   183   ar
   138   185   187   ar
   139   216   217    1
   140    49    58   am
   141    49    48    1
   142   183   186   ar
   143    43    44    1
   144    43    42    1
   145    47    44   am
   146    47    48    1
   147   148   147   ar
   148    44    45    2
   149    60    61    2
   150   145   146    1
   151   187   189   ar
   152    48    51    1
   153    37    36    2
   154    42    36   am
   155    18    20   ar
   156    18    17   ar
   157    20    22   ar
   158    36    35    1
   159   186   188   ar
   160   147   146    1
   161   147   149   ar
   162    12    13    1
   163   189   188   ar
   164    51    52    1
   165    16    13    1
   166    16    17    1
   167    13    14    1
   168    17    19   ar
   169    35    34    1
   170    35    38    1
   171   205   207   ar
   172   205   203   ar
   173    22    21   ar
   174    54    52   ar
   175    54    56   ar
   176   207   206   ar
   177    52    53   ar
   178    40    39    2
   179    19    21   ar
   180   202   203    1
   181   202   199    1
   182   203   204   ar
   183   199   200    1
   184   199   198    1
   185    14    15    2
   186   200   201    2
   187    38    39    1
   188    56    57   ar
   189    39    41   am
   190    53    55   ar
   191   206   204   ar
   192    57    55   ar
   193    23    24    1
   194    33    31    1
   195    10     9    1
   196    30    31    2
   197    30    29    1
   198    31    32    1
   199    11     9    1
   200    28    29    1
   201    28    27    1
   202     9     8    2
   203    24    27    1
   204    24    25    1
   205   196   195   ar
   206     8     7    1
   207   197   195   ar
   208     7     6    1
   209   195   194    1
   210   193   192    2
   211    25    26    2
   212   192   191    1
   213     6     5    1
   214   194   191    1
   215   191   190    1
   216     3     4    2
   217     3     2    1
   218     5     2    1
   219     2     1    1
