@<TRIPOS>MOLECULE
tmp/5jn2A00.pdb
 195 182 0 0 0
SMALL
GASTEIGER

@<TRIPOS>ATOM
      1  N         -1.4150  -14.4610   98.9550 N.3    15  LEU15      -0.1231
      2  CA        -1.4500  -14.8750   97.5470 C.3    15  LEU15       0.1693
      3  C         -1.5570  -13.6640   96.6050 C.2    15  LEU15       0.2593
      4  O         -0.9080  -13.6590   95.5590 O.2    15  LEU15      -0.2718
      5  CB        -2.6100  -15.8510   97.2840 C.3    15  LEU15       0.0284
      6  CG        -2.4460  -17.2370   97.9180 C.3    15  LEU15       0.0019
      7  CD1       -3.7730  -17.9820   97.9750 C.3    15  LEU15       0.0001
      8  CD2       -1.3900  -18.0690   97.1830 C.3    15  LEU15       0.0001
      9  N         -2.3510  -12.6600   96.9760 N.am   16  GLY16      -0.1942
     10  CA        -2.5120  -11.4550   96.1660 C.3    16  GLY16       0.2014
     11  C         -3.7220  -10.6170   96.5250 C.2    16  GLY16       0.2639
     12  O         -4.4810  -10.9740   97.4280 O.2    16  GLY16      -0.2714
     13  N         -3.9060   -9.4870   95.8110 N.am   17  LYS17      -0.1963
     14  CA        -5.0350   -8.5740   96.0120 C.3    17  LYS17       0.1728
     15  C         -6.0430   -8.7720   94.8770 C.2    17  LYS17       0.2616
     16  O         -5.7960   -8.3340   93.7510 O.2    17  LYS17      -0.2715
     17  CB        -4.5510   -7.1060   96.0670 C.3    17  LYS17       0.0311
     18  CG        -5.6640   -6.0440   96.1970 C.3    17  LYS17       0.0038
     19  CD        -6.5140   -6.1950   97.4660 C.3    17  LYS17       0.0206
     20  CE        -7.6270   -5.1730   97.5590 C.3    17  LYS17       0.1093
     21  NZ        -8.6640   -5.3470   96.5000 N.3    17  LYS17      -0.1314
     22  N         -7.1640   -9.4190   95.1890 N.am   18  GLY18      -0.1955
     23  CA        -8.2340   -9.6830   94.2340 C.3    18  GLY18       0.1869
     24  C         -9.3530   -8.6690   94.3380 C.2    18  GLY18       0.2309
     25  O         -9.2230   -7.6660   95.0460 O.2    18  GLY18      -0.2863
     26  N         -6.3410  -11.8110   99.2810 N.3    23  VAL23      -0.1245
     27  CA        -6.4060  -13.2720   99.1660 C.3    23  VAL23       0.1561
     28  C         -5.2370  -13.8690   99.9480 C.2    23  VAL23       0.2260
     29  O         -4.0860  -13.5720   99.6290 O.2    23  VAL23      -0.2867
     30  CB        -6.3770  -13.7350   97.6940 C.3    23  VAL23       0.0252
     31  CG1       -6.6250  -15.2380   97.5990 C.3    23  VAL23       0.0019
     32  CG2       -7.4040  -12.9720   96.8650 C.3    23  VAL23       0.0019
     33  N         -7.4940  -21.1020   99.8730 N.3    36  ALA36      -0.1245
     34  CA        -7.3130  -19.7100   99.4540 C.3    36  ALA36       0.1562
     35  C         -8.4930  -18.9520  100.0340 C.2    36  ALA36       0.2260
     36  O         -9.6360  -19.2970   99.7330 O.2    36  ALA36      -0.2867
     37  CB        -7.3210  -19.6080   97.9420 C.3    36  ALA36       0.0290
     38  N        -10.4440  -15.3680  100.4850 N.3    38  LYS38      -0.1245
     39  CA       -10.6380  -13.9760  100.0900 C.3    38  LYS38       0.1561
     40  C        -11.2480  -13.2610  101.2970 C.2    38  LYS38       0.2260
     41  O        -12.3260  -13.6460  101.7490 O.2    38  LYS38      -0.2867
     42  CB       -11.5400  -13.8600   98.8490 C.3    38  LYS38       0.0271
     43  CG       -11.9630  -12.4310   98.5260 C.3    38  LYS38       0.0035
     44  CD       -12.3330  -12.2500   97.0620 C.3    38  LYS38       0.0206
     45  CE       -11.1240  -12.0070   96.1890 C.3    38  LYS38       0.1093
     46  NZ       -11.4700  -12.0120   94.7490 N.3    38  LYS38      -0.1314
     47  N        -24.0050  -21.8100   96.3510 N.3    61  LEU61      -0.1245
     48  CA       -22.6340  -21.8960   95.8140 C.3    61  LEU61       0.1561
     49  C        -21.8080  -23.0480   96.4370 C.2    61  LEU61       0.2260
     50  O        -21.0250  -23.6710   95.7230 O.2    61  LEU61      -0.2867
     51  CB       -21.8810  -20.5710   96.0340 C.3    61  LEU61       0.0270
     52  CG       -22.3030  -19.4200   95.1220 C.3    61  LEU61       0.0019
     53  CD1      -21.9090  -18.0800   95.7210 C.3    61  LEU61       0.0001
     54  CD2      -21.7060  -19.5720   93.7320 C.3    61  LEU61       0.0001
     55  N        -15.0800  -24.1940   87.6070 N.3    69  ILE69      -0.1231
     56  CA       -15.5550  -23.2230   88.5900 C.3    69  ILE69       0.1692
     57  C        -14.7870  -23.4320   89.8880 C.2    69  ILE69       0.2591
     58  O        -14.6680  -24.5670   90.3480 O.2    69  ILE69      -0.2718
     59  CB       -17.0840  -23.3810   88.8070 C.3    69  ILE69       0.0266
     60  CG1      -17.8660  -23.0620   87.5000 C.3    69  ILE69       0.0019
     61  CG2      -17.5760  -22.4900   89.9560 C.3    69  ILE69       0.0020
     62  CD1      -17.7540  -21.6140   86.9740 C.3    69  ILE69       0.0001
     63  N        -14.2880  -22.3390   90.4930 N.am   70  MET70      -0.1979
     64  CA       -13.5670  -22.4160   91.7640 C.3    70  MET70       0.1605
     65  C        -14.5460  -22.8180   92.8690 C.2    70  MET70       0.2287
     66  O        -15.6060  -22.2110   93.0010 O.2    70  MET70      -0.2864
     67  CB       -12.9080  -21.0730   92.0930 C.3    70  MET70       0.0413
     68  CG       -12.0580  -21.0970   93.3570 C.3    70  MET70       0.0598
     69  SD       -12.7820  -20.1820   94.7250 S.3    70  MET70      -0.1393
     70  CE       -11.4080  -20.0010   95.7140 C.3    70  MET70       0.0692
     71  N        -16.1890  -23.0950   96.4400 N.3    72  LEU72      -0.1245
     72  CA       -16.3270  -22.3380   97.6840 C.3    72  LEU72       0.1561
     73  C        -16.6300  -23.3760   98.7690 C.2    72  LEU72       0.2260
     74  O        -17.6880  -24.0010   98.7280 O.2    72  LEU72      -0.2867
     75  CB       -17.4780  -21.3150   97.5750 C.3    72  LEU72       0.0270
     76  CG       -17.7140  -20.4180   98.8050 C.3    72  LEU72       0.0019
     77  CD1      -16.5940  -19.4070   98.9750 C.3    72  LEU72       0.0001
     78  CD2      -19.0440  -19.6940   98.7030 C.3    72  LEU72       0.0001
     79  N        -14.2710  -15.7600  102.5230 N.3    84  LEU84      -0.1245
     80  CA       -14.7310  -16.7160  101.5190 C.3    84  LEU84       0.1561
     81  C        -13.6230  -17.7430  101.3250 C.2    84  LEU84       0.2260
     82  O        -12.6090  -17.4360  100.7000 O.2    84  LEU84      -0.2867
     83  CB       -15.0290  -15.9950  100.2030 C.3    84  LEU84       0.0270
     84  CG       -16.3090  -15.1710  100.1490 C.3    84  LEU84       0.0019
     85  CD1      -16.3990  -14.1610  101.2850 C.3    84  LEU84       0.0001
     86  CD2      -16.3900  -14.4500   98.8590 C.3    84  LEU84       0.0001
     87  N        -12.0330  -21.0730   99.8130 N.3    86  GLY86      -0.1210
     88  CA       -12.0930  -21.9650   98.6600 C.3    86  GLY86       0.1956
     89  C        -10.7900  -22.6810   98.3680 C.2    86  GLY86       0.2612
     90  O         -9.8260  -22.5770   99.1290 O.2    86  GLY86      -0.2717
     91  N        -10.7690  -23.4370   97.2640 N.am   87  GLU87      -0.1965
     92  CA        -9.6110  -24.2410   96.8670 C.3    87  GLU87       0.1733
     93  C         -8.4660  -23.3710   96.3330 C.2    87  GLU87       0.2616
     94  O         -8.7180  -22.2950   95.7900 O.2    87  GLU87      -0.2715
     95  CB       -10.0330  -25.2610   95.8000 C.3    87  GLU87       0.0429
     96  CG        -9.0250  -26.3710   95.5610 C.3    87  GLU87       0.1163
     97  CD        -9.5700  -27.5290   94.7490 C.2    87  GLU87       0.3649
     98  OE1      -10.4650  -27.2980   93.9030 O.co2  87  GLU87      -0.2457
     99  OE2       -9.0910  -28.6680   94.9480 O.co2  87  GLU87      -0.2457
    100  N         -7.2120  -23.8600   96.4930 N.am   88  VAL88      -0.1963
    101  CA        -6.0220  -23.1410   96.0350 C.3    88  VAL88       0.1727
    102  C         -5.6240  -23.6620   94.6470 C.2    88  VAL88       0.2616
    103  O         -5.6770  -24.8660   94.3940 O.2    88  VAL88      -0.2715
    104  CB        -4.8420  -23.2310   97.0510 C.3    88  VAL88       0.0290
    105  CG1       -4.1880  -24.6160   97.0710 C.3    88  VAL88       0.0023
    106  CG2       -3.7990  -22.1510   96.7750 C.3    88  VAL88       0.0023
    107  N         -5.2030  -22.7380   93.7620 N.am   89  TYR89      -0.1974
    108  CA        -4.7470  -23.0490   92.4050 C.3    89  TYR89       0.1639
    109  C         -3.4270  -22.3070   92.2170 C.2    89  TYR89       0.2290
    110  O         -3.3580  -21.1100   92.4830 O.2    89  TYR89      -0.2864
    111  CB        -5.7930  -22.6510   91.3520 C.3    89  TYR89       0.0560
    112  CG        -7.1550  -23.2700   91.5960 C.ar   89  TYR89      -0.0198
    113  CD1       -7.2950  -24.6390   91.7990 C.ar   89  TYR89      -0.0009
    114  CD2       -8.3030  -22.4880   91.6230 C.ar   89  TYR89      -0.0009
    115  CE1       -8.5390  -25.2090   92.0580 C.ar   89  TYR89       0.0417
    116  CE2       -9.5530  -23.0490   91.8690 C.ar   89  TYR89       0.0417
    117  CZ        -9.6710  -24.4120   92.0740 C.ar   89  TYR89       0.1957
    118  OH       -10.9130  -24.9510   92.3290 O.3    89  TYR89      -0.2866
    119  N         -2.4930  -16.7560   86.5510 N.3    93  GLU93      -0.1245
    120  CA        -3.4990  -16.2240   85.6280 C.3    93  GLU93       0.1567
    121  C         -3.2780  -16.7840   84.2180 C.2    93  GLU93       0.2260
    122  O         -2.1340  -16.9540   83.7980 O.2    93  GLU93      -0.2867
    123  CB        -3.4600  -14.6860   85.5940 C.3    93  GLU93       0.0388
    124  CG        -3.9640  -14.0230   86.8640 C.3    93  GLU93       0.1160
    125  CD        -3.7220  -12.5260   86.9430 C.2    93  GLU93       0.3649
    126  OE1       -3.5580  -11.8830   85.8810 O.co2  93  GLU93      -0.2457
    127  OE2       -3.7150  -11.9910   88.0750 O.co2  93  GLU93      -0.2457
    128  N        -23.0520  -22.4640   85.4860 N.3   123  MET123     -0.1245
    129  CA       -23.4530  -21.4630   86.4840 C.3   123  MET123      0.1570
    130  C        -24.7430  -20.7440   86.0750 C.2   123  MET123      0.2261
    131  O        -25.5490  -20.4330   86.9500 O.2   123  MET123     -0.2867
    132  CB       -22.3360  -20.4360   86.7200 C.3   123  MET123      0.0387
    133  CG       -21.0930  -21.0360   87.3530 C.3   123  MET123      0.0595
    134  SD       -21.3800  -21.9080   88.9080 S.3   123  MET123     -0.1393
    135  CE       -21.0740  -20.6200   90.0550 C.3   123  MET123      0.0692
    136  N         -8.1000  -11.8540   84.5660 N.3   136  GLU136     -0.1245
    137  CA        -7.6170  -11.9470   85.9520 C.3   136  GLU136      0.1567
    138  C         -8.3960  -13.0200   86.7480 C.2   136  GLU136      0.2260
    139  O         -7.8160  -13.6570   87.6310 O.2   136  GLU136     -0.2867
    140  CB        -7.7620  -10.5650   86.6260 C.3   136  GLU136      0.0388
    141  CG        -7.3370  -10.4600   88.0840 C.3   136  GLU136      0.1160
    142  CD        -7.7290   -9.1430   88.7260 C.2   136  GLU136      0.3649
    143  OE1       -7.8190   -8.1250   88.0010 O.co2 136  GLU136     -0.2457
    144  OE2       -7.9670   -9.1340   89.9550 O.co2 136  GLU136     -0.2457
    145  N         -8.0040  -18.6110   86.3310 N.3   139  LEU139     -0.1245
    146  CA        -6.7930  -19.1890   86.9130 C.3   139  LEU139      0.1561
    147  C         -6.6000  -20.6030   86.4190 C.2   139  LEU139      0.2260
    148  O         -7.5740  -21.2960   86.1560 O.2   139  LEU139     -0.2867
    149  CB        -6.8690  -19.1940   88.4440 C.3   139  LEU139      0.0270
    150  CG        -7.0970  -17.8500   89.1190 C.3   139  LEU139      0.0019
    151  CD1       -7.0560  -18.0030   90.6160 C.3   139  LEU139      0.0001
    152  CD2       -6.0610  -16.8220   88.6790 C.3   139  LEU139      0.0001
    153  N        -12.6770  -20.5990   87.0050 N.3   151  ILE151     -0.1231
    154  CA       -13.1810  -19.2250   87.0730 C.3   151  ILE151      0.1692
    155  C        -13.4120  -18.8760   88.5430 C.2   151  ILE151      0.2592
    156  O        -14.1270  -19.6040   89.2290 O.2   151  ILE151     -0.2718
    157  CB       -14.4790  -19.0200   86.2430 C.3   151  ILE151      0.0266
    158  CG1      -14.3040  -19.5030   84.7820 C.3   151  ILE151      0.0019
    159  CG2      -14.8850  -17.5290   86.2460 C.3   151  ILE151      0.0020
    160  CD1      -15.6230  -19.7460   84.0600 C.3   151  ILE151      0.0001
    161  N        -12.8430  -17.7480   89.0100 N.am  152  ILE152     -0.1966
    162  CA       -12.9940  -17.2830   90.3950 C.3   152  ILE152      0.1727
    163  C        -13.9850  -16.1090   90.4450 C.2   152  ILE152      0.2616
    164  O        -14.2600  -15.4840   89.4200 O.2   152  ILE152     -0.2715
    165  CB       -11.6360  -16.8970   91.0520 C.3   152  ILE152      0.0290
    166  CG1      -10.8690  -15.8500   90.2290 C.3   152  ILE152      0.0022
    167  CG2      -10.7560  -18.1240   91.2390 C.3   152  ILE152      0.0023
    168  CD1       -9.8950  -15.0000   91.0640 C.3   152  ILE152      0.0001
    169  N        -14.5010  -15.8220   91.6550 N.am  153  ASP153     -0.1957
    170  CA       -15.4580  -14.7490   91.9710 C.3   153  ASP153      0.1840
    171  C        -16.8140  -14.9220   91.2470 C.2   153  ASP153      0.2622
    172  O        -17.5180  -13.9330   91.0370 O.2   153  ASP153     -0.2715
    173  CB       -14.8740  -13.3610   91.6370 C.3   153  ASP153      0.1450
    174  CG       -13.5730  -13.0560   92.3450 C.2   153  ASP153      0.3671
    175  OD1      -13.3600  -13.5930   93.4530 O.co2 153  ASP153     -0.2456
    176  OD2      -12.7950  -12.2270   91.8240 O.co2 153  ASP153     -0.2456
    177  N        -17.2260  -16.1650   90.9610 N.am  154  PHE154     -0.1974
    178  CA       -18.5070  -16.4010   90.2910 C.3   154  PHE154      0.1639
    179  C        -19.6560  -16.3010   91.3160 C.2   154  PHE154      0.2290
    180  O        -19.8840  -17.2370   92.0780 O.2   154  PHE154     -0.2864
    181  CB       -18.5150  -17.7700   89.5650 C.3   154  PHE154      0.0560
    182  CG       -19.1490  -17.7300   88.1920 C.ar  154  PHE154     -0.0200
    183  CD1      -20.4640  -17.3250   88.0280 C.ar  154  PHE154     -0.0042
    184  CD2      -18.4420  -18.1370   87.0690 C.ar  154  PHE154     -0.0042
    185  CE1      -21.0470  -17.2870   86.7620 C.ar  154  PHE154     -0.0003
    186  CE2      -19.0250  -18.0880   85.8030 C.ar  154  PHE154     -0.0003
    187  CZ       -20.3250  -17.6740   85.6590 C.ar  154  PHE154     -0.0000
    188  N        -20.1850  -13.0980   93.2890 N.3   156  LEU156     -0.1245
    189  CA       -19.9740  -12.0240   94.2750 C.3   156  LEU156      0.1561
    190  C        -20.6880  -10.7390   93.9010 C.2   156  LEU156      0.2260
    191  O        -21.3900  -10.1680   94.7350 O.2   156  LEU156     -0.2867
    192  CB       -18.4760  -11.7240   94.4260 C.3   156  LEU156      0.0270
    193  CG       -17.6220  -12.8790   94.9230 C.3   156  LEU156      0.0019
    194  CD1      -16.2150  -12.4030   95.2710 C.3   156  LEU156      0.0001
    195  CD2      -18.2610  -13.5490   96.1160 C.3   156  LEU156      0.0001
@<TRIPOS>BOND
     1   122   121    2
     2   160   158    1
     3   121   120    1
     4   136   137    1
     5   158   157    1
     6   128   129    1
     7   123   120    1
     8   123   124    1
     9   120   119    1
    10   187   186   ar
    11   187   185   ar
    12   186   184   ar
    13   126   125   ar
    14   137   140    1
    15   137   138    1
    16   130   129    1
    17   130   131    2
    18   148   147    2
    19   157   159    1
    20   157   154    1
    21   145   146    1
    22   147   146    1
    23   129   132    1
    24   140   141    1
    25   132   133    1
    26   138   139    2
    27   185   183   ar
    28   124   125    1
    29   146   149    1
    30   125   127   ar
    31    62    60    1
    32   153   154    1
    33   184   182   ar
    34   154   155    1
    35   133   134    1
    36    60    59    1
    37    55    56    1
    38   143   142   ar
    39   183   182   ar
    40   141   142    1
    41   182   181    1
    42   149   150    1
    43   155   161   am
    44   155   156    2
    45    56    59    1
    46    56    57    1
    47   152   150    1
    48   142   144   ar
    49    59    61    1
    50   134   135    1
    51   161   162    1
    52   150   151    1
    53   164   163    2
    54   181   178    1
    55    57    58    2
    56    57    63   am
    57   166   165    1
    58   166   168    1
    59   178   177    1
    60   178   179    1
    61   162   163    1
    62   162   165    1
    63   163   169   am
    64    63    64    1
    65   177   171   am
    66   172   171    2
    67   165   167    1
    68   171   170    1
    69   179   180    2
    70   111   112    1
    71   111   108    1
    72   112   114   ar
    73   112   113   ar
    74   114   116   ar
    75   173   170    1
    76   173   174    1
    77   169   170    1
    78    64    67    1
    79    64    65    1
    80   113   115   ar
    81   176   174   ar
    82   116   117   ar
    83   115   117   ar
    84   117   118    1
    85    67    68    1
    86   109   108    1
    87   109   110    2
    88   174   175   ar
    89   108   107    1
    90    65    66    2
    91   188   189    1
    92    68    69    1
    93    54    52    1
    94    16    15    2
    95   107   102   am
    96   190   189    1
    97   190   191    2
    98    98    97   ar
    99    23    24    1
   100    23    22    1
   101   189   192    1
   102    24    25    2
   103   103   102    2
   104   192   193    1
   105   102   101    1
   106    69    70    1
   107    97    99   ar
   108    97    96    1
   109    46    45    1
   110    15    22   am
   111    15    14    1
   112   193   194    1
   113   193   195    1
   114    52    53    1
   115    52    51    1
   116     4     3    2
   117    96    95    1
   118    50    49    2
   119    94    93    2
   120    95    92    1
   121    13    14    1
   122    13    11   am
   123    48    51    1
   124    48    47    1
   125    48    49    1
   126    14    17    1
   127   101   100    1
   128   101   104    1
   129    17    18    1
   130    10    11    1
   131    10     9    1
   132    45    44    1
   133    18    19    1
   134    93   100   am
   135    93    92    1
   136    71    72    1
   137    21    20    1
   138    11    12    2
   139     3     9   am
   140     3     2    1
   141   106   104    1
   142    32    30    1
   143    92    91    1
   144   104   105    1
   145    44    43    1
   146     8     6    1
   147    91    89   am
   148     5     2    1
   149     5     6    1
   150    19    20    1
   151     2     1    1
   152    75    72    1
   153    75    76    1
   154    31    30    1
   155    72    73    1
   156    30    27    1
   157     6     7    1
   158    37    34    1
   159    89    88    1
   160    89    90    2
   161    43    42    1
   162    88    87    1
   163    78    76    1
   164    74    73    2
   165    76    77    1
   166    42    39    1
   167    86    84    1
   168    27    26    1
   169    27    28    1
   170    34    33    1
   171    34    35    1
   172    29    28    2
   173    36    35    2
   174    39    38    1
   175    39    40    1
   176    84    83    1
   177    84    85    1
   178    83    80    1
   179    82    81    2
   180    40    41    2
   181    81    80    1
   182    80    79    1
