@<TRIPOS>MOLECULE
tmp/5jn7A00.pdb
 148 143 0 0 0
SMALL
GASTEIGER

@<TRIPOS>ATOM
      1  N         -9.0340    5.9830   81.1680 N.3    89  GLN89      -0.1245
      2  CA        -8.7850    4.8130   80.3400 C.3    89  GLN89       0.1566
      3  C         -9.0730    3.5380   81.1110 C.2    89  GLN89       0.2260
      4  O         -9.0830    3.5330   82.3420 O.2    89  GLN89      -0.2867
      5  CB        -7.3450    4.6740   79.8610 C.3    89  GLN89       0.0367
      6  CG        -6.3000    4.9200   80.9460 C.3    89  GLN89       0.0905
      7  CD        -5.4770    3.6780   81.1970 C.2    89  GLN89       0.2608
      8  OE1       -5.9170    2.5740   80.8520 O.2    89  GLN89      -0.2717
      9  NE2       -4.2490    3.8500   81.6630 N.am   89  GLN89      -0.0878
     10  N         -7.6540   -0.7520   80.8050 N.3    91  HIS91      -0.1241
     11  CA        -6.7720   -1.7130   80.1830 C.3    91  HIS91       0.1621
     12  C         -6.8450   -2.9990   80.9830 C.2    91  HIS91       0.2264
     13  O         -7.4910   -3.0570   82.0400 O.2    91  HIS91      -0.2867
     14  CB        -5.3230   -1.2300   80.1580 C.3    91  HIS91       0.0745
     15  CG        -4.7750   -0.9500   81.5280 C.ar   91  HIS91       0.0817
     16  ND1       -4.9920    0.2440   82.1900 N.ar   91  HIS91      -0.2268
     17  CD2       -4.1150   -1.7500   82.4000 C.ar   91  HIS91       0.1154
     18  CE1       -4.4280    0.1850   83.3870 C.ar   91  HIS91       0.1986
     19  NE2       -3.9060   -1.0210   83.5440 N.ar   91  HIS91      -0.2212
     20  N         -4.4580   -6.6840   82.2880 N.3    93  HIS93      -0.1241
     21  CA        -3.2590   -7.4910   82.4560 C.3    93  HIS93       0.1621
     22  C         -3.6930   -8.9430   82.3230 C.2    93  HIS93       0.2264
     23  O         -4.7520   -9.3130   82.8450 O.2    93  HIS93      -0.2867
     24  CB        -2.6590   -7.2450   83.8450 C.3    93  HIS93       0.0745
     25  CG        -2.3060   -5.8100   84.1110 C.ar   93  HIS93       0.0817
     26  ND1       -1.0830   -5.2630   83.7770 N.ar   93  HIS93      -0.2268
     27  CD2       -3.0800   -4.7720   84.5280 C.ar   93  HIS93       0.1154
     28  CE1       -1.0850   -3.9730   84.0860 C.ar   93  HIS93       0.1986
     29  NE2       -2.2870   -3.6470   84.5330 N.ar   93  HIS93      -0.2212
     30  N         -8.4580   -2.9250   84.7280 N.3   116  HIS116     -0.1241
     31  CA        -8.1870   -1.6990   85.4780 C.3   116  HIS116      0.1621
     32  C         -8.8830   -0.5330   84.7970 C.2   116  HIS116      0.2264
     33  O         -8.5190   -0.1580   83.6820 O.2   116  HIS116     -0.2867
     34  CB        -6.6770   -1.4570   85.5790 C.3   116  HIS116      0.0745
     35  CG        -5.9910   -2.4510   86.4580 C.ar  116  HIS116      0.0817
     36  ND1       -4.6270   -2.6690   86.4300 N.ar  116  HIS116     -0.2268
     37  CD2       -6.4910   -3.2750   87.4100 C.ar  116  HIS116      0.1154
     38  CE1       -4.3220   -3.5890   87.3280 C.ar  116  HIS116      0.1986
     39  NE2       -5.4310   -3.9650   87.9440 N.ar  116  HIS116     -0.2212
     40  N         -9.2320    3.2360   85.1110 N.3   118  VAL118     -0.1245
     41  CA        -8.3510    4.2230   85.7370 C.3   118  VAL118      0.1561
     42  C         -9.0690    5.5650   85.7920 C.2   118  VAL118      0.2260
     43  O         -9.5320    6.0680   84.7540 O.2   118  VAL118     -0.2867
     44  CB        -7.0340    4.3480   84.9510 C.3   118  VAL118      0.0252
     45  CG1       -6.1240    5.4240   85.5790 C.3   118  VAL118      0.0019
     46  CG2       -6.3280    2.9890   84.8160 C.3   118  VAL118      0.0019
     47  N         -4.5810   14.7410   84.5920 N.3   127  PHE127     -0.1227
     48  CA        -4.0580   13.4420   84.9990 C.3   127  PHE127      0.1736
     49  C         -2.5990   13.5420   85.4120 C.2   127  PHE127      0.2596
     50  O         -2.1720   12.8960   86.3780 O.2   127  PHE127     -0.2718
     51  CB        -4.2320   12.4500   83.8480 C.3   127  PHE127      0.0547
     52  CG        -3.6820   11.0900   84.1260 C.ar  127  PHE127     -0.0202
     53  CD1       -4.4070   10.1690   84.8660 C.ar  127  PHE127     -0.0042
     54  CD2       -2.4400   10.7230   83.6470 C.ar  127  PHE127     -0.0042
     55  CE1       -3.9110    8.9120   85.1200 C.ar  127  PHE127     -0.0003
     56  CE2       -1.9280    9.4620   83.9050 C.ar  127  PHE127     -0.0003
     57  CZ        -2.6750    8.5500   84.6420 C.ar  127  PHE127     -0.0000
     58  N         -1.8150   14.3500   84.6890 N.am  128  GLY128     -0.1957
     59  CA        -0.4080   14.4840   85.0210 C.3   128  GLY128      0.1869
     60  C         -0.1630   15.0680   86.4030 C.2   128  GLY128      0.2309
     61  O          0.8090   14.7060   87.0720 O.2   128  GLY128     -0.2863
     62  N         -1.2620   12.2000   89.2190 N.3   131  VAL131     -0.1245
     63  CA        -0.3730   11.0820   89.5420 C.3   131  VAL131      0.1561
     64  C          0.7210   11.4830   90.5150 C.2   131  VAL131      0.2260
     65  O          1.4190   10.6020   91.0370 O.2   131  VAL131     -0.2867
     66  CB         0.3020   10.4360   88.3090 C.3   131  VAL131      0.0252
     67  CG1       -0.7420    9.8480   87.3920 C.3   131  VAL131      0.0019
     68  CG2        1.2100   11.4090   87.5610 C.3   131  VAL131      0.0019
     69  N         -5.3430    9.1880   92.0910 N.3   137  LEU137     -0.1245
     70  CA        -6.0530    8.2570   91.2250 C.3   137  LEU137      0.1561
     71  C         -6.9470    7.3240   92.0280 C.2   137  LEU137      0.2260
     72  O         -6.7070    7.0480   93.2010 O.2   137  LEU137     -0.2867
     73  CB        -5.1200    7.3840   90.3770 C.3   137  LEU137      0.0270
     74  CG        -4.1390    8.0110   89.3780 C.3   137  LEU137      0.0019
     75  CD1       -3.4850    6.9360   88.4530 C.3   137  LEU137      0.0001
     76  CD2       -4.6020    9.2450   88.6360 C.3   137  LEU137      0.0001
     77  N         -8.3040    3.4660   90.9600 N.3   139  VAL139     -0.1245
     78  CA        -8.3690    2.4380   89.9320 C.3   139  VAL139      0.1561
     79  C         -9.3250    1.3590   90.4170 C.2   139  VAL139      0.2260
     80  O         -9.1760    0.8350   91.5320 O.2   139  VAL139     -0.2867
     81  CB        -6.9910    1.8400   89.5920 C.3   139  VAL139      0.0252
     82  CG1       -7.1590    0.7900   88.4920 C.3   139  VAL139      0.0019
     83  CG2       -6.0060    2.9130   89.1460 C.3   139  VAL139      0.0019
     84  N          0.5720    2.8300   91.0800 N.3   194  LEU194     -0.1231
     85  CA         0.5840    2.2850   89.7250 C.3   194  LEU194      0.1693
     86  C          1.3470    0.9660   89.7380 C.2   194  LEU194      0.2593
     87  O          2.3430    0.8190   90.4550 O.2   194  LEU194     -0.2718
     88  CB         1.2880    3.2560   88.7760 C.3   194  LEU194      0.0284
     89  CG         0.7650    4.6910   88.6830 C.3   194  LEU194      0.0019
     90  CD1        1.6580    5.5360   87.7650 C.3   194  LEU194      0.0001
     91  CD2       -0.6860    4.7480   88.2450 C.3   194  LEU194      0.0001
     92  N          0.9150    0.0030   88.9200 N.am  195  THR195     -0.1939
     93  CA         1.5930   -1.2940   88.8920 C.3   195  THR195      0.2028
     94  C          2.5980   -1.4250   87.7590 C.2   195  THR195      0.2643
     95  O          3.1580   -2.5130   87.5780 O.2   195  THR195     -0.2714
     96  CB         0.5960   -2.4490   88.7670 C.3   195  THR195      0.1808
     97  OG1       -0.0540   -2.3620   87.4920 O.3   195  THR195     -0.2208
     98  CG2       -0.4550   -2.4050   89.8890 C.3   195  THR195      0.0379
     99  N          2.8480   -0.3470   87.0320 N.am  196  THR196     -0.1937
    100  CA         3.9070   -0.3330   86.0380 C.3   196  THR196      0.2013
    101  C          4.7040    0.9410   86.2450 C.2   196  THR196      0.2484
    102  O          4.1590    1.9370   86.7190 O.2   196  THR196     -0.2729
    103  CB         3.3440   -0.3650   84.6040 C.3   196  THR196      0.1807
    104  OG1        4.4120   -0.5790   83.6740 O.3   196  THR196     -0.2208
    105  CG2        2.6410    0.9440   84.2730 C.3   196  THR196      0.0379
    106  N          5.9890    0.9300   85.9090 N.am  197  PRO197     -0.2715
    107  CA         6.7300    2.1870   85.9910 C.3   197  PRO197      0.1521
    108  C          5.8820    3.3440   85.4580 C.2   197  PRO197      0.2440
    109  O          5.1490    3.1680   84.4690 O.2   197  PRO197     -0.2731
    110  CB         7.9550    1.9070   85.1270 C.3   197  PRO197      0.0310
    111  CG         8.1820    0.4320   85.3090 C.3   197  PRO197      0.0237
    112  CD         6.7900   -0.1660   85.3320 C.3   197  PRO197      0.0939
    113  N          5.9460    4.5140   86.1040 N.am  198  PRO198     -0.2727
    114  CA         6.8580    4.9250   87.1840 C.3   198  PRO198      0.1402
    115  C          6.4610    4.4950   88.6030 C.2   198  PRO198      0.2269
    116  O          7.0980    4.9530   89.5540 O.2   198  PRO198     -0.2865
    117  CB         6.8440    6.4510   87.0780 C.3   198  PRO198      0.0296
    118  CG         5.5110    6.7700   86.5330 C.3   198  PRO198      0.0237
    119  CD         5.1480    5.6460   85.5930 C.3   198  PRO198      0.0939
    120  N          4.2000    5.1670   90.6630 N.3   200  LEU200     -0.1245
    121  CA         3.8910    6.2520   91.5940 C.3   200  LEU200      0.1561
    122  C          2.8350    5.8380   92.6130 C.2   200  LEU200      0.2260
    123  O          1.8590    5.1540   92.2890 O.2   200  LEU200     -0.2867
    124  CB         3.4100    7.4790   90.8170 C.3   200  LEU200      0.0270
    125  CG         4.4740    8.0790   89.9040 C.3   200  LEU200      0.0019
    126  CD1        3.8750    9.1600   89.0180 C.3   200  LEU200      0.0001
    127  CD2        5.5790    8.6680   90.7530 C.3   200  LEU200      0.0001
    128  N         -2.5090    5.8930   94.0960 N.3   203  VAL203     -0.1245
    129  CA        -3.7400    5.1750   93.7510 C.3   203  VAL203      0.1561
    130  C         -4.4820    4.7270   95.0070 C.2   203  VAL203      0.2260
    131  O         -3.9080    4.0470   95.8740 O.2   203  VAL203     -0.2867
    132  CB        -3.4580    3.9440   92.8720 C.3   203  VAL203      0.0252
    133  CG1       -4.7640    3.2330   92.5850 C.3   203  VAL203      0.0019
    134  CG2       -2.7210    4.3110   91.5720 C.3   203  VAL203      0.0019
    135  N         -6.8180    1.9330   95.5330 N.3   205  TRP205     -0.1241
    136  CA        -7.2860    0.7390   94.8470 C.3   205  TRP205      0.1605
    137  C         -8.6490    0.3140   95.3470 C.2   205  TRP205      0.2264
    138  O         -8.8880    0.2560   96.5580 O.2   205  TRP205     -0.2867
    139  CB        -6.2850   -0.4120   95.0100 C.3   205  TRP205      0.0550
    140  CG        -5.1980   -0.2800   94.0190 C.ar  205  TRP205      0.0003
    141  CD1       -3.9820    0.3170   94.1800 C.ar  205  TRP205      0.0946
    142  CD2       -5.2730   -0.6950   92.6520 C.ar  205  TRP205      0.0152
    143  NE1       -3.2870    0.2890   92.9890 N.ar  205  TRP205     -0.2442
    144  CE2       -4.0650   -0.3180   92.0340 C.ar  205  TRP205      0.0810
    145  CE3       -6.2620   -1.3380   91.8870 C.ar  205  TRP205      0.0012
    146  CZ2       -3.7970   -0.5910   90.6930 C.ar  205  TRP205      0.0191
    147  CZ3       -6.0010   -1.6150   90.5520 C.ar  205  TRP205      0.0001
    148  CH2       -4.7840   -1.2420   89.9680 C.ar  205  TRP205      0.0015
@<TRIPOS>BOND
     1     5     2    1
     2     5     6    1
     3    14    11    1
     4    14    15    1
     5    11    10    1
     6    11    12    1
     7     2     3    1
     8     2     1    1
     9     8     7    2
    10     6     7    1
    11    12    13    2
    12     3     4    2
    13     7     9   am
    14    15    16   ar
    15    15    17   ar
    16    16    18   ar
    17    20    21    1
    18    22    21    1
    19    22    23    2
    20    17    19   ar
    21    21    24    1
    22    18    19   ar
    23    54    56   ar
    24    54    52   ar
    25   104   103    1
    26    33    32    2
    27    26    28   ar
    28    26    25   ar
    29    24    25    1
    30    51    52    1
    31    51    48    1
    32    56    57   ar
    33    28    29   ar
    34    25    27   ar
    35    52    53   ar
    36   105   103    1
    37   109   108    2
    38    27    29   ar
    39    47    48    1
    40   103   100    1
    41    57    55   ar
    42    58    59    1
    43    58    49   am
    44    30    31    1
    45    43    42    2
    46    32    31    1
    47    46    44    1
    48    53    55   ar
    49    44    45    1
    50    44    41    1
    51    48    49    1
    52    59    60    1
    53    40    41    1
    54   110   111    1
    55   110   107    1
    56   111   112    1
    57   112   106    1
    58    49    50    2
    59   108   107    1
    60   108   113   am
    61    31    34    1
    62    34    35    1
    63   119   113    1
    64   119   118    1
    65    41    42    1
    66   106   107    1
    67   106   101   am
    68   100   101    1
    69   100    99    1
    70   113   114    1
    71   101   102    2
    72    60    61    2
    73    36    35   ar
    74    36    38   ar
    75    35    37   ar
    76   118   117    1
    77    99    94   am
    78   117   114    1
    79   114   115    1
    80    38    39   ar
    81    67    66    1
    82    37    39   ar
    83    97    96    1
    84    68    66    1
    85    95    94    2
    86    94    93    1
    87    90    89    1
    88    91    89    1
    89    66    63    1
    90    75    74    1
    91    82    81    1
    92   115   116    2
    93    76    74    1
    94    89    88    1
    95    96    93    1
    96    96    98    1
    97    88    85    1
    98    93    92    1
    99    92    86   am
   100   126   125    1
   101    83    81    1
   102    62    63    1
   103    74    73    1
   104    63    64    1
   105    81    78    1
   106    85    86    1
   107    85    84    1
   108    86    87    2
   109   125   127    1
   110   125   124    1
   111    78    79    1
   112    78    77    1
   113   148   147   ar
   114   148   146   ar
   115    73    70    1
   116    79    80    2
   117    64    65    2
   118   147   145   ar
   119   120   121    1
   120   146   144   ar
   121   124   121    1
   122    70    71    1
   123    70    69    1
   124   134   132    1
   125   121   122    1
   126   145   142   ar
   127    71    72    2
   128   144   142   ar
   129   144   143   ar
   130   123   122    2
   131   133   132    1
   132   142   140   ar
   133   132   129    1
   134   143   141   ar
   135   129   128    1
   136   129   130    1
   137   140   141   ar
   138   140   139    1
   139   136   139    1
   140   136   137    1
   141   136   135    1
   142   130   131    2
   143   137   138    2
