@<TRIPOS>MOLECULE
tmp/5jn9A00.pdb
 111 108 0 0 0
SMALL
GASTEIGER

@<TRIPOS>ATOM
      1  N         37.8020   18.0250   15.7650 N.3    95  GLN95      -0.1245
      2  CA        37.7590   17.0570   14.6780 C.3    95  GLN95       0.1566
      3  C         36.3550   16.6360   14.3520 C.2    95  GLN95       0.2260
      4  O         35.4690   16.6590   15.2230 O.2    95  GLN95      -0.2867
      5  CB        38.6350   15.8570   14.9770 C.3    95  GLN95       0.0367
      6  CG        38.3600   15.1800   16.2990 C.3    95  GLN95       0.0905
      7  CD        37.7260   13.8190   16.1330 C.2    95  GLN95       0.2608
      8  OE1       37.1360   13.5100   15.0740 O.2    95  GLN95      -0.2717
      9  NE2       37.8600   12.9790   17.1680 N.am   95  GLN95      -0.0878
     10  N         34.3280   13.3600   12.2600 N.3    97  HIS97      -0.1241
     11  CA        34.4770   12.0270   11.6460 C.3    97  HIS97       0.1621
     12  C         33.1470   11.3480   11.4590 C.2    97  HIS97       0.2264
     13  O         32.0950   11.9270   11.7530 O.2    97  HIS97      -0.2867
     14  CB        35.4460   11.1570   12.4680 C.3    97  HIS97       0.0745
     15  CG        34.9480   10.8760   13.8390 C.ar   97  HIS97       0.0817
     16  ND1       35.2210   11.7120   14.8930 N.ar   97  HIS97      -0.2268
     17  CD2       34.1180    9.9270   14.3180 C.ar   97  HIS97       0.1154
     18  CE1       34.6090   11.2810   15.9800 C.ar   97  HIS97       0.1986
     19  NE2       33.9320   10.2010   15.6590 N.ar   97  HIS97      -0.2212
     20  N         30.7600    7.4140   11.0350 N.3    99  HIS99      -0.1241
     21  CA        30.5170    5.9900   11.2150 C.3    99  HIS99       0.1621
     22  C         29.4910    5.6560   10.1540 C.2    99  HIS99       0.2264
     23  O         28.6050    6.4720    9.9020 O.2    99  HIS99      -0.2867
     24  CB        29.9260    5.7440   12.5810 C.3    99  HIS99       0.0745
     25  CG        30.7930    6.2180   13.7030 C.ar   99  HIS99       0.0817
     26  ND1       31.6750    5.3930   14.3550 N.ar   99  HIS99      -0.2268
     27  CD2       30.9110    7.4270   14.2920 C.ar   99  HIS99       0.1154
     28  CE1       32.2950    6.0660   15.3070 C.ar   99  HIS99       0.1986
     29  NE2       31.8600    7.3050   15.2740 N.ar   99  HIS99      -0.2212
     30  N         30.0540   12.8290   13.5150 N.3   122  HIS122     -0.1241
     31  CA        30.3790   13.3680   14.8260 C.3   122  HIS122      0.1621
     32  C         31.3540   14.5180   14.7250 C.2   122  HIS122      0.2264
     33  O         32.4310   14.3510   14.1440 O.2   122  HIS122     -0.2867
     34  CB        30.9830   12.2920   15.6850 C.3   122  HIS122      0.0745
     35  CG        29.9960   11.2560   16.1180 C.ar  122  HIS122      0.0817
     36  ND1       30.3750    9.9790   16.4740 N.ar  122  HIS122     -0.2268
     37  CD2       28.6490   11.2790   16.1870 C.ar  122  HIS122      0.1154
     38  CE1       29.3120    9.2730   16.7830 C.ar  122  HIS122      0.1986
     39  NE2       28.2490   10.0390   16.6150 N.ar  122  HIS122     -0.2212
     40  N         33.5470   16.8440   17.1590 N.3   124  VAL124     -0.1245
     41  CA        34.0360   16.6730   18.4970 C.3   124  VAL124      0.1561
     42  C         34.5780   18.0110   18.9340 C.2   124  VAL124      0.2260
     43  O         35.4350   18.5800   18.2630 O.2   124  VAL124     -0.2867
     44  CB        35.1710   15.6240   18.5490 C.3   124  VAL124      0.0252
     45  CG1       35.7110   15.4280   19.9740 C.3   124  VAL124      0.0019
     46  CG2       34.7210   14.2900   17.9620 C.3   124  VAL124      0.0019
     47  N         33.8210   17.1870   26.8240 N.3   138  ILE138     -0.1245
     48  CA        33.7200   17.0240   25.3930 C.3   138  ILE138      0.1561
     49  C         32.2630   17.1250   25.0350 C.2   138  ILE138      0.2260
     50  O         31.4180   16.5250   25.7170 O.2   138  ILE138     -0.2867
     51  CB        34.2820   15.6560   24.9890 C.3   138  ILE138      0.0252
     52  CG1       35.7480   15.5980   25.3870 C.3   138  ILE138      0.0019
     53  CG2       34.1010   15.4100   23.4910 C.3   138  ILE138      0.0019
     54  CD1       36.3540   14.2350   25.2550 C.3   138  ILE138      0.0001
     55  N         30.0450   16.3600   21.6910 N.3   140  VAL140     -0.1245
     56  CA        29.9720   15.8210   20.3550 C.3   140  VAL140      0.1561
     57  C         28.6000   16.1440   19.8300 C.2   140  VAL140      0.2260
     58  O         27.6010   15.8580   20.4880 O.2   140  VAL140     -0.2867
     59  CB        30.1560   14.2840   20.2940 C.3   140  VAL140      0.0252
     60  CG1       29.9700   13.7760   18.8530 C.3   140  VAL140      0.0019
     61  CG2       31.5040   13.8560   20.8470 C.3   140  VAL140      0.0019
     62  N         32.5530    8.5040   25.0630 N.3   199  LEU199     -0.1231
     63  CA        33.1390    8.3760   23.7510 C.3   199  LEU199      0.1693
     64  C         32.7710    6.9450   23.2720 C.2   199  LEU199      0.2593
     65  O         32.6070    6.0460   24.0940 O.2   199  LEU199     -0.2718
     66  CB        34.6520    8.6030   23.8610 C.3   199  LEU199      0.0284
     67  CG        35.1460    9.9790   24.3510 C.3   199  LEU199      0.0019
     68  CD1       36.6220    9.9360   24.7090 C.3   199  LEU199      0.0001
     69  CD2       34.8890   11.0500   23.2990 C.3   199  LEU199      0.0001
     70  N         32.5420    6.7720   21.9690 N.am  200  THR200     -0.1939
     71  CA        32.1070    5.4930   21.3950 C.3   200  THR200      0.2028
     72  C         33.2360    4.5810   20.8980 C.2   200  THR200      0.2643
     73  O         32.9710    3.4160   20.4920 O.2   200  THR200     -0.2714
     74  CB        31.0690    5.6770   20.2580 C.3   200  THR200      0.1808
     75  OG1       31.6410    6.3790   19.1520 O.3   200  THR200     -0.2208
     76  CG2       29.8310    6.4320   20.7840 C.3   200  THR200      0.0379
     77  N         34.4740    5.0830   20.9080 N.am  201  THR201     -0.1937
     78  CA        35.6480    4.2210   20.7110 C.3   201  THR201      0.2013
     79  C         36.5460    4.2830   21.9450 C.2   201  THR201      0.2484
     80  O         36.4440    5.2310   22.7230 O.2   201  THR201     -0.2729
     81  CB        36.4130    4.5660   19.4320 C.3   201  THR201      0.1807
     82  OG1       36.8830    5.9140   19.5050 O.3   201  THR201     -0.2208
     83  CG2       35.4910    4.4170   18.2100 C.3   201  THR201      0.0379
     84  N         37.3960    3.2600   22.1550 N.am  202  PRO202     -0.2715
     85  CA        38.2180    3.2720   23.3910 C.3   202  PRO202      0.1536
     86  C         39.1220    4.4570   23.4660 C.2   202  PRO202      0.2599
     87  O         39.6090    4.8740   22.4250 O.2   202  PRO202     -0.2715
     88  CB        39.0450    1.9910   23.2990 C.3   202  PRO202      0.0310
     89  CG        38.2140    1.0740   22.4300 C.3   202  PRO202      0.0237
     90  CD        37.5910    1.9980   21.4040 C.3   202  PRO202      0.0939
     91  N         39.3640    5.0120   24.6620 N.am  203  THR203     -0.1951
     92  CA        39.0190    4.4440   25.9710 C.3   203  THR203      0.1897
     93  C         37.5910    4.7740   26.5380 C.2   203  THR203      0.2313
     94  O         37.3440    4.6120   27.7250 O.2   203  THR203     -0.2863
     95  CB        40.1040    4.8770   27.0230 C.3   203  THR203      0.1794
     96  OG1       40.1970    6.3120   27.0880 O.3   203  THR203     -0.2208
     97  CG2       41.4210    4.3410   26.6760 C.3   203  THR203      0.0378
     98  N         26.3460   14.8200   24.8700 N.3   210  TRP210     -0.1241
     99  CA        25.8640   14.4450   23.5490 C.3   210  TRP210      0.1605
    100  C         24.7210   15.3280   23.0810 C.2   210  TRP210      0.2264
    101  O         23.7990   15.6510   23.8570 O.2   210  TRP210     -0.2867
    102  CB        25.3660   12.9880   23.5410 C.3   210  TRP210      0.0550
    103  CG        26.4690   12.0570   23.3850 C.ar  210  TRP210      0.0003
    104  CD1       27.0890   11.3730   24.3680 C.ar  210  TRP210      0.0946
    105  CD2       27.1560   11.7370   22.1660 C.ar  210  TRP210      0.0152
    106  NE1       28.1200   10.6340   23.8480 N.ar  210  TRP210     -0.2442
    107  CE2       28.1710   10.8280   22.4930 C.ar  210  TRP210      0.0810
    108  CE3       26.9910   12.1180   20.8180 C.ar  210  TRP210      0.0012
    109  CZ2       29.0460   10.3050   21.5360 C.ar  210  TRP210      0.0191
    110  CZ3       27.8250   11.5680   19.8660 C.ar  210  TRP210      0.0001
    111  CH2       28.8440   10.6620   20.2310 C.ar  210  TRP210      0.0015
@<TRIPOS>BOND
     1    23    22    2
     2    22    21    1
     3    20    21    1
     4    21    24    1
     5    12    11    1
     6    12    13    2
     7    11    10    1
     8    11    14    1
     9    14    15    1
    10    24    25    1
    11    30    31    1
    12    25    27   ar
    13    25    26   ar
    14    15    17   ar
    15    15    16   ar
    16    33    32    2
    17    27    29   ar
    18    17    19   ar
    19     3     2    1
    20     3     4    2
    21    26    28   ar
    22     2     5    1
    23     2     1    1
    24    32    31    1
    25    31    34    1
    26    16    18   ar
    27     5     6    1
    28     8     7    2
    29    29    28   ar
    30    19    18   ar
    31    34    35    1
    32    35    37   ar
    33    35    36   ar
    34     7     6    1
    35     7     9   am
    36    37    39   ar
    37    36    38   ar
    38    39    38   ar
    39    40    41    1
    40    46    44    1
    41    83    81    1
    42    43    42    2
    43    41    44    1
    44    41    42    1
    45    44    45    1
    46    60    59    1
    47    75    74    1
    48    81    82    1
    49    81    78    1
    50    57    56    1
    51    57    58    2
    52   110   111   ar
    53   110   108   ar
    54   111   109   ar
    55    74    76    1
    56    74    71    1
    57    59    56    1
    58    59    61    1
    59    56    55    1
    60    73    72    2
    61    78    77    1
    62    78    79    1
    63   108   105   ar
    64    72    77   am
    65    72    71    1
    66    71    70    1
    67    90    84    1
    68    90    89    1
    69   109   107   ar
    70    79    84   am
    71    79    80    2
    72    70    64   am
    73    84    85    1
    74   105   107   ar
    75   105   103   ar
    76    87    86    2
    77    89    88    1
    78   107   106   ar
    79   100    99    1
    80   100   101    2
    81    64    63    1
    82    64    65    2
    83    88    85    1
    84    69    67    1
    85   103   102    1
    86   103   104   ar
    87    85    86    1
    88    86    91   am
    89    53    51    1
    90   102    99    1
    91    99    98    1
    92    63    66    1
    93    63    62    1
    94   106   104   ar
    95    66    67    1
    96    67    68    1
    97    91    92    1
    98    51    52    1
    99    51    48    1
   100    49    48    1
   101    49    50    2
   102    54    52    1
   103    48    47    1
   104    92    93    1
   105    92    95    1
   106    93    94    2
   107    97    95    1
   108    95    96    1
