@<TRIPOS>MOLECULE
tmp/5jnaB00.pdb
 162 158 0 0 0
SMALL
GASTEIGER

@<TRIPOS>ATOM
      1  N         39.4560    1.8670  -25.5740 N.3     2  TRP2       -0.1241
      2  CA        38.0200    1.6890  -25.2450 C.3     2  TRP2        0.1605
      3  C         37.7350    1.6670  -23.7440 C.2     2  TRP2        0.2264
      4  O         38.5250    1.1480  -22.9680 O.2     2  TRP2       -0.2867
      5  CB        37.3830    0.4760  -25.9370 C.3     2  TRP2        0.0550
      6  CG        37.5860   -0.9000  -25.2860 C.ar    2  TRP2        0.0003
      7  CD1       38.4760   -1.8710  -25.6670 C.ar    2  TRP2        0.0946
      8  CD2       36.8340   -1.4570  -24.1920 C.ar    2  TRP2        0.0152
      9  NE1       38.3350   -2.9850  -24.8680 N.ar    2  TRP2       -0.2442
     10  CE2       37.3350   -2.7570  -23.9560 C.ar    2  TRP2        0.0810
     11  CE3       35.7930   -0.9760  -23.3800 C.ar    2  TRP2        0.0012
     12  CZ2       36.8190   -3.5900  -22.9460 C.ar    2  TRP2        0.0191
     13  CZ3       35.2880   -1.7990  -22.3660 C.ar    2  TRP2        0.0001
     14  CH2       35.7990   -3.0850  -22.1600 C.ar    2  TRP2        0.0015
     15  N         34.2910    1.9510  -20.5190 N.3     4  TYR4       -0.1241
     16  CA        32.9010    2.1590  -20.1590 C.3     4  TYR4        0.1605
     17  C         32.6740    3.6270  -19.8060 C.2     4  TYR4        0.2264
     18  O         33.6210    4.3460  -19.4290 O.2     4  TYR4       -0.2867
     19  CB        32.4880    1.2490  -18.9900 C.3     4  TYR4        0.0534
     20  CG        32.5160   -0.2220  -19.3300 C.ar    4  TYR4       -0.0201
     21  CD1       31.4970   -0.8010  -20.0910 C.ar    4  TYR4       -0.0009
     22  CD2       33.5610   -1.0310  -18.9020 C.ar    4  TYR4       -0.0009
     23  CE1       31.5260   -2.1500  -20.4180 C.ar    4  TYR4        0.0417
     24  CE2       33.5950   -2.3860  -19.2090 C.ar    4  TYR4        0.0417
     25  CZ        32.5770   -2.9360  -19.9690 C.ar    4  TYR4        0.1957
     26  OH        32.5970   -4.2710  -20.2760 O.3     4  TYR4       -0.2866
     27  N         41.2680   -7.7880  -15.3080 N.3    65  ASN65      -0.1240
     28  CA        41.8030   -7.3730  -16.6080 C.3    65  ASN65       0.1653
     29  C         41.5590   -5.8880  -16.9290 C.2    65  ASN65       0.2266
     30  O         41.7520   -5.4430  -18.0600 O.2    65  ASN65      -0.2867
     31  CB        41.3090   -8.3060  -17.7330 C.3    65  ASN65       0.1155
     32  CG        39.8610   -8.0390  -18.1480 C.2    65  ASN65       0.2627
     33  OD1       39.0270   -7.5490  -17.3620 O.2    65  ASN65      -0.2716
     34  ND2       39.5590   -8.3620  -19.4040 N.am   65  ASN65      -0.0877
     35  N         38.6750   -4.5480  -16.9930 N.3    67  HIS67      -0.1226
     36  CA        37.2970   -4.4070  -17.4940 C.3    67  HIS67       0.1752
     37  C         36.3350   -5.0990  -16.5510 C.2    67  HIS67       0.2596
     38  O         35.2600   -4.5650  -16.2700 O.2    67  HIS67      -0.2718
     39  CB        37.1400   -4.9080  -18.9480 C.3    67  HIS67       0.0759
     40  CG        38.1930   -4.3920  -19.8770 C.ar   67  HIS67       0.0818
     41  ND1       38.3690   -3.0480  -20.1260 N.ar   67  HIS67      -0.2268
     42  CD2       39.1370   -5.0370  -20.6050 C.ar   67  HIS67       0.1154
     43  CE1       39.3680   -2.8870  -20.9730 C.ar   67  HIS67       0.1986
     44  NE2       39.8500   -4.0770  -21.2810 N.ar   67  HIS67      -0.2212
     45  N         36.7490   -6.2690  -16.0580 N.am   68  SER68      -0.1952
     46  CA        36.0090   -7.0620  -15.0760 C.3    68  SER68       0.1924
     47  C         36.9430   -7.9800  -14.2960 C.2    68  SER68       0.2314
     48  O         38.1670   -7.8800  -14.4000 O.2    68  SER68      -0.2863
     49  CB        34.9420   -7.9220  -15.7710 C.3    68  SER68       0.2116
     50  OG        34.0980   -8.5450  -14.8100 O.3    68  SER68      -0.2180
     51  N         37.6430  -12.1390  -13.9480 N.3    70  MET70      -0.1245
     52  CA        37.5620  -13.2230  -14.9180 C.3    70  MET70       0.1570
     53  C         38.2200  -14.5050  -14.3720 C.2    70  MET70       0.2261
     54  O         39.4250  -14.5080  -14.0990 O.2    70  MET70      -0.2867
     55  CB        38.2810  -12.7610  -16.1770 C.3    70  MET70       0.0387
     56  CG        38.1240  -13.6020  -17.4100 C.3    70  MET70       0.0595
     57  SD        39.0580  -12.8460  -18.7790 S.3    70  MET70      -0.1393
     58  CE        40.6870  -12.7200  -18.0240 C.3    70  MET70       0.0692
     59  N         36.0170  -18.9250  -20.0740 N.3    92  GLN92      -0.1245
     60  CA        36.0680  -18.0230  -18.9420 C.3    92  GLN92       0.1566
     61  C         34.7030  -17.6930  -18.3620 C.2    92  GLN92       0.2260
     62  O         33.6650  -17.8390  -19.0280 O.2    92  GLN92      -0.2867
     63  CB        36.7940  -16.7200  -19.3310 C.3    92  GLN92       0.0367
     64  CG        36.3060  -16.1310  -20.6520 C.3    92  GLN92       0.0905
     65  CD        36.4410  -14.6270  -20.7430 C.2    92  GLN92       0.2608
     66  OE1       35.8420  -13.8770  -19.9640 O.2    92  GLN92      -0.2717
     67  NE2       37.2360  -14.1740  -21.7060 N.am   92  GLN92      -0.0878
     68  N         33.0490  -14.3250  -16.2190 N.3    94  HIS94      -0.1241
     69  CA        33.2680  -12.9850  -15.7120 C.3    94  HIS94       0.1621
     70  C         31.9310  -12.3440  -15.3750 C.2    94  HIS94       0.2264
     71  O         30.8710  -12.9300  -15.6480 O.2    94  HIS94      -0.2867
     72  CB        34.0360  -12.1330  -16.7340 C.3    94  HIS94       0.0745
     73  CG        33.2680  -11.8710  -17.9890 C.ar   94  HIS94       0.0817
     74  ND1       33.4780  -12.5860  -19.1500 N.ar   94  HIS94      -0.2268
     75  CD2       32.2700  -10.9950  -18.2600 C.ar   94  HIS94       0.1154
     76  CE1       32.6500  -12.1530  -20.0840 C.ar   94  HIS94       0.1986
     77  NE2       31.9090  -11.1870  -19.5700 N.ar   94  HIS94      -0.2212
     78  N         29.3920   -8.4920  -14.7790 N.3    96  HIS96      -0.1241
     79  CA        29.0810   -7.0840  -14.9940 C.3    96  HIS96       0.1621
     80  C         28.1800   -6.7040  -13.8170 C.2    96  HIS96       0.2264
     81  O         27.3260   -7.5080  -13.4010 O.2    96  HIS96      -0.2867
     82  CB        28.3330   -6.8920  -16.3190 C.3    96  HIS96       0.0745
     83  CG        29.0550   -7.4560  -17.5060 C.ar   96  HIS96       0.0817
     84  ND1       29.8210   -6.6820  -18.3470 N.ar   96  HIS96      -0.2268
     85  CD2       29.1410   -8.7210  -17.9820 C.ar   96  HIS96       0.1154
     86  CE1       30.3440   -7.4430  -19.2940 C.ar   96  HIS96       0.1986
     87  NE2       29.9430   -8.6830  -19.0970 N.ar   96  HIS96      -0.2212
     88  N         28.5620  -14.0800  -17.0320 N.3   119  HIS119     -0.1241
     89  CA        28.7610  -14.5980  -18.3750 C.3   119  HIS119      0.1621
     90  C         29.7540  -15.7540  -18.3610 C.2   119  HIS119      0.2264
     91  O         30.8950  -15.5920  -17.9360 O.2   119  HIS119     -0.2867
     92  CB        29.2530  -13.4730  -19.2980 C.3   119  HIS119      0.0745
     93  CG        28.1880  -12.4780  -19.6470 C.ar  119  HIS119      0.0817
     94  ND1       28.4710  -11.2090  -20.1090 N.ar  119  HIS119     -0.2268
     95  CD2       26.8370  -12.5650  -19.5910 C.ar  119  HIS119      0.1154
     96  CE1       27.3390  -10.5640  -20.3350 C.ar  119  HIS119      0.1986
     97  NE2       26.3370  -11.3670  -20.0370 N.ar  119  HIS119     -0.2212
     98  N         31.6670  -17.8710  -20.9100 N.3   121  VAL121     -0.1245
     99  CA        32.0670  -17.8350  -22.3170 C.3   121  VAL121      0.1561
    100  C         32.6440  -19.1770  -22.7370 C.2   121  VAL121      0.2260
    101  O         33.6060  -19.6790  -22.1240 O.2   121  VAL121     -0.2867
    102  CB        33.1210  -16.6930  -22.5990 C.3   121  VAL121      0.0252
    103  CG1       33.4430  -16.5670  -24.1010 C.3   121  VAL121      0.0019
    104  CG2       32.6200  -15.3510  -22.0810 C.3   121  VAL121      0.0019
    105  N         30.9450  -18.6050  -30.6060 N.3   134  ILE134     -0.1245
    106  CA        31.0160  -18.4680  -29.1620 C.3   134  ILE134      0.1561
    107  C         29.6210  -18.6570  -28.5930 C.2   134  ILE134      0.2260
    108  O         28.6490  -18.1410  -29.1530 O.2   134  ILE134     -0.2867
    109  CB        31.6050  -17.0840  -28.7660 C.3   134  ILE134      0.0252
    110  CG1       33.0890  -17.0310  -29.1380 C.3   134  ILE134      0.0019
    111  CG2       31.4040  -16.8030  -27.2700 C.3   134  ILE134      0.0019
    112  CD1       33.6200  -15.6240  -29.3640 C.3   134  ILE134      0.0001
    113  N         27.6930  -17.8110  -25.1010 N.3   136  VAL136     -0.1245
    114  CA        27.7310  -17.2340  -23.7530 C.3   136  VAL136      0.1561
    115  C         26.4700  -17.6330  -22.9810 C.2   136  VAL136      0.2260
    116  O         25.3400  -17.4570  -23.4620 O.2   136  VAL136     -0.2867
    117  CB        27.9370  -15.6900  -23.7270 C.3   136  VAL136      0.0252
    118  CG1       28.2220  -15.2090  -22.3020 C.3   136  VAL136      0.0019
    119  CG2       29.0860  -15.2450  -24.6360 C.3   136  VAL136      0.0019
    120  N         29.6960  -10.0940  -29.0510 N.3   195  LEU195     -0.1231
    121  CA        30.4070   -9.7820  -27.8130 C.3   195  LEU195      0.1693
    122  C         30.0700   -8.3550  -27.3580 C.2   195  LEU195      0.2593
    123  O         29.7250   -7.5050  -28.1970 O.2   195  LEU195     -0.2718
    124  CB        31.9110   -9.9630  -28.0180 C.3   195  LEU195      0.0284
    125  CG        32.3300  -11.4080  -28.3410 C.3   195  LEU195      0.0019
    126  CD1       33.7630  -11.4950  -28.8380 C.3   195  LEU195      0.0001
    127  CD2       32.1180  -12.3100  -27.1340 C.3   195  LEU195      0.0001
    128  N         30.1610   -8.0870  -26.0490 N.am  196  THR196     -0.1939
    129  CA        29.6920   -6.8080  -25.4960 C.3   196  THR196      0.2028
    130  C         30.8300   -5.8130  -25.1610 C.2   196  THR196      0.2643
    131  O         30.6330   -4.8230  -24.4430 O.2   196  THR196     -0.2714
    132  CB        28.7210   -7.0010  -24.2950 C.3   196  THR196      0.1808
    133  OG1       29.4380   -7.5460  -23.1820 O.3   196  THR196     -0.2208
    134  CG2       27.5480   -7.9550  -24.6620 C.3   196  THR196      0.0379
    135  N         32.0160   -6.0940  -25.6930 N.am  197  THR197     -0.1937
    136  CA        33.1490   -5.1820  -25.6310 C.3   197  THR197      0.2013
    137  C         33.8260   -5.2330  -27.0050 C.2   197  THR197      0.2484
    138  O         33.6730   -6.2330  -27.7130 O.2   197  THR197     -0.2729
    139  CB        34.1800   -5.6480  -24.5820 C.3   197  THR197      0.1807
    140  OG1       34.7100   -6.9120  -24.9880 O.3   197  THR197     -0.2208
    141  CG2       33.5570   -5.7680  -23.1830 C.3   197  THR197      0.0379
    142  N         34.5800   -4.1770  -27.3840 N.am  198  PRO198     -0.2726
    143  CA        35.2660   -4.2410  -28.6810 C.3   198  PRO198      0.1402
    144  C         36.2150   -5.4450  -28.7390 C.2   198  PRO198      0.2269
    145  O         36.8130   -5.7880  -27.7230 O.2   198  PRO198     -0.2865
    146  CB        36.0540   -2.9210  -28.7440 C.3   198  PRO198      0.0296
    147  CG        35.2830   -1.9770  -27.8440 C.3   198  PRO198      0.0237
    148  CD        34.7670   -2.8710  -26.7210 C.3   198  PRO198      0.0939
    149  N         23.6140  -16.3500  -27.8650 N.3   206  TRP206     -0.1241
    150  CA        23.2730  -15.9630  -26.5050 C.3   206  TRP206      0.1605
    151  C         22.2390  -16.8670  -25.8980 C.2   206  TRP206      0.2264
    152  O         21.3220  -17.3240  -26.5820 O.2   206  TRP206     -0.2867
    153  CB        22.7940  -14.5100  -26.4630 C.3   206  TRP206      0.0550
    154  CG        23.9530  -13.5520  -26.5120 C.ar  206  TRP206      0.0003
    155  CD1       24.4410  -12.9270  -27.6110 C.ar  206  TRP206      0.0946
    156  CD2       24.8020  -13.1700  -25.4190 C.ar  206  TRP206      0.0152
    157  NE1       25.5380  -12.1550  -27.2800 N.ar  206  TRP206     -0.2442
    158  CE2       25.7720  -12.2780  -25.9340 C.ar  206  TRP206      0.0810
    159  CE3       24.8190  -13.4720  -24.0460 C.ar  206  TRP206      0.0012
    160  CZ2       26.7600  -11.6890  -25.1280 C.ar  206  TRP206      0.0191
    161  CZ3       25.7900  -12.8800  -23.2400 C.ar  206  TRP206      0.0001
    162  CH2       26.7580  -12.0030  -23.7860 C.ar  206  TRP206      0.0015
@<TRIPOS>BOND
     1   105   106    1
     2   112   110    1
     3   106   109    1
     4   106   107    1
     5   108   107    2
     6   110   109    1
     7   120   121    1
     8   126   125    1
     9   109   111    1
    10   146   143    1
    11   146   147    1
    12   144   143    1
    13   144   145    2
    14   143   142    1
    15   125   124    1
    16   125   127    1
    17   123   122    2
    18   124   121    1
    19   149   150    1
    20   147   148    1
    21   121   122    1
    22   138   137    2
    23   155   157   ar
    24   155   154   ar
    25   142   137   am
    26   142   148    1
    27   122   128   am
    28   157   158   ar
    29   137   136    1
    30   152   151    2
    31   154   153    1
    32   154   156   ar
    33   150   153    1
    34   150   151    1
    35   128   129    1
    36     5     6    1
    37     5     2    1
    38   158   156   ar
    39   158   160   ar
    40   135   136    1
    41   135   130   am
    42     7     6   ar
    43     7     9   ar
    44   136   139    1
    45     1     2    1
    46   129   130    1
    47   129   132    1
    48   156   159   ar
    49     6     8   ar
    50     2     3    1
    51   130   131    2
    52   160   162   ar
    53   113   114    1
    54   140   139    1
    55     9    10   ar
    56   134   132    1
    57   119   117    1
    58   139   141    1
    59   132   133    1
    60     8    10   ar
    61     8    11   ar
    62   103   102    1
    63   159   161   ar
    64    10    12   ar
    65   162   161   ar
    66   114   117    1
    67   114   115    1
    68     3     4    2
    69   117   118    1
    70   116   115    2
    71    11    13   ar
    72    12    14   ar
    73   100    99    1
    74   100   101    2
    75   102    99    1
    76   102   104    1
    77    13    14   ar
    78    99    98    1
    79    67    65   am
    80    44    43   ar
    81    44    42   ar
    82    43    41   ar
    83    65    64    1
    84    65    66    2
    85    64    63    1
    86    42    40   ar
    87    15    16    1
    88    23    21   ar
    89    23    25   ar
    90    96    94   ar
    91    96    97   ar
    92    26    25    1
    93    16    17    1
    94    16    19    1
    95    41    40   ar
    96    94    93   ar
    97    21    20   ar
    98    76    77   ar
    99    76    74   ar
   100    59    60    1
   101    97    95   ar
   102    25    24   ar
   103    40    39    1
   104    17    18    2
   105    93    95   ar
   106    93    92    1
   107    77    75   ar
   108    34    32   am
   109    63    60    1
   110    20    19    1
   111    20    22   ar
   112    92    89    1
   113    86    87   ar
   114    86    84   ar
   115    24    22   ar
   116    74    73   ar
   117    87    85   ar
   118    62    61    2
   119    39    36    1
   120    60    61    1
   121    57    58    1
   122    57    56    1
   123    89    90    1
   124    89    88    1
   125    90    91    2
   126    84    83   ar
   127    75    73   ar
   128    32    31    1
   129    32    33    2
   130    30    29    2
   131    73    72    1
   132    85    83   ar
   133    31    28    1
   134    83    82    1
   135    36    35    1
   136    36    37    1
   137    56    55    1
   138    29    28    1
   139    72    69    1
   140    28    27    1
   141    37    38    2
   142    37    45   am
   143    82    79    1
   144    68    69    1
   145    55    52    1
   146    45    46    1
   147    49    46    1
   148    49    50    1
   149    69    70    1
   150    71    70    2
   151    46    47    1
   152    79    78    1
   153    79    80    1
   154    52    53    1
   155    52    51    1
   156    48    47    2
   157    53    54    2
   158    80    81    2
