@<TRIPOS>MOLECULE
tmp/5jncB00.pdb
 104 101 0 0 0
SMALL
GASTEIGER

@<TRIPOS>ATOM
      1  N         36.0820  -18.9520  -19.7000 N.3    92  GLN92      -0.1245
      2  CA        36.1720  -17.9900  -18.6300 C.3    92  GLN92       0.1566
      3  C         34.7940  -17.6000  -18.1240 C.2    92  GLN92       0.2260
      4  O         33.7990  -17.6650  -18.8530 O.2    92  GLN92      -0.2867
      5  CB        36.9740  -16.7720  -19.0820 C.3    92  GLN92       0.0367
      6  CG        36.5780  -16.1740  -20.4400 C.3    92  GLN92       0.0905
      7  CD        35.8810  -14.8440  -20.3110 C.2    92  GLN92       0.2608
      8  OE1       35.9320  -13.9960  -21.2100 O.2    92  GLN92      -0.2717
      9  NE2       35.2700  -14.6340  -19.1770 N.am   92  GLN92      -0.0878
     10  N         32.9980  -14.3490  -16.0950 N.3    94  HIS94      -0.1241
     11  CA        33.1570  -12.9810  -15.5660 C.3    94  HIS94       0.1621
     12  C         31.8050  -12.3470  -15.2490 C.2    94  HIS94       0.2264
     13  O         30.7250  -12.9440  -15.5430 O.2    94  HIS94      -0.2867
     14  CB        33.9670  -12.1250  -16.5440 C.3    94  HIS94       0.0745
     15  CG        33.2190  -11.7900  -17.7840 C.ar   94  HIS94       0.0817
     16  ND1       33.3530  -12.4990  -18.9520 N.ar   94  HIS94      -0.2268
     17  CD2       32.2460  -10.8820  -18.0130 C.ar   94  HIS94       0.1154
     18  CE1       32.5410  -12.0150  -19.8630 C.ar   94  HIS94       0.1986
     19  NE2       31.8520  -11.0400  -19.3130 N.ar   94  HIS94      -0.2212
     20  N         29.3180   -8.4870  -14.6430 N.3    96  HIS96      -0.1241
     21  CA        29.0060   -7.0800  -14.8610 C.3    96  HIS96       0.1621
     22  C         28.1080   -6.6740  -13.7080 C.2    96  HIS96       0.2264
     23  O         27.2840   -7.4730  -13.2620 O.2    96  HIS96      -0.2867
     24  CB        28.2420   -6.9360  -16.1620 C.3    96  HIS96       0.0745
     25  CG        28.9950   -7.4070  -17.3580 C.ar   96  HIS96       0.0817
     26  ND1       29.7860   -6.5700  -18.1000 N.ar   96  HIS96      -0.2268
     27  CD2       29.0810   -8.6230  -17.9470 C.ar   96  HIS96       0.1154
     28  CE1       30.3290   -7.2400  -19.0990 C.ar   96  HIS96       0.1986
     29  NE2       29.9220   -8.4840  -19.0200 N.ar   96  HIS96      -0.2212
     30  N         28.4550  -14.0450  -16.8790 N.3   119  HIS119     -0.1241
     31  CA        28.6730  -14.6110  -18.2130 C.3   119  HIS119      0.1621
     32  C         29.6830  -15.7460  -18.1960 C.2   119  HIS119      0.2264
     33  O         30.8360  -15.5350  -17.8320 O.2   119  HIS119     -0.2867
     34  CB        29.1890  -13.5160  -19.1430 C.3   119  HIS119      0.0745
     35  CG        28.1550  -12.5030  -19.4930 C.ar  119  HIS119      0.0817
     36  ND1       28.4730  -11.2400  -19.9360 N.ar  119  HIS119     -0.2268
     37  CD2       26.8100  -12.5580  -19.4520 C.ar  119  HIS119      0.1154
     38  CE1       27.3640  -10.5590  -20.1520 C.ar  119  HIS119      0.1986
     39  NE2       26.3440  -11.3350  -19.8620 N.ar  119  HIS119     -0.2212
     40  N         31.6550  -17.9600  -20.6560 N.3   121  VAL121     -0.1245
     41  CA        32.0190  -17.8280  -22.0410 C.3   121  VAL121      0.1561
     42  C         32.6380  -19.1600  -22.4840 C.2   121  VAL121      0.2260
     43  O         33.6020  -19.6300  -21.8870 O.2   121  VAL121     -0.2867
     44  CB        33.0670  -16.6850  -22.1900 C.3   121  VAL121      0.0252
     45  CG1       33.4490  -16.4540  -23.6500 C.3   121  VAL121      0.0019
     46  CG2       32.5630  -15.3820  -21.5380 C.3   121  VAL121      0.0019
     47  N         31.1310  -18.5740  -30.3040 N.3   134  ILE134     -0.1245
     48  CA        31.0600  -18.4610  -28.8280 C.3   134  ILE134      0.1561
     49  C         29.6340  -18.6760  -28.3010 C.2   134  ILE134      0.2260
     50  O         28.6740  -18.1260  -28.8410 O.2   134  ILE134     -0.2867
     51  CB        31.5840  -17.0910  -28.3960 C.3   134  ILE134      0.0252
     52  CG1       33.0740  -16.9970  -28.7400 C.3   134  ILE134      0.0019
     53  CG2       31.4040  -16.8710  -26.8910 C.3   134  ILE134      0.0019
     54  CD1       33.5380  -15.5780  -28.9650 C.3   134  ILE134      0.0001
     55  N         27.6000  -17.9840  -24.8060 N.3   136  VAL136     -0.1245
     56  CA        27.6640  -17.3890  -23.4770 C.3   136  VAL136      0.1561
     57  C         26.3910  -17.7670  -22.7400 C.2   136  VAL136      0.2260
     58  O         25.2870  -17.6270  -23.2670 O.2   136  VAL136     -0.2867
     59  CB        27.8310  -15.8430  -23.4780 C.3   136  VAL136      0.0252
     60  CG1       28.0390  -15.3340  -22.0550 C.3   136  VAL136      0.0019
     61  CG2       29.0060  -15.4040  -24.3180 C.3   136  VAL136      0.0019
     62  N         29.6820  -10.1510  -28.7760 N.3   195  LEU195     -0.1231
     63  CA        30.4210   -9.8380  -27.5830 C.3   195  LEU195      0.1693
     64  C         30.0150   -8.4160  -27.1450 C.2   195  LEU195      0.2593
     65  O         29.7020   -7.5450  -28.0030 O.2   195  LEU195     -0.2718
     66  CB        31.8960   -9.9130  -27.9000 C.3   195  LEU195      0.0284
     67  CG        32.3920  -11.3200  -28.2650 C.3   195  LEU195      0.0019
     68  CD1       33.7910  -11.2640  -28.7960 C.3   195  LEU195      0.0001
     69  CD2       32.3270  -12.2520  -27.0760 C.3   195  LEU195      0.0001
     70  N         29.9990   -8.1760  -25.8350 N.am  196  THR196     -0.1939
     71  CA        29.5260   -6.8920  -25.2850 C.3   196  THR196      0.2028
     72  C         30.6720   -5.9470  -24.9000 C.2   196  THR196      0.2643
     73  O         30.4560   -4.9540  -24.2190 O.2   196  THR196     -0.2714
     74  CB        28.5710   -7.1130  -24.0910 C.3   196  THR196      0.1808
     75  OG1       29.2690   -7.5930  -22.9270 O.3   196  THR196     -0.2208
     76  CG2       27.4610   -8.0880  -24.4700 C.3   196  THR196      0.0379
     77  N         31.8850   -6.2650  -25.3290 N.am  197  THR197     -0.1937
     78  CA        32.9770   -5.3160  -25.3540 C.3   197  THR197      0.2013
     79  C         33.7170   -5.4000  -26.6820 C.2   197  THR197      0.2484
     80  O         33.5990   -6.3910  -27.3770 O.2   197  THR197     -0.2729
     81  CB        34.0000   -5.5920  -24.2480 C.3   197  THR197      0.1807
     82  OG1       34.6410   -6.8320  -24.5080 O.3   197  THR197     -0.2208
     83  CG2       33.3270   -5.6100  -22.8770 C.3   197  THR197      0.0379
     84  N         34.5000   -4.3570  -27.0430 N.am  198  PRO198     -0.2726
     85  CA        35.2030   -4.4820  -28.3340 C.3   198  PRO198      0.1402
     86  C         36.0650   -5.7290  -28.3460 C.2   198  PRO198      0.2269
     87  O         36.5950   -6.0830  -27.2970 O.2   198  PRO198     -0.2865
     88  CB        36.0500   -3.2170  -28.4070 C.3   198  PRO198      0.0296
     89  CG        35.2480   -2.2120  -27.5990 C.3   198  PRO198      0.0237
     90  CD        34.7030   -3.0210  -26.4420 C.3   198  PRO198      0.0939
     91  N         23.6530  -16.4870  -27.6600 N.3   206  TRP206     -0.1241
     92  CA        23.3240  -16.0970  -26.2920 C.3   206  TRP206      0.1605
     93  C         22.2730  -16.9680  -25.6760 C.2   206  TRP206      0.2264
     94  O         21.3010  -17.3100  -26.3310 O.2   206  TRP206     -0.2867
     95  CB        22.8350  -14.6290  -26.2470 C.3   206  TRP206      0.0550
     96  CG        23.9510  -13.6810  -26.2790 C.ar  206  TRP206      0.0003
     97  CD1       24.4240  -13.0170  -27.3670 C.ar  206  TRP206      0.0946
     98  CD2       24.7590  -13.2820  -25.1760 C.ar  206  TRP206      0.0152
     99  NE1       25.4770  -12.2130  -27.0100 N.ar  206  TRP206     -0.2442
    100  CE2       25.7080  -12.3580  -25.6680 C.ar  206  TRP206      0.0810
    101  CE3       24.7670  -13.6040  -23.8110 C.ar  206  TRP206      0.0012
    102  CZ2       26.6870  -11.7610  -24.8450 C.ar  206  TRP206      0.0191
    103  CZ3       25.7220  -13.0120  -22.9860 C.ar  206  TRP206      0.0001
    104  CH2       26.6760  -12.0960  -23.5110 C.ar  206  TRP206      0.0015
@<TRIPOS>BOND
     1    47    48    1
     2    54    52    1
     3    50    49    2
     4    48    51    1
     5    48    49    1
     6    68    67    1
     7    62    63    1
     8    52    51    1
     9    88    85    1
    10    88    89    1
    11    51    53    1
    12    86    85    1
    13    86    87    2
    14    85    84    1
    15    67    66    1
    16    67    69    1
    17    65    64    2
    18    66    63    1
    19    91    92    1
    20    89    90    1
    21    63    64    1
    22    80    79    2
    23    97    99   ar
    24    97    96   ar
    25    64    70   am
    26    84    79   am
    27    84    90    1
    28    99   100   ar
    29    79    78    1
    30    94    93    2
    31    92    95    1
    32    92    93    1
    33    96    95    1
    34    96    98   ar
    35    70    71    1
    36   100    98   ar
    37   100   102   ar
    38    78    77    1
    39    78    81    1
    40    77    72   am
    41    71    72    1
    42    71    74    1
    43    98   101   ar
    44    72    73    2
    45   102   104   ar
    46    55    56    1
    47    82    81    1
    48    76    74    1
    49    61    59    1
    50    81    83    1
    51    74    75    1
    52   101   103   ar
    53    45    44    1
    54   104   103   ar
    55    59    56    1
    56    59    60    1
    57    56    57    1
    58    58    57    2
    59    42    41    1
    60    42    43    2
    61    44    41    1
    62    44    46    1
    63    41    40    1
    64     8     7    2
    65     6     7    1
    66     6     5    1
    67     7     9   am
    68    38    36   ar
    69    38    39   ar
    70    36    35   ar
    71    18    19   ar
    72    18    16   ar
    73    39    37   ar
    74     1     2    1
    75    35    37   ar
    76    35    34    1
    77    19    17   ar
    78    34    31    1
    79    28    29   ar
    80    28    26   ar
    81     5     2    1
    82    29    27   ar
    83    16    15   ar
    84     4     3    2
    85     2     3    1
    86    31    32    1
    87    31    30    1
    88    32    33    2
    89    26    25   ar
    90    17    15   ar
    91    27    25   ar
    92    15    14    1
    93    25    24    1
    94    14    11    1
    95    24    21    1
    96    10    11    1
    97    11    12    1
    98    13    12    2
    99    21    20    1
   100    21    22    1
   101    22    23    2
