@<TRIPOS>MOLECULE
tmp/5jnlA00.pdb
 189 181 0 0 0
SMALL
GASTEIGER

@<TRIPOS>ATOM
      1  N         12.2350   17.1300   23.3520 N.3   129  LYS129     -0.1245
      2  CA        11.7160   18.5110   23.2940 C.3   129  LYS129      0.1561
      3  C         12.0220   19.3210   24.5510 C.2   129  LYS129      0.2260
      4  O         12.2110   20.5410   24.4720 O.2   129  LYS129     -0.2867
      5  CB        10.2070   18.5500   22.9940 C.3   129  LYS129      0.0271
      6  CG         9.2790   18.2890   24.1760 C.3   129  LYS129      0.0035
      7  CD         7.8580   18.0010   23.7070 C.3   129  LYS129      0.0206
      8  CE         7.7260   16.5680   23.1960 C.3   129  LYS129      0.1093
      9  NZ         6.3660   16.2670   22.6770 N.3   129  LYS129     -0.1314
     10  N         10.4290   15.0510   16.7860 N.3   155  ASP155     -0.1225
     11  CA         9.0660   15.3140   17.3020 C.3   155  ASP155      0.1805
     12  C          8.1450   15.4140   16.0640 C.2   155  ASP155      0.2598
     13  O          8.4840   16.1090   15.0910 O.2   155  ASP155     -0.2718
     14  CB         9.0740   16.5990   18.1660 C.3   155  ASP155      0.1424
     15  CG         7.9190   16.6840   19.1780 C.2   155  ASP155      0.3668
     16  OD1        6.9720   15.8780   19.1060 O.co2 155  ASP155     -0.2456
     17  OD2        7.9700   17.5900   20.0620 O.co2 155  ASP155     -0.2456
     18  N          7.0390   14.6710   16.0520 N.am  156  SER156     -0.1938
     19  CA         6.2570   14.4800   14.8130 C.3   156  SER156      0.2055
     20  C          5.7870   15.7720   14.1460 C.2   156  SER156      0.2642
     21  O          5.8220   15.8880   12.9190 O.2   156  SER156     -0.2714
     22  CB         5.0680   13.5570   15.0540 C.3   156  SER156      0.2130
     23  OG         4.1560   14.1180   15.9830 O.3   156  SER156     -0.2179
     24  N          5.3730   16.7460   14.9530 N.am  157  GLU157     -0.1976
     25  CA         4.8780   18.0130   14.4220 C.3   157  GLU157      0.1602
     26  C          6.0190   18.8180   13.8290 C.2   157  GLU157      0.2287
     27  O          5.8460   19.5120   12.8440 O.2   157  GLU157     -0.2864
     28  CB         4.1730   18.8530   15.4890 C.3   157  GLU157      0.0415
     29  CG         2.9940   18.1620   16.1470 C.3   157  GLU157      0.1163
     30  CD         3.4090   17.2480   17.2830 C.2   157  GLU157      0.3649
     31  OE1        4.6300   17.0930   17.4990 O.co2 157  GLU157     -0.2457
     32  OE2        2.5210   16.6970   17.9600 O.co2 157  GLU157     -0.2457
     33  N         -2.5900   19.3500   17.0930 N.3   193  SER193     -0.1202
     34  CA        -2.6870   18.6520   18.3720 C.3   193  SER193      0.2020
     35  C         -3.8150   17.6520   18.3220 C.2   193  SER193      0.2619
     36  O         -4.8630   17.9340   17.7520 O.2   193  SER193     -0.2717
     37  CB        -2.9820   19.6460   19.4920 C.3   193  SER193      0.2103
     38  OG        -3.0180   18.9700   20.7410 O.3   193  SER193     -0.2182
     39  N         -3.6080   16.4870   18.9270 N.am  194  SER194     -0.1937
     40  CA        -4.6910   15.5320   19.1110 C.3   194  SER194      0.2055
     41  C         -5.7920   16.1340   19.9990 C.2   194  SER194      0.2644
     42  O         -6.9640   15.7660   19.8730 O.2   194  SER194     -0.2714
     43  CB        -4.1770   14.2190   19.7150 C.3   194  SER194      0.2130
     44  OG        -4.0330   14.3090   21.1220 O.3   194  SER194     -0.2179
     45  N         -5.4040   17.0440   20.8960 N.am  195  GLY195     -0.1939
     46  CA        -6.3140   17.6330   21.8680 C.3   195  GLY195      0.2014
     47  C         -6.3720   16.8790   23.1910 C.2   195  GLY195      0.2639
     48  O         -6.9230   17.4020   24.1680 O.2   195  GLY195     -0.2714
     49  N         -5.8260   15.6630   23.2310 N.am  196  GLY196     -0.1954
     50  CA        -5.8400   14.8370   24.4370 C.3   196  GLY196      0.1869
     51  C         -7.2290   14.3340   24.8240 C.2   196  GLY196      0.2309
     52  O         -8.2090   14.5750   24.1140 O.2   196  GLY196     -0.2863
     53  N         -5.2910    6.8980   22.7370 N.3   219  LYS219     -0.1231
     54  CA        -5.4640    6.8280   21.2820 C.3   219  LYS219      0.1693
     55  C         -4.1820    6.2950   20.6350 C.2   219  LYS219      0.2592
     56  O         -4.2400    5.4840   19.7070 O.2   219  LYS219     -0.2718
     57  CB        -5.8150    8.2090   20.7190 C.3   219  LYS219      0.0285
     58  CG        -6.1970    8.2240   19.2410 C.3   219  LYS219      0.0035
     59  CD        -5.5780    9.3990   18.4930 C.3   219  LYS219      0.0206
     60  CE        -4.0810    9.2210   18.2600 C.3   219  LYS219      0.1093
     61  NZ        -3.7490    8.0580   17.3910 N.3   219  LYS219     -0.1314
     62  N         -3.0390    6.7770   21.1250 N.am  220  TRP220     -0.1976
     63  CA        -1.7290    6.1810   20.8520 C.3   220  TRP220      0.1640
     64  C         -1.0420    5.9590   22.2030 C.2   220  TRP220      0.2290
     65  O         -0.8910    6.9050   22.9840 O.2   220  TRP220     -0.2864
     66  CB        -0.8970    7.1030   19.9530 C.3   220  TRP220      0.0576
     67  CG         0.3630    6.4750   19.4000 C.ar  220  TRP220      0.0006
     68  CD1        1.6420    6.6780   19.8410 C.ar  220  TRP220      0.0946
     69  CD2        0.4610    5.5610   18.2980 C.ar  220  TRP220      0.0152
     70  NE1        2.5280    5.9440   19.0860 N.ar  220  TRP220     -0.2442
     71  CE2        1.8320    5.2490   18.1330 C.ar  220  TRP220      0.0810
     72  CE3       -0.4760    4.9710   17.4350 C.ar  220  TRP220      0.0012
     73  CZ2        2.2900    4.3700   17.1400 C.ar  220  TRP220      0.0191
     74  CZ3       -0.0190    4.0940   16.4450 C.ar  220  TRP220      0.0001
     75  CH2        1.3540    3.8050   16.3080 C.ar  220  TRP220      0.0015
     76  N          1.6210    5.6690   24.9300 N.3   222  MET222     -0.1245
     77  CA         2.9270    6.3180   25.1320 C.3   222  MET222      0.1570
     78  C          3.1990    6.5390   26.6280 C.2   222  MET222      0.2261
     79  O          2.3560    6.2110   27.4640 O.2   222  MET222     -0.2867
     80  CB         3.0000    7.6310   24.3260 C.3   222  MET222      0.0387
     81  CG         1.8410    8.6050   24.5260 C.3   222  MET222      0.0595
     82  SD         1.7700    9.8820   23.2430 S.3   222  MET222     -0.1393
     83  CE         0.4710   10.9400   23.8830 C.3   222  MET222      0.0692
     84  N          4.4580   12.2930   29.1340 N.3   226  ILE226     -0.1245
     85  CA         3.8810   12.9240   27.9300 C.3   226  ILE226      0.1561
     86  C          2.3530   12.7730   27.8600 C.2   226  ILE226      0.2260
     87  O          1.6720   13.6640   27.3540 O.2   226  ILE226     -0.2867
     88  CB         4.5530   12.4730   26.5990 C.3   226  ILE226      0.0252
     89  CG1        4.1130   13.3780   25.4300 C.3   226  ILE226      0.0019
     90  CG2        4.2330   11.0230   26.2750 C.3   226  ILE226      0.0019
     91  CD1        5.0390   13.3450   24.2300 C.3   226  ILE226      0.0001
     92  N         -0.1390   15.7260   27.3940 N.3   230  SER230     -0.1217
     93  CA        -1.1400   15.7350   26.3270 C.3   230  SER230      0.1889
     94  C         -2.5200   16.0900   26.8850 C.2   230  SER230      0.2288
     95  O         -3.2810   16.8310   26.2550 O.2   230  SER230     -0.2866
     96  CB        -1.1600   14.3920   25.5810 C.3   230  SER230      0.2089
     97  OG        -2.2110   14.3600   24.6320 O.3   230  SER230     -0.2183
     98  N         -2.4870   19.7400   27.6740 N.3   233  MET233     -0.1245
     99  CA        -1.9740   20.4450   26.4970 C.3   233  MET233      0.1570
    100  C         -0.6680   21.2070   26.7690 C.2   233  MET233      0.2261
    101  O         -0.2210   21.9880   25.9270 O.2   233  MET233     -0.2867
    102  CB        -3.0340   21.3180   25.8190 C.3   233  MET233      0.0387
    103  CG        -4.2510   20.5240   25.3550 C.3   233  MET233      0.0595
    104  SD        -5.2540   21.3800   24.1250 S.3   233  MET233     -0.1393
    105  CE        -4.1830   21.2570   22.6860 C.3   233  MET233      0.0692
    106  N          1.9460   19.6680   26.5910 N.3   235  ASN235     -0.1225
    107  CA         2.7770   19.0950   25.5470 C.3   235  ASN235      0.1785
    108  C          2.8690   20.0510   24.3550 C.2   235  ASN235      0.2597
    109  O          3.9700   20.3390   23.8710 O.2   235  ASN235     -0.2718
    110  CB         2.2770   17.7430   25.0800 C.3   235  ASN235      0.1169
    111  CG         3.2270   17.1110   24.1040 C.2   235  ASN235      0.2627
    112  OD1        4.4210   17.0120   24.3820 O.2   235  ASN235     -0.2716
    113  ND2        2.7240   16.7180   22.9370 N.am  235  ASN235     -0.0877
    114  N          1.7220   20.5440   23.8930 N.am  236  LYS236     -0.1980
    115  CA         1.7070   21.5670   22.8320 C.3   236  LYS236      0.1596
    116  C          2.3860   22.8570   23.2300 C.2   236  LYS236      0.2287
    117  O          3.0200   23.5040   22.4040 O.2   236  LYS236     -0.2864
    118  CB         0.2860   21.9440   22.4020 C.3   236  LYS236      0.0298
    119  CG        -0.3790   21.1220   21.3270 C.3   236  LYS236      0.0038
    120  CD         0.5100   20.6130   20.2070 C.3   236  LYS236      0.0206
    121  CE         0.7340   19.1360   20.4100 C.3   236  LYS236      0.1093
    122  NZ         1.1380   18.5030   19.1480 N.3   236  LYS236     -0.1314
    123  N          5.8680   22.3590   22.8050 N.3   239  GLU239     -0.1245
    124  CA         6.1060   22.3020   21.3630 C.3   239  GLU239      0.1567
    125  C          6.0540   23.6600   20.6550 C.2   239  GLU239      0.2260
    126  O          6.7340   23.8490   19.6430 O.2   239  GLU239     -0.2867
    127  CB         5.1420   21.3120   20.7280 C.3   239  GLU239      0.0388
    128  CG         5.5040   19.8870   21.0930 C.3   239  GLU239      0.1160
    129  CD         4.5830   18.8630   20.4880 C.2   239  GLU239      0.3649
    130  OE1        3.6330   19.2450   19.7780 O.co2 239  GLU239     -0.2457
    131  OE2        4.8280   17.6700   20.7430 O.co2 239  GLU239     -0.2457
    132  N         -5.5110   13.1580   13.7950 N.3   262  CYS262     -0.1235
    133  CA        -4.0570   12.9730   13.8120 C.3   262  CYS262      0.1677
    134  C         -3.5020   12.4450   12.4830 C.2   262  CYS262      0.2270
    135  O         -2.6090   11.6010   12.4730 O.2   262  CYS262     -0.2867
    136  CB        -3.6260   12.0700   14.9670 C.3   262  CYS262      0.0956
    137  SG        -4.1090   12.6960   16.5900 S.3   262  CYS262     -0.0801
    138  N         -0.1350   16.3950   10.3260 N.3   265  HIS265     -0.1241
    139  CA         0.7580   16.4540   11.4960 C.3   265  HIS265      0.1621
    140  C          1.2420   17.8370   11.8790 C.2   265  HIS265      0.2264
    141  O          1.6840   18.0440   13.0100 O.2   265  HIS265     -0.2867
    142  CB         1.9070   15.4690   11.3140 C.3   265  HIS265      0.0745
    143  CG         1.4360   14.0560   11.3000 C.ar  265  HIS265      0.0817
    144  ND1        0.6760   13.5280   12.3210 N.ar  265  HIS265     -0.2268
    145  CD2        1.5410   13.0850   10.3670 C.ar  265  HIS265      0.1154
    146  CE1        0.3540   12.2820   12.0250 C.ar  265  HIS265      0.1986
    147  NE2        0.8720   11.9880   10.8480 N.ar  265  HIS265     -0.2212
    148  N         -0.8130    8.4030    8.6000 N.3   281  TYR281     -0.1228
    149  CA        -1.3350    7.8190    9.8490 C.3   281  TYR281      0.1721
    150  C         -0.4000    8.1780   11.0140 C.2   281  TYR281      0.2437
    151  O          0.7850    8.4550   10.8060 O.2   281  TYR281     -0.2733
    152  CB        -1.4670    6.3020    9.7440 C.3   281  TYR281      0.0547
    153  CG        -2.3960    5.8590    8.6480 C.ar  281  TYR281     -0.0200
    154  CD1       -3.7530    6.1270    8.7230 C.ar  281  TYR281     -0.0009
    155  CD2       -1.9170    5.1870    7.5230 C.ar  281  TYR281     -0.0009
    156  CE1       -4.6210    5.7230    7.7240 C.ar  281  TYR281      0.0417
    157  CE2       -2.7780    4.7830    6.5120 C.ar  281  TYR281      0.0417
    158  CZ        -4.1290    5.0570    6.6190 C.ar  281  TYR281      0.1957
    159  OH        -4.9970    4.6740    5.6360 O.3   281  TYR281     -0.2866
    160  N         -0.9260    8.1860   12.2490 N.am  282  PRO282     -0.2718
    161  CA        -0.0260    8.4650   13.3730 C.3   282  PRO282      0.1535
    162  C          0.9930    7.3280   13.6040 C.2   282  PRO282      0.2599
    163  O          0.6900    6.3440   14.2750 O.2   282  PRO282     -0.2715
    164  CB        -0.9850    8.6640   14.5570 C.3   282  PRO282      0.0310
    165  CG        -2.2750    8.0370   14.1470 C.3   282  PRO282      0.0237
    166  CD        -2.3400    8.1060   12.6510 C.3   282  PRO282      0.0939
    167  N          2.1850    7.4720   13.0210 N.am  283  ASP283     -0.1958
    168  CA         3.2390    6.4450   13.0490 C.3   283  ASP283      0.1840
    169  C          4.5960    7.1430   13.1330 C.2   283  ASP283      0.2621
    170  O          5.0450    7.7550   12.1550 O.2   283  ASP283     -0.2715
    171  CB         3.1600    5.5680   11.7820 C.3   283  ASP283      0.1450
    172  CG         4.1370    4.3900   11.7940 C.2   283  ASP283      0.3671
    173  OD1        5.1830    4.4440   12.4710 O.co2 283  ASP283     -0.2456
    174  OD2        3.8600    3.3920   11.0940 O.co2 283  ASP283     -0.2456
    175  N          5.2550    7.0280   14.2870 N.am  284  MET284     -0.1977
    176  CA         6.5450    7.7000   14.5310 C.3   284  MET284      0.1605
    177  C          7.6980    7.2790   13.6140 C.2   284  MET284      0.2287
    178  O          8.7350    7.9440   13.5990 O.2   284  MET284     -0.2864
    179  CB         6.9880    7.5200   15.9950 C.3   284  MET284      0.0413
    180  CG         6.2630    8.4140   16.9900 C.3   284  MET284      0.0598
    181  SD         6.4630   10.1860   16.6860 S.3   284  MET284     -0.1393
    182  CE         8.2450   10.4290   16.6840 C.3   284  MET284      0.0692
    183  N          8.6330   10.2950   10.9340 N.3   287  PRO287     -0.2116
    184  CA         9.5170   11.3570   11.4550 C.3   287  PRO287      0.1372
    185  C         10.9360   10.9000   11.7620 C.2   287  PRO287      0.2244
    186  O         11.9020   11.6300   11.4790 O.2   287  PRO287     -0.2868
    187  CB         8.8380   11.8080   12.7480 C.3   287  PRO287      0.0268
    188  CG         7.4420   11.3380   12.6680 C.3   287  PRO287      0.0207
    189  CD         7.3270   10.2770   11.6160 C.3   287  PRO287      0.0892
@<TRIPOS>BOND
     1   159   158    1
     2   157   158   ar
     3   157   155   ar
     4   158   156   ar
     5   155   153   ar
     6   156   154   ar
     7   148   149    1
     8   153   154   ar
     9   153   152    1
    10   152   149    1
    11   149   150    1
    12   138   139    1
    13   145   147   ar
    14   145   143   ar
    15   151   150    2
    16   147   146   ar
    17   183   184    1
    18   183   189    1
    19   150   160   am
    20   174   172   ar
    21   143   142    1
    22   143   144   ar
    23   142   139    1
    24   184   185    1
    25   184   187    1
    26   186   185    2
    27   139   140    1
    28   189   188    1
    29   171   172    1
    30   171   168    1
    31   172   173   ar
    32   140   141    2
    33   146   144   ar
    34   170   169    2
    35   160   166    1
    36   160   161    1
    37   135   134    2
    38   134   133    1
    39   166   165    1
    40   188   187    1
    41    27    26    2
    42    21    20    2
    43   167   168    1
    44   167   162   am
    45   168   169    1
    46   169   175   am
    47   161   162    1
    48   161   164    1
    49   178   177    2
    50   162   163    2
    51   177   176    1
    52   132   133    1
    53   133   136    1
    54    26    25    1
    55    20    19    1
    56    20    24   am
    57   165   164    1
    58   175   176    1
    59    25    24    1
    60    25    28    1
    61   176   179    1
    62    19    22    1
    63    19    18    1
    64   136   137    1
    65    22    23    1
    66    13    12    2
    67    28    29    1
    68   179   180    1
    69    18    12   am
    70    12    11    1
    71    29    30    1
    72    75    74   ar
    73    75    73   ar
    74    74    72   ar
    75   182   181    1
    76   181   180    1
    77    10    11    1
    78    33    34    1
    79    73    71   ar
    80    30    31   ar
    81    30    32   ar
    82    11    14    1
    83    61    60    1
    84    72    69   ar
    85    36    35    2
    86    71    69   ar
    87    71    70   ar
    88    14    15    1
    89    60    59    1
    90    69    67   ar
    91    35    34    1
    92    35    39   am
    93    34    37    1
    94    59    58    1
    95    39    40    1
    96    70    68   ar
    97    16    15   ar
    98    40    43    1
    99    40    41    1
   100   122   121    1
   101    15    17   ar
   102    58    57    1
   103    67    68   ar
   104    67    66    1
   105    37    38    1
   106   126   125    2
   107    56    55    2
   108    43    44    1
   109   130   129   ar
   110    42    41    2
   111    66    63    1
   112    41    45   am
   113   120   121    1
   114   120   119    1
   115   129   131   ar
   116   129   128    1
   117    55    62   am
   118    55    54    1
   119   125   124    1
   120    57    54    1
   121   127   128    1
   122   127   124    1
   123    63    62    1
   124    63    64    1
   125    45    46    1
   126    54    53    1
   127   119   118    1
   128   124   123    1
   129    46    47    1
   130    64    65    2
   131   118   115    1
   132   117   116    2
   133     9     8    1
   134   105   104    1
   135   115   116    1
   136   115   114    1
   137   113   111   am
   138     5     2    1
   139     5     6    1
   140    47    49   am
   141    47    48    2
   142     8     7    1
   143    49    50    1
   144    82    83    1
   145    82    81    1
   146     2     1    1
   147     2     3    1
   148     7     6    1
   149   109   108    2
   150   114   108   am
   151   111   112    2
   152   111   110    1
   153    52    51    2
   154   104   103    1
   155    91    89    1
   156    80    81    1
   157    80    77    1
   158   108   107    1
   159    50    51    1
   160     4     3    2
   161    97    96    1
   162    76    77    1
   163   110   107    1
   164    77    78    1
   165   103   102    1
   166    89    88    1
   167   107   106    1
   168    96    93    1
   169   102    99    1
   170   101   100    2
   171    95    94    2
   172    90    88    1
   173    93    94    1
   174    93    92    1
   175    99   100    1
   176    99    98    1
   177    88    85    1
   178    78    79    2
   179    87    86    2
   180    86    85    1
   181    85    84    1
