@<TRIPOS>MOLECULE
tmp/5jnqA01.pdb
 96 89 0 0 0
SMALL
GASTEIGER

@<TRIPOS>ATOM
      1  N        161.0830  152.3290  265.3490 N.3   167  SER167     -0.1217
      2  CA       161.7320  152.9410  266.5240 C.3   167  SER167      0.1889
      3  C        162.7910  152.0630  267.1810 C.2   167  SER167      0.2288
      4  O        163.9010  152.5490  267.4420 O.2   167  SER167     -0.2866
      5  CB       160.7110  153.4030  267.5580 C.3   167  SER167      0.2089
      6  OG       159.8550  154.3900  267.0050 O.3   167  SER167     -0.2183
      7  N        167.3790  152.3940  266.9800 N.3   171  LEU171     -0.1245
      8  CA       168.2430  152.3120  268.1490 C.3   171  LEU171      0.1561
      9  C        169.2470  151.1590  268.0440 C.2   171  LEU171      0.2260
     10  O        170.4260  151.3570  268.3470 O.2   171  LEU171     -0.2867
     11  CB       167.4040  152.2800  269.4340 C.3   171  LEU171      0.0270
     12  CG       166.6410  153.6000  269.6860 C.3   171  LEU171      0.0019
     13  CD1      165.3320  153.3760  270.3890 C.3   171  LEU171      0.0001
     14  CD2      167.4990  154.6270  270.4150 C.3   171  LEU171      0.0001
     15  N        171.7410  152.2860  265.3450 N.3   174  THR174     -0.1203
     16  CA       172.5860  153.3670  265.8780 C.3   174  THR174      0.1994
     17  C        173.7140  152.7340  266.6780 C.2   174  THR174      0.2617
     18  O        174.8620  153.1260  266.4980 O.2   174  THR174     -0.2717
     19  CB       171.7660  154.3600  266.7170 C.3   174  THR174      0.1784
     20  OG1      170.7870  154.9530  265.8730 O.3   174  THR174     -0.2211
     21  CG2      172.6260  155.4570  267.3500 C.3   174  THR174      0.0376
     22  N        173.3930  151.7310  267.5260 N.am  175  PHE175     -0.1975
     23  CA       174.3930  151.0200  268.3180 C.3   175  PHE175      0.1639
     24  C        175.4470  150.4130  267.3910 C.2   175  PHE175      0.2290
     25  O        176.6400  150.6250  267.6080 O.2   175  PHE175     -0.2864
     26  CB       173.7360  149.9340  269.2030 C.3   175  PHE175      0.0560
     27  CG       174.7160  149.0030  269.8860 C.ar  175  PHE175     -0.0200
     28  CD1      175.2520  149.3200  271.1310 C.ar  175  PHE175     -0.0042
     29  CD2      175.1210  147.8200  269.2740 C.ar  175  PHE175     -0.0042
     30  CE1      176.1640  148.4630  271.7580 C.ar  175  PHE175     -0.0003
     31  CE2      176.0390  146.9730  269.8940 C.ar  175  PHE175     -0.0003
     32  CZ       176.5460  147.2920  271.1380 C.ar  175  PHE175     -0.0000
     33  N        177.8930  153.1390  265.9700 N.3   178  ILE178     -0.1245
     34  CA       178.8720  153.5790  266.9780 C.3   178  ILE178      0.1561
     35  C        179.9420  152.5080  267.1710 C.2   178  ILE178      0.2260
     36  O        181.1370  152.8250  267.1820 O.2   178  ILE178     -0.2867
     37  CB       178.1670  153.9950  268.3090 C.3   178  ILE178      0.0252
     38  CG1      177.1540  155.1520  268.0590 C.3   178  ILE178      0.0019
     39  CG2      179.1860  154.3590  269.4130 C.3   178  ILE178      0.0019
     40  CD1      176.0770  155.3380  269.1230 C.3   178  ILE178      0.0001
     41  N        155.0830  151.6270  272.1550 N.3   288  VAL288     -0.1231
     42  CA       156.1510  152.0940  271.2570 C.3   288  VAL288      0.1692
     43  C        157.2610  152.8090  272.0480 C.2   288  VAL288      0.2591
     44  O        158.4360  152.4880  271.8560 O.2   288  VAL288     -0.2718
     45  CB       155.6110  152.9290  270.0650 C.3   288  VAL288      0.0266
     46  CG1      156.7380  153.3640  269.1330 C.3   288  VAL288      0.0020
     47  CG2      154.5720  152.1370  269.2830 C.3   288  VAL288      0.0020
     48  N        156.8870  153.6950  272.9850 N.am  289  ALA289     -0.1980
     49  CA       157.8500  154.4280  273.8100 C.3   289  ALA289      0.1597
     50  C        158.6270  153.5380  274.7940 C.2   289  ALA289      0.2287
     51  O        159.8530  153.6360  274.8460 O.2   289  ALA289     -0.2864
     52  CB       157.1680  155.5790  274.5390 C.3   289  ALA289      0.0319
     53  N        161.1600  151.2000  273.0300 N.3   292  ALA292     -0.1231
     54  CA       162.2690  151.9880  272.4910 C.3   292  ALA292      0.1694
     55  C        163.2380  152.4350  273.5960 C.2   292  ALA292      0.2591
     56  O        164.4480  152.3060  273.4160 O.2   292  ALA292     -0.2718
     57  CB       161.7280  153.1890  271.7300 C.3   292  ALA292      0.0304
     58  N        162.7000  152.9420  274.7420 N.am  293  ILE293     -0.1980
     59  CA       163.4610  153.3800  275.9320 C.3   293  ILE293      0.1595
     60  C        164.2560  152.1830  276.5050 C.2   293  ILE293      0.2287
     61  O        165.4300  152.3440  276.8390 O.2   293  ILE293     -0.2864
     62  CB       162.5320  154.0630  276.9920 C.3   293  ILE293      0.0276
     63  CG1      162.0170  155.4310  276.4770 C.3   293  ILE293      0.0022
     64  CG2      163.2350  154.2210  278.3530 C.3   293  ILE293      0.0022
     65  CD1      160.7400  156.0030  277.1760 C.3   293  ILE293      0.0001
     66  N        167.1540  151.4120  274.1950 N.3   296  ALA296     -0.1245
     67  CA       168.1760  152.4350  274.4100 C.3   296  ALA296      0.1562
     68  C        169.0540  152.1140  275.6290 C.2   296  ALA296      0.2260
     69  O        170.2770  152.1240  275.5050 O.2   296  ALA296     -0.2867
     70  CB       167.5310  153.8090  274.5560 C.3   296  ALA296      0.0290
     71  N        171.1900  149.0240  275.0020 N.3   299  CYS299     -0.1221
     72  CA       172.2630  149.3050  274.0410 C.3   299  CYS299      0.1808
     73  C        173.4280  149.9120  274.7970 C.2   299  CYS299      0.2601
     74  O        174.5820  149.6000  274.5030 O.2   299  CYS299     -0.2717
     75  CB       171.7890  150.2190  272.9150 C.3   299  CYS299      0.0970
     76  SG       170.7330  149.4020  271.6850 S.3   299  CYS299     -0.0800
     77  N        173.1260  150.7300  275.8140 N.am  300  MET300     -0.1979
     78  CA       174.1420  151.3460  276.6640 C.3   300  MET300      0.1605
     79  C        174.7840  150.2880  277.5540 C.2   300  MET300      0.2287
     80  O        175.9880  150.3430  277.7770 O.2   300  MET300     -0.2864
     81  CB       173.5430  152.4650  277.5250 C.3   300  MET300      0.0413
     82  CG       173.1830  153.6960  276.7550 C.3   300  MET300      0.0598
     83  SD       172.2300  154.7840  277.8200 S.3   300  MET300     -0.1393
     84  CE       170.8890  155.2270  276.7080 C.3   300  MET300      0.0692
     85  N        177.0970  148.2060  275.4060 N.3   303  TYR303     -0.1241
     86  CA       178.3080  148.9830  275.1360 C.3   303  TYR303      0.1605
     87  C        179.3120  148.8190  276.2710 C.2   303  TYR303      0.2264
     88  O        180.4890  148.5890  275.9960 O.2   303  TYR303     -0.2867
     89  CB       177.9800  150.4660  274.9000 C.3   303  TYR303      0.0534
     90  CG       179.1390  151.2610  274.3380 C.ar  303  TYR303     -0.0201
     91  CD1      179.9950  151.9700  275.1780 C.ar  303  TYR303     -0.0009
     92  CD2      179.3690  151.3240  272.9680 C.ar  303  TYR303     -0.0009
     93  CE1      181.0520  152.7220  274.6670 C.ar  303  TYR303      0.0417
     94  CE2      180.4240  152.0690  272.4450 C.ar  303  TYR303      0.0417
     95  CZ       181.2590  152.7740  273.2980 C.ar  303  TYR303      0.1957
     96  OH       182.2990  153.5180  272.7850 O.3   303  TYR303     -0.2866
@<TRIPOS>BOND
     1    15    16    1
     2     1     2    1
     3    20    19    1
     4    16    17    1
     5    16    19    1
     6    33    34    1
     7    18    17    2
     8     2     3    1
     9     2     5    1
    10    17    22   am
    11    19    21    1
    12    34    35    1
    13    34    37    1
    14     7     8    1
    15     6     5    1
    16    35    36    2
    17     3     4    2
    18    24    25    2
    19    24    23    1
    20    22    23    1
    21     9     8    1
    22     9    10    2
    23    38    37    1
    24    38    40    1
    25     8    11    1
    26    37    39    1
    27    23    26    1
    28    46    45    1
    29    26    27    1
    30    29    27   ar
    31    29    31   ar
    32    47    45    1
    33    11    12    1
    34    12    13    1
    35    12    14    1
    36    27    28   ar
    37    31    32   ar
    38    45    42    1
    39    28    30   ar
    40    32    30   ar
    41    42    43    1
    42    42    41    1
    43    76    75    1
    44    57    54    1
    45    44    43    2
    46    43    48   am
    47    94    92   ar
    48    94    95   ar
    49    54    53    1
    50    54    55    1
    51    96    95    1
    52    75    72    1
    53    92    90   ar
    54    48    49    1
    55    95    93   ar
    56    56    55    2
    57    55    58   am
    58    49    52    1
    59    49    50    1
    60    72    73    1
    61    72    71    1
    62    66    67    1
    63    90    89    1
    64    90    91   ar
    65    67    70    1
    66    67    68    1
    67    74    73    2
    68    93    91   ar
    69    58    59    1
    70    50    51    2
    71    73    77   am
    72    89    86    1
    73    86    85    1
    74    86    87    1
    75    69    68    2
    76    77    78    1
    77    59    60    1
    78    59    62    1
    79    88    87    2
    80    63    62    1
    81    63    65    1
    82    60    61    2
    83    78    81    1
    84    78    79    1
    85    84    83    1
    86    82    81    1
    87    82    83    1
    88    62    64    1
    89    79    80    2
