@<TRIPOS>MOLECULE
tmp/5jnqA00.pdb
 202 193 0 0 0
SMALL
GASTEIGER

@<TRIPOS>ATOM
      1  N        144.8500  148.4540  257.7870 N.3    40  GLY40      -0.1225
      2  CA       143.8920  149.3290  257.1210 C.3    40  GLY40       0.1811
      3  C        144.5170  150.4050  256.2500 C.2    40  GLY40       0.2280
      4  O        143.8050  151.1040  255.5180 O.2    40  GLY40      -0.2866
      5  N        155.9740  137.6530  249.5430 N.3    84  ASP84      -0.1239
      6  CA       154.9550  137.4350  250.5790 C.3    84  ASP84       0.1674
      7  C        153.8270  138.4620  250.4760 C.2    84  ASP84       0.2266
      8  O        152.6580  138.0720  250.4080 O.2    84  ASP84      -0.2867
      9  CB       155.5800  137.4690  251.9870 C.3    84  ASP84       0.1410
     10  CG       154.8270  136.6690  253.0340 C.2    84  ASP84       0.3668
     11  OD1      153.6260  136.9440  253.2460 O.co2  84  ASP84      -0.2456
     12  OD2      155.4420  135.7820  253.6540 O.co2  84  ASP84      -0.2456
     13  N        149.7670  138.4990  249.4060 N.3    88  LYS88      -0.1245
     14  CA       148.8440  139.1840  250.3210 C.3    88  LYS88       0.1561
     15  C        147.7760  140.0180  249.5870 C.2    88  LYS88       0.2260
     16  O        146.6550  140.1380  250.0890 O.2    88  LYS88      -0.2867
     17  CB       149.6330  140.0640  251.3060 C.3    88  LYS88       0.0271
     18  CG       149.2630  139.8680  252.7690 C.3    88  LYS88       0.0035
     19  CD       150.3060  140.5150  253.6840 C.3    88  LYS88       0.0206
     20  CE       149.9440  140.4730  255.1520 C.3    88  LYS88       0.1093
     21  NZ       148.9820  141.5460  255.5270 N.3    88  LYS88      -0.1314
     22  N        153.5120  130.1180  256.8960 N.3    92  PRO92      -0.2116
     23  CA       154.5710  130.1660  257.9280 C.3    92  PRO92       0.1372
     24  C        155.7390  129.2160  257.6510 C.2    92  PRO92       0.2244
     25  O        156.8930  129.5970  257.8530 O.2    92  PRO92      -0.2868
     26  CB       153.8300  129.8090  259.2220 C.3    92  PRO92       0.0268
     27  CG       152.4110  130.1250  258.9470 C.3    92  PRO92       0.0207
     28  CD       152.2150  129.7620  257.5090 C.3    92  PRO92       0.0892
     29  N        157.6810  130.6330  254.5890 N.3    95  LYS95      -0.1231
     30  CA       158.4840  131.7780  255.0220 C.3    95  LYS95       0.1693
     31  C        159.7970  131.2710  255.6220 C.2    95  LYS95       0.2591
     32  O        160.8560  131.8110  255.3060 O.2    95  LYS95      -0.2718
     33  CB       157.7080  132.6180  256.0510 C.3    95  LYS95       0.0285
     34  CG       158.1680  134.0640  256.1450 C.3    95  LYS95       0.0035
     35  CD       157.4850  134.7930  257.2960 C.3    95  LYS95       0.0206
     36  CE       156.5450  135.8840  256.8400 C.3    95  LYS95       0.1093
     37  NZ       155.2220  135.3450  256.4310 N.3    95  LYS95      -0.1314
     38  N        159.7200  130.2050  256.4470 N.am   96  LEU96      -0.1980
     39  CA       160.8620  129.5500  257.0940 C.3    96  LEU96       0.1596
     40  C        161.7820  128.8560  256.0750 C.2    96  LEU96       0.2287
     41  O        162.9840  128.7550  256.3180 O.2    96  LEU96      -0.2864
     42  CB       160.3700  128.5550  258.1630 C.3    96  LEU96       0.0297
     43  CG       160.4460  129.0090  259.6350 C.3    96  LEU96       0.0022
     44  CD1      159.5280  130.2030  259.9200 C.3    96  LEU96       0.0001
     45  CD2      160.0770  127.8680  260.5670 C.3    96  LEU96       0.0001
     46  N        162.5200  136.3430  262.7000 N.3   153  ASN153     -0.1240
     47  CA       161.1380  136.1690  263.1440 C.3   153  ASN153      0.1653
     48  C        160.8020  137.1310  264.2880 C.2   153  ASN153      0.2266
     49  O        159.7080  137.6900  264.3040 O.2   153  ASN153     -0.2867
     50  CB       160.8220  134.7050  263.4710 C.3   153  ASN153      0.1155
     51  CG       160.9140  133.7960  262.2670 C.2   153  ASN153      0.2627
     52  OD1      160.3020  134.0370  261.2180 O.2   153  ASN153     -0.2716
     53  ND2      161.6760  132.7240  262.3890 N.am  153  ASN153     -0.0877
     54  N        160.1440  140.4800  262.7160 N.3   156  ASN156     -0.1225
     55  CA       158.8620  140.3390  262.0060 C.3   156  ASN156      0.1785
     56  C        157.6730  140.4490  262.9710 C.2   156  ASN156      0.2597
     57  O        156.6690  141.0880  262.6340 O.2   156  ASN156     -0.2718
     58  CB       158.8190  139.0000  261.2370 C.3   156  ASN156      0.1169
     59  CG       157.5530  138.7600  260.4460 C.2   156  ASN156      0.2627
     60  OD1      156.6210  138.1010  260.9100 O.2   156  ASN156     -0.2716
     61  ND2      157.4980  139.2690  259.2250 N.am  156  ASN156     -0.0877
     62  N        157.7970  139.8410  264.1700 N.am  157  PHE157     -0.1976
     63  CA       156.7630  139.8580  265.2060 C.3   157  PHE157      0.1639
     64  C        156.6350  141.2420  265.8610 C.2   157  PHE157      0.2290
     65  O        155.5540  141.5990  266.3240 O.2   157  PHE157     -0.2864
     66  CB       157.0140  138.7670  266.2660 C.3   157  PHE157      0.0560
     67  CG       156.8300  137.3130  265.8690 C.ar  157  PHE157     -0.0200
     68  CD1      156.4910  136.9610  264.5660 C.ar  157  PHE157     -0.0042
     69  CD2      156.9950  136.2960  266.8020 C.ar  157  PHE157     -0.0042
     70  CE1      156.3390  135.6220  264.2040 C.ar  157  PHE157     -0.0003
     71  CE2      156.8310  134.9560  266.4390 C.ar  157  PHE157     -0.0003
     72  CZ       156.5150  134.6300  265.1420 C.ar  157  PHE157     -0.0000
     73  N        156.8830  144.0820  264.2580 N.3   159  ASP159     -0.1225
     74  CA       156.1450  144.9490  263.3320 C.3   159  ASP159      0.1805
     75  C        154.6190  144.7500  263.4190 C.2   159  ASP159      0.2598
     76  O        153.9880  144.2550  262.4820 O.2   159  ASP159     -0.2718
     77  CB       156.6840  144.7730  261.9010 C.3   159  ASP159      0.1424
     78  CG       156.2870  145.8650  260.9340 C.2   159  ASP159      0.3668
     79  OD1      156.0780  147.0180  261.3840 O.co2 159  ASP159     -0.2456
     80  OD2      156.2280  145.5850  259.7300 O.co2 159  ASP159     -0.2456
     81  N        154.0520  145.1360  264.5580 N.am  160  GLY160     -0.1942
     82  CA       152.6310  144.9870  264.8400 C.3   160  GLY160      0.2014
     83  C        151.8970  146.2540  265.2060 C.2   160  GLY160      0.2639
     84  O        150.6670  146.2990  265.1140 O.2   160  GLY160     -0.2714
     85  N        152.6360  147.2740  265.6580 N.am  161  LEU161     -0.1963
     86  CA       152.0770  148.5690  266.0320 C.3   161  LEU161      0.1728
     87  C        152.7600  149.6610  265.2330 C.2   161  LEU161      0.2616
     88  O        153.8720  149.4480  264.7500 O.2   161  LEU161     -0.2715
     89  CB       152.2290  148.8310  267.5450 C.3   161  LEU161      0.0311
     90  CG       151.4540  147.9160  268.5040 C.3   161  LEU161      0.0022
     91  CD1      151.7990  148.2320  269.9360 C.3   161  LEU161      0.0001
     92  CD2      149.9450  148.0210  268.3020 C.3   161  LEU161      0.0001
     93  N        152.1020  150.8270  265.0820 N.am  162  ASP162     -0.1971
     94  CA       152.6510  151.9770  264.3530 C.3   162  ASP162      0.1709
     95  C        153.9350  152.4570  265.0180 C.2   162  ASP162      0.2293
     96  O        153.9710  152.5820  266.2370 O.2   162  ASP162     -0.2864
     97  CB       151.6200  153.1160  264.3000 C.3   162  ASP162      0.1436
     98  CG       150.2940  152.7870  263.6240 C.2   162  ASP162      0.3671
     99  OD1      150.1090  151.6220  263.2000 O.co2 162  ASP162     -0.2456
    100  OD2      149.4600  153.7050  263.4820 O.co2 162  ASP162     -0.2456
    101  N        155.2490  156.6380  259.2800 N.3   205  ASN205     -0.1240
    102  CA       154.7920  155.3800  259.8820 C.3   205  ASN205      0.1653
    103  C        154.2320  155.5260  261.3040 C.2   205  ASN205      0.2266
    104  O        153.4590  154.6700  261.7420 O.2   205  ASN205     -0.2867
    105  CB       155.9030  154.3340  259.8310 C.3   205  ASN205      0.1155
    106  CG       155.4840  152.9980  260.3490 C.2   205  ASN205      0.2627
    107  OD1      155.7340  152.6750  261.5030 O.2   205  ASN205     -0.2716
    108  ND2      154.7440  152.2450  259.5490 N.am  205  ASN205     -0.0877
    109  N        152.7300  151.0520  255.6630 N.3   212  PHE212     -0.1227
    110  CA       153.1830  149.8940  256.4150 C.3   212  PHE212      0.1736
    111  C        154.3810  149.2350  255.7790 C.2   212  PHE212      0.2595
    112  O        154.5970  149.3370  254.5950 O.2   212  PHE212     -0.2718
    113  CB       152.1060  148.8520  256.4420 C.3   212  PHE212      0.0547
    114  CG       150.9910  149.1360  257.3700 C.ar  212  PHE212     -0.0202
    115  CD1      151.0560  150.1310  258.2860 C.ar  212  PHE212     -0.0042
    116  CD2      149.8700  148.3650  257.3200 C.ar  212  PHE212     -0.0042
    117  CE1      150.0110  150.3580  259.1400 C.ar  212  PHE212     -0.0003
    118  CE2      148.8230  148.5840  258.1620 C.ar  212  PHE212     -0.0003
    119  CZ       148.8890  149.5840  259.0780 C.ar  212  PHE212     -0.0000
    120  N        155.1940  148.5950  256.5980 N.am  213  MET213     -0.1965
    121  CA       156.5010  148.1720  256.1500 C.3   213  MET213      0.1736
    122  C        156.5040  147.0990  255.0960 C.2   213  MET213      0.2617
    123  O        157.1160  147.2650  254.0640 O.2   213  MET213     -0.2715
    124  CB       157.2600  147.6240  257.3450 C.3   213  MET213      0.0427
    125  CG       158.6040  148.2560  257.5960 C.3   213  MET213      0.0599
    126  SD       159.3410  147.4300  258.9720 S.3   213  MET213     -0.1393
    127  CE       159.5530  148.7610  260.0890 C.3   213  MET213      0.0692
    128  N        155.7760  146.0240  255.3260 N.am  214  GLY214     -0.1940
    129  CA       156.4260  144.7300  255.2650 C.3   214  GLY214      0.2014
    130  C        156.0690  143.8260  256.4140 C.2   214  GLY214      0.2638
    131  O        155.1020  144.0680  257.0960 O.2   214  GLY214     -0.2714
    132  N        156.8670  142.8100  256.6890 N.am  215  ASP215     -0.1971
    133  CA       157.2250  141.7110  255.7940 C.3   215  ASP215      0.1709
    134  C        158.2110  142.0050  254.6850 C.2   215  ASP215      0.2293
    135  O        159.2550  141.3970  254.6780 O.2   215  ASP215     -0.2864
    136  CB       155.9940  141.0020  255.2390 C.3   215  ASP215      0.1436
    137  CG       155.5440  139.8600  256.1120 C.2   215  ASP215      0.3671
    138  OD1      156.2690  139.4970  257.0360 O.co2 215  ASP215     -0.2456
    139  OD2      154.4530  139.3190  255.8990 O.co2 215  ASP215     -0.2456
    140  N        155.5550  134.2290  271.9620 N.3   252  VAL252     -0.1245
    141  CA       154.7640  133.4160  271.0280 C.3   252  VAL252      0.1561
    142  C        155.0540  131.9310  271.3060 C.2   252  VAL252      0.2260
    143  O        154.1030  131.1710  271.4910 O.2   252  VAL252     -0.2867
    144  CB       154.9800  133.8250  269.5430 C.3   252  VAL252      0.0252
    145  CG1      154.4300  132.7800  268.5810 C.3   252  VAL252      0.0019
    146  CG2      154.3550  135.1840  269.2560 C.3   252  VAL252      0.0019
    147  N        151.9060  129.6630  272.4050 N.3   256  VAL256     -0.1245
    148  CA       151.5150  128.5620  271.5110 C.3   256  VAL256      0.1561
    149  C        151.7500  127.1830  272.1680 C.2   256  VAL256      0.2260
    150  O        150.8650  126.3370  272.0930 O.2   256  VAL256     -0.2867
    151  CB       152.1570  128.6720  270.0940 C.3   256  VAL256      0.0252
    152  CG1      151.6810  127.5460  269.1770 C.3   256  VAL256      0.0019
    153  CG2      151.8540  130.0230  269.4520 C.3   256  VAL256      0.0019
    154  N        147.5580  138.1480  275.2670 N.3   270  MET270     -0.1230
    155  CA       147.7680  137.9110  273.8350 C.3   270  MET270      0.1702
    156  C        149.2660  137.9440  273.5100 C.2   270  MET270      0.2592
    157  O        150.0070  138.7020  274.1370 O.2   270  MET270     -0.2718
    158  CB       147.0230  138.9570  272.9960 C.3   270  MET270      0.0401
    159  CG       146.8030  138.5490  271.5630 C.3   270  MET270      0.0596
    160  SD       145.8210  139.7890  270.6960 S.3   270  MET270     -0.1393
    161  CE       145.6270  138.9920  269.1130 C.3   270  MET270      0.0692
    162  N        149.7030  137.1340  272.5260 N.am  271  ALA271     -0.1966
    163  CA       151.0840  137.1110  272.0440 C.3   271  ALA271      0.1713
    164  C        151.1590  137.6210  270.5900 C.2   271  ALA271      0.2458
    165  O        150.2210  137.3650  269.8300 O.2   271  ALA271     -0.2730
    166  CB       151.6760  135.7230  272.1400 C.3   271  ALA271      0.0333
    167  N        152.2300  138.3480  270.1640 N.am  272  PRO272     -0.2727
    168  CA       153.4280  138.7570  270.9170 C.3   272  PRO272      0.1402
    169  C        153.0960  139.6780  272.0940 C.2   272  PRO272      0.2269
    170  O        151.9810  140.1980  272.1810 O.2   272  PRO272     -0.2865
    171  CB       154.3020  139.4270  269.8430 C.3   272  PRO272      0.0296
    172  CG       153.7780  138.9270  268.5340 C.3   272  PRO272      0.0237
    173  CD       152.3140  138.8170  268.7700 C.3   272  PRO272      0.0939
    174  N        153.6100  142.7030  272.8370 N.3   274  HIS274     -0.1226
    175  CA       153.1080  144.0720  272.6340 C.3   274  HIS274      0.1752
    176  C        151.5720  144.1290  272.7370 C.2   274  HIS274      0.2596
    177  O        151.0420  145.0890  273.2990 O.2   274  HIS274     -0.2718
    178  CB       153.6400  144.7360  271.3490 C.3   274  HIS274      0.0759
    179  CG       153.2400  144.0650  270.0740 C.ar  274  HIS274      0.0818
    180  ND1      154.1090  143.2460  269.3990 N.ar  274  HIS274     -0.2268
    181  CD2      152.0890  144.1550  269.3690 C.ar  274  HIS274      0.1154
    182  CE1      153.4630  142.8420  268.3200 C.ar  274  HIS274      0.1986
    183  NE2      152.2440  143.3630  268.2580 N.ar  274  HIS274     -0.2212
    184  N        150.8760  143.0670  272.2570 N.am  275  HIS275     -0.1975
    185  CA       149.4230  142.9170  272.3490 C.3   275  HIS275      0.1656
    186  C        149.0070  142.6670  273.7980 C.2   275  HIS275      0.2291
    187  O        147.9050  143.0420  274.1720 O.2   275  HIS275     -0.2864
    188  CB       148.9140  141.7640  271.4700 C.3   275  HIS275      0.0771
    189  CG       149.1630  141.9230  270.0010 C.ar  275  HIS275      0.0820
    190  ND1      148.6880  143.0190  269.2980 N.ar  275  HIS275     -0.2267
    191  CD2      149.7710  141.0790  269.1360 C.ar  275  HIS275      0.1154
    192  CE1      149.0580  142.8220  268.0420 C.ar  275  HIS275      0.1986
    193  NE2      149.7150  141.6680  267.8980 N.ar  275  HIS275     -0.2212
    194  N        148.8370  152.4920  272.4310 N.3   284  GLU284     -0.1245
    195  CA       149.6480  152.0620  271.2840 C.3   284  GLU284      0.1567
    196  C        151.0120  152.7780  271.3700 C.2   284  GLU284      0.2260
    197  O        152.0440  152.1280  271.2720 O.2   284  GLU284     -0.2867
    198  CB       148.9090  152.4120  269.9730 C.3   284  GLU284      0.0388
    199  CG       149.4370  151.7290  268.7200 C.3   284  GLU284      0.1160
    200  CD       148.4260  151.4220  267.6260 C.2   284  GLU284      0.3649
    201  OE1      147.2390  151.7980  267.7710 O.co2 284  GLU284     -0.2457
    202  OE2      148.8220  150.7820  266.6240 O.co2 284  GLU284     -0.2457
@<TRIPOS>BOND
     1    13    14    1
     2     5     6    1
     3    15    16    2
     4    15    14    1
     5    14    17    1
     6     8     7    2
     7     7     6    1
     8     6     9    1
     9    17    18    1
    10     9    10    1
    11    18    19    1
    12    10    11   ar
    13    10    12   ar
    14    19    20    1
    15   123   122    2
    16    29    30    1
    17   112   111    2
    18   135   134    2
    19   134   133    1
    20    30    31    1
    21    30    33    1
    22   122   128   am
    23   122   121    1
    24    20    21    1
    25   136   133    1
    26   136   137    1
    27   129   128    1
    28   129   130    1
    29    32    31    2
    30     4     3    2
    31    31    38   am
    32   109   110    1
    33   111   110    1
    34   111   120   am
    35   133   132    1
    36   139   137   ar
    37    33    34    1
    38    40    41    2
    39    40    39    1
    40   137   138   ar
    41    34    35    1
    42   121   120    1
    43   121   124    1
    44     3     2    1
    45   130   132   am
    46   130   131    2
    47   110   113    1
    48    37    36    1
    49   113   114    1
    50    38    39    1
    51    36    35    1
    52    22    28    1
    53    22    23    1
    54    39    42    1
    55     2     1    1
    56   116   114   ar
    57   116   118   ar
    58   124   125    1
    59   114   115   ar
    60    28    27    1
    61   125   126    1
    62    24    25    2
    63    24    23    1
    64    23    26    1
    65   118   119   ar
    66    42    43    1
    67   115   117   ar
    68    27    26    1
    69   126   127    1
    70   119   117   ar
    71    61    59   am
    72   101   102    1
    73   108   106   am
    74    43    44    1
    75    43    45    1
    76    80    78   ar
    77   105   102    1
    78   105   106    1
    79   102   103    1
    80   106   107    2
    81    59    60    2
    82    59    58    1
    83    78    79   ar
    84    78    77    1
    85    52    51    2
    86    58    55    1
    87   103   104    2
    88    77    74    1
    89    55    54    1
    90    55    56    1
    91    51    53   am
    92    51    50    1
    93    76    75    2
    94    57    56    2
    95    46    47    1
    96    56    62   am
    97    47    50    1
    98    47    48    1
    99    99    98   ar
   100    74    75    1
   101    74    73    1
   102    75    81   am
   103   100    98   ar
   104    98    97    1
   105    62    63    1
   106    70    68   ar
   107    70    72   ar
   108    48    49    2
   109    97    94    1
   110    94    95    1
   111    94    93    1
   112    81    82    1
   113    68    67   ar
   114    88    87    2
   115    82    83    1
   116    95    96    2
   117    93    87   am
   118    84    83    2
   119    72    71   ar
   120    63    64    1
   121    63    66    1
   122    83    85   am
   123    87    86    1
   124    85    86    1
   125    64    65    2
   126    67    66    1
   127    67    69   ar
   128    86    89    1
   129    71    69   ar
   130   202   200   ar
   131    89    90    1
   132   200   201   ar
   133   200   199    1
   134   193   192   ar
   135   193   191   ar
   136   192   190   ar
   137   183   182   ar
   138   183   181   ar
   139    92    90    1
   140   182   180   ar
   141    90    91    1
   142   172   173    1
   143   172   171    1
   144   145   144    1
   145   199   198    1
   146   173   167    1
   147   161   160    1
   148   191   189   ar
   149   152   151    1
   150   146   144    1
   151   190   189   ar
   152   181   179   ar
   153   180   179   ar
   154   153   151    1
   155   144   141    1
   156   165   164    2
   157   171   168    1
   158   198   195    1
   159   189   188    1
   160   179   178    1
   161   151   148    1
   162   167   164   am
   163   167   168    1
   164   164   163    1
   165   160   159    1
   166   168   169    1
   167   141   142    1
   168   141   140    1
   169   197   196    2
   170   195   196    1
   171   195   194    1
   172   142   143    2
   173   178   175    1
   174   188   185    1
   175   148   149    1
   176   148   147    1
   177   159   158    1
   178   163   166    1
   179   163   162    1
   180   150   149    2
   181   169   170    2
   182   184   185    1
   183   184   176   am
   184   185   186    1
   185   162   156   am
   186   175   176    1
   187   175   174    1
   188   176   177    2
   189   158   155    1
   190   156   155    1
   191   156   157    2
   192   186   187    2
   193   155   154    1
