@<TRIPOS>MOLECULE
tmp/5jnwA00.pdb
 115 112 0 0 0
SMALL
GASTEIGER

@<TRIPOS>ATOM
      1  N         80.5590   18.0010   -4.6180 N.3     9  CYS9       -0.1221
      2  CA        81.0360   19.0990   -5.5220 C.3     9  CYS9        0.1808
      3  C         82.2080   18.6850   -6.2950 C.2     9  CYS9        0.2601
      4  O         82.4980   17.4440   -6.2900 O.2     9  CYS9       -0.2717
      5  CB        81.2830   20.4780   -4.6980 C.3     9  CYS9        0.0970
      6  SG        82.6690   20.4220   -3.5430 S.3     9  CYS9       -0.0800
      7  N         82.8140   19.6110   -7.0670 N.am   10  LEU10      -0.1965
      8  CA        83.9950   19.2760   -7.9480 C.3    10  LEU10       0.1728
      9  C         85.1830   18.6850   -7.1070 C.2    10  LEU10       0.2616
     10  O         85.6410   17.5550   -7.4010 O.2    10  LEU10      -0.2715
     11  CB        84.4520   20.5050   -8.7310 C.3    10  LEU10       0.0311
     12  CG        85.5960   20.2290   -9.7780 C.3    10  LEU10       0.0022
     13  CD1       85.1920   18.9660  -10.5190 C.3    10  LEU10       0.0001
     14  CD2       85.7490   21.3670  -10.8460 C.3    10  LEU10       0.0001
     15  N         85.6390   19.4590   -6.1220 N.am   11  GLY11      -0.1955
     16  CA        86.8580   19.1740   -5.4000 C.3    11  GLY11       0.1869
     17  C         86.7920   18.6120   -3.9550 C.2    11  GLY11       0.2309
     18  O         87.7770   18.1490   -3.4120 O.2    11  GLY11      -0.2863
     19  N         86.5580   20.4710   -1.2300 N.3    13  ILE13      -0.1231
     20  CA        87.3540   21.3660   -0.3400 C.3    13  ILE13       0.1692
     21  C         86.6240   22.6480    0.0270 C.2    13  ILE13       0.2592
     22  O         86.9200   23.2350    1.0920 O.2    13  ILE13      -0.2718
     23  CB        88.8020   21.6760   -0.7240 C.3    13  ILE13       0.0266
     24  CG1       88.7980   22.4570   -2.0740 C.3    13  ILE13       0.0019
     25  CG2       89.6170   20.2950   -0.6820 C.3    13  ILE13       0.0020
     26  CD1       90.1310   23.2130   -2.4420 C.3    13  ILE13       0.0001
     27  N         85.5920   23.0370   -0.7550 N.am   14  CYS14      -0.1956
     28  CA        84.8280   24.2450   -0.4730 C.3    14  CYS14       0.1843
     29  C         83.3520   23.9750   -0.1230 C.2    14  CYS14       0.2625
     30  O         82.9740   23.8640    1.0560 O.2    14  CYS14      -0.2714
     31  CB        84.9530   25.3810   -1.5500 C.3    14  CYS14       0.0997
     32  SG        86.6670   25.7440   -2.1040 S.3    14  CYS14      -0.0797
     33  N         82.5210   23.7910   -1.1460 N.am   15  ARG15      -0.1977
     34  CA        81.0240   23.6850   -0.9580 C.3    15  ARG15       0.1597
     35  C         80.5520   22.4440   -0.2030 C.2    15  ARG15       0.2287
     36  O         79.7780   22.6410    0.7000 O.2    15  ARG15      -0.2864
     37  CB        80.3190   23.7450   -2.3040 C.3    15  ARG15       0.0334
     38  CG        80.4670   25.0790   -3.0070 C.3    15  ARG15       0.0492
     39  CD        79.9470   25.0620   -4.3930 C.3    15  ARG15       0.2205
     40  NE        80.9060   24.3390   -5.2520 N.pl3  15  ARG15      -0.0865
     41  CZ        80.7560   24.0610   -6.5550 C.cat  15  ARG15       0.5346
     42  NH1       79.7090   24.4560   -7.3070 N.pl3  15  ARG15       0.1354
     43  NH2       81.7370   23.3400   -7.1590 N.pl3  15  ARG15       0.1354
     44  N         89.6460   14.3960   -8.8550 N.3    45  ASP45      -0.1225
     45  CA        91.0670   14.2050   -8.4300 C.3    45  ASP45       0.1805
     46  C         91.8060   15.3120   -7.6490 C.2    45  ASP45       0.2598
     47  O         92.8000   15.0800   -6.9880 O.2    45  ASP45      -0.2718
     48  CB        91.9090   14.2700   -9.8290 C.3    45  ASP45       0.1424
     49  CG        92.4050   12.9280  -10.3650 C.2    45  ASP45       0.3668
     50  OD1       93.6360   12.6700  -10.4110 O.co2  45  ASP45      -0.2456
     51  OD2       91.6480   12.1130  -10.8700 O.co2  45  ASP45      -0.2456
     52  N         91.4500   16.5530   -7.9410 N.am   46  TYR46      -0.1962
     53  CA        92.3550   17.6850   -7.6990 C.3    46  TYR46       0.1771
     54  C         92.8590   17.8600   -6.2890 C.2    46  TYR46       0.2619
     55  O         93.9920   18.3050   -6.1210 O.2    46  TYR46      -0.2715
     56  CB        91.6800   19.0120   -8.1860 C.3    46  TYR46       0.0574
     57  CG        91.3250   19.1020   -9.6260 C.ar   46  TYR46      -0.0198
     58  CD1       91.9540   18.3240  -10.5650 C.ar   46  TYR46      -0.0009
     59  CD2       90.3840   20.0240  -10.0740 C.ar   46  TYR46      -0.0009
     60  CE1       91.6740   18.4190  -11.8610 C.ar   46  TYR46       0.0417
     61  CE2       90.0680   20.1450  -11.4440 C.ar   46  TYR46       0.0417
     62  CZ        90.7370   19.3150  -12.3350 C.ar   46  TYR46       0.1957
     63  OH        90.5270   19.3690  -13.6840 O.3    46  TYR46      -0.2866
     64  N         91.9960   17.5370   -5.2900 N.am   47  GLU47      -0.1977
     65  CA        92.2910   17.6660   -3.8420 C.3    47  GLU47       0.1602
     66  C         92.2610   16.3720   -2.8980 C.2    47  GLU47       0.2287
     67  O         92.2230   16.5850   -1.6390 O.2    47  GLU47      -0.2864
     68  CB        91.5060   18.8320   -3.1850 C.3    47  GLU47       0.0415
     69  CG        91.2970   20.1550   -4.0230 C.3    47  GLU47       0.1163
     70  CD        92.5090   21.1930   -4.0890 C.2    47  GLU47       0.3649
     71  OE1       93.3880   21.2210   -3.1830 O.co2  47  GLU47      -0.2457
     72  OE2       92.6080   21.9830   -5.1160 O.co2  47  GLU47      -0.2457
     73  N         93.1200   16.2870    1.1840 N.3    50  ARG50      -0.1245
     74  CA        93.3440   17.5360    1.7910 C.3    50  ARG50       0.1563
     75  C         92.1530   17.9250    2.7130 C.2    50  ARG50       0.2260
     76  O         91.0390   17.5670    2.4480 O.2    50  ARG50      -0.2867
     77  CB        93.5260   18.6210    0.7060 C.3    50  ARG50       0.0307
     78  CG        94.8400   18.4740   -0.1090 C.3    50  ARG50       0.0489
     79  CD        95.2610   19.6210   -1.0220 C.3    50  ARG50       0.2205
     80  NE        96.1270   19.0800   -2.1330 N.pl3  50  ARG50      -0.0865
     81  CZ        96.2950   19.5840   -3.3800 C.cat  50  ARG50       0.5346
     82  NH1       95.7270   20.7210   -3.7430 N.pl3  50  ARG50       0.1354
     83  NH2       97.0600   18.9260   -4.2640 N.pl3  50  ARG50       0.1354
     84  N         80.6750   27.5630   -7.4840 N.3   126  ASP126     -0.1239
     85  CA        82.0260   27.2800   -7.0130 C.3   126  ASP126      0.1674
     86  C         82.7870   28.5800   -6.5860 C.2   126  ASP126      0.2266
     87  O         82.9490   29.5070   -7.4550 O.2   126  ASP126     -0.2867
     88  CB        82.8570   26.5760   -8.1730 C.3   126  ASP126      0.1410
     89  CG        84.1890   26.0980   -7.7300 C.2   126  ASP126      0.3668
     90  OD1       84.7380   26.4590   -6.5950 O.co2 126  ASP126     -0.2456
     91  OD2       84.8250   25.2800   -8.5820 O.co2 126  ASP126     -0.2456
     92  N         85.8210   28.8770   -5.4000 N.3   128  TYR128     -0.1227
     93  CA        87.3240   28.7440   -5.2380 C.3   128  TYR128      0.1736
     94  C         88.1610   30.0240   -5.6330 C.2   128  TYR128      0.2592
     95  O         89.2210   30.3050   -5.0350 O.2   128  TYR128     -0.2718
     96  CB        87.7550   27.4970   -6.0520 C.3   128  TYR128      0.0548
     97  CG        89.2340   27.2670   -6.1750 C.ar  128  TYR128     -0.0200
     98  CD1       89.8640   26.6470   -5.1910 C.ar  128  TYR128     -0.0009
     99  CD2       89.9580   27.6680   -7.2370 C.ar  128  TYR128     -0.0009
    100  CE1       91.2350   26.3120   -5.2600 C.ar  128  TYR128      0.0417
    101  CE2       91.3610   27.3950   -7.3570 C.ar  128  TYR128      0.0417
    102  CZ        91.9920   26.6750   -6.3260 C.ar  128  TYR128      0.1957
    103  OH        93.3210   26.2670   -6.2730 O.3   128  TYR128     -0.2866
    104  N         87.7620   30.6120   -6.7070 N.am  129  TYR129     -0.2029
    105  CA        88.4190   31.8120   -7.2120 C.3   129  TYR129      0.1325
    106  C         87.7030   33.1380   -6.9000 C.3   129  TYR129      0.2039
    107  O         87.7950   34.1310   -7.7270 O.3   129  TYR129     -0.2185
    108  CB        88.4320   31.7360   -8.6770 C.3   129  TYR129      0.0507
    109  CG        89.2640   30.7050   -9.2950 C.ar  129  TYR129     -0.0202
    110  CD1       90.5790   30.5780   -8.9960 C.ar  129  TYR129     -0.0009
    111  CD2       88.7510   30.0820  -10.4780 C.ar  129  TYR129     -0.0009
    112  CE1       91.3670   29.6640   -9.6870 C.ar  129  TYR129      0.0417
    113  CE2       89.5060   29.2150  -11.2170 C.ar  129  TYR129      0.0417
    114  CZ        90.8080   29.0050  -10.8690 C.ar  129  TYR129      0.1957
    115  OH        91.4570   28.0780  -11.6600 O.3   129  TYR129     -0.2866
@<TRIPOS>BOND
     1    63    62    1
     2    62    60   ar
     3    62    61   ar
     4    60    58   ar
     5   115   114    1
     6    61    59   ar
     7   113   114   ar
     8   113   111   ar
     9    51    49   ar
    10   114   112   ar
    11    14    12    1
    12    58    57   ar
    13    13    12    1
    14   111   109   ar
    15    50    49   ar
    16    49    48    1
    17    59    57   ar
    18    48    45    1
    19    12    11    1
    20   112   110   ar
    21    57    56    1
    22   109   110   ar
    23   109   108    1
    24    44    45    1
    25    11     8    1
    26   108   105    1
    27    91    89   ar
    28    45    46    1
    29    56    53    1
    30    88    89    1
    31    88    85    1
    32     8     9    1
    33     8     7    1
    34    52    53    1
    35    52    46   am
    36    89    90   ar
    37   107   106    1
    38    53    54    1
    39    46    47    2
    40    84    85    1
    41    87    86    2
    42    10     9    2
    43   101    99   ar
    44   101   102   ar
    45    42    41    1
    46    99    97   ar
    47   105   106    1
    48   105   104    1
    49    43    41    1
    50     9    15   am
    51     7     3   am
    52    85    86    1
    53   104    94   am
    54    41    40    2
    55   102   103    1
    56   102   100   ar
    57     3     4    2
    58     3     2    1
    59    54    55    2
    60    54    64   am
    61    97    96    1
    62    97    98   ar
    63    15    16    1
    64    96    93    1
    65    94    93    1
    66    94    95    2
    67     2     5    1
    68     2     1    1
    69    92    93    1
    70    16    17    1
    71    64    65    1
    72   100    98   ar
    73    40    39    1
    74    72    70   ar
    75     5     6    1
    76    39    38    1
    77    83    81    1
    78    70    69    1
    79    70    71   ar
    80    69    68    1
    81    17    18    2
    82    65    68    1
    83    65    66    1
    84    82    81    1
    85    81    80    2
    86    38    37    1
    87    66    67    2
    88    26    24    1
    89    37    34    1
    90    80    79    1
    91    32    31    1
    92    24    23    1
    93    31    28    1
    94    19    20    1
    95    33    34    1
    96    33    29   am
    97    79    78    1
    98    34    35    1
    99    27    28    1
   100    27    21   am
   101    23    25    1
   102    23    20    1
   103    28    29    1
   104    20    21    1
   105    35    36    2
   106    29    30    2
   107    78    77    1
   108    21    22    2
   109    77    74    1
   110    73    74    1
   111    74    75    1
   112    76    75    2
