@<TRIPOS>MOLECULE
tmp/5jo3A00.pdb
 126 117 0 0 0
SMALL
GASTEIGER

@<TRIPOS>ATOM
      1  N         19.2210    5.7070   15.1140 N.3    76  TYR76      -0.1241
      2  CA        18.0200    4.8950   15.0860 C.3    76  TYR76       0.1605
      3  C         17.2140    5.0230   16.3820 C.2    76  TYR76       0.2264
      4  O         16.0150    5.3020   16.3370 O.2    76  TYR76      -0.2867
      5  CB        18.3950    3.4340   14.7680 C.3    76  TYR76       0.0534
      6  CG        17.2460    2.4370   14.8470 C.ar   76  TYR76      -0.0201
      7  CD1       17.3110    1.3570   15.7250 C.ar   76  TYR76      -0.0009
      8  CD2       16.1070    2.5800   14.0600 C.ar   76  TYR76      -0.0009
      9  CE1       16.2620    0.4350   15.8170 C.ar   76  TYR76       0.0417
     10  CE2       15.0600    1.6570   14.1350 C.ar   76  TYR76       0.0417
     11  CZ        15.1420    0.5980   15.0160 C.ar   76  TYR76       0.1957
     12  OH        14.1090   -0.3140   15.0770 O.3    76  TYR76      -0.2866
     13  N         16.5150   -7.7320   23.4340 N.3   190  LEU190     -0.1245
     14  CA        16.4100   -8.8610   22.5110 C.3   190  LEU190      0.1561
     15  C         16.9850  -10.1490   23.1230 C.2   190  LEU190      0.2260
     16  O         16.5370  -11.2490   22.7790 O.2   190  LEU190     -0.2867
     17  CB        17.0570   -8.5260   21.1590 C.3   190  LEU190      0.0270
     18  CG        16.6190   -9.3720   19.9670 C.3   190  LEU190      0.0019
     19  CD1       15.1930   -9.0240   19.5700 C.3   190  LEU190      0.0001
     20  CD2       17.5950   -9.1610   18.8160 C.3   190  LEU190      0.0001
     21  N         10.3800   -4.2640   16.7220 N.3   230  LEU230     -0.1245
     22  CA        11.0390   -4.6990   15.4910 C.3   230  LEU230      0.1561
     23  C         10.2800   -4.3300   14.2330 C.2   230  LEU230      0.2260
     24  O         10.6920   -4.6890   13.1130 O.2   230  LEU230     -0.2867
     25  CB        11.3040   -6.2130   15.5050 C.3   230  LEU230      0.0270
     26  CG        12.2730   -6.7260   16.5630 C.3   230  LEU230      0.0019
     27  CD1       12.4170   -8.2220   16.4020 C.3   230  LEU230      0.0001
     28  CD2       13.6300   -6.0280   16.4530 C.3   230  LEU230      0.0001
     29  N          9.7880   -2.0410   12.1030 N.3   232  ALA232     -0.1231
     30  CA        10.3580   -1.4910   10.8640 C.3   232  ALA232      0.1694
     31  C         10.6140   -2.5820    9.8370 C.2   232  ALA232      0.2591
     32  O         10.5040   -2.3320    8.6250 O.2   232  ALA232     -0.2718
     33  CB        11.6570   -0.7370   11.1420 C.3   232  ALA232      0.0304
     34  N         10.9460   -3.7790   10.3280 N.am  233  ILE233     -0.1980
     35  CA        11.2870   -4.8920    9.4470 C.3   233  ILE233      0.1595
     36  C         10.0810   -5.3760    8.6430 C.2   233  ILE233      0.2287
     37  O         10.2280   -6.1480    7.6910 O.2   233  ILE233     -0.2864
     38  CB        11.9010   -6.0730   10.2670 C.3   233  ILE233      0.0276
     39  CG1       12.7850   -6.9560    9.3940 C.3   233  ILE233      0.0022
     40  CG2       10.8110   -6.9200   10.9320 C.3   233  ILE233      0.0022
     41  CD1       14.0780   -6.3070    8.9520 C.3   233  ILE233      0.0001
     42  N         11.0920    0.4630    5.0460 N.3   240  GLN240     -0.1245
     43  CA        11.9910   -0.4620    5.7200 C.3   240  GLN240      0.1566
     44  C         13.4560   -0.1970    5.3310 C.2   240  GLN240      0.2260
     45  O         14.3450   -0.2390    6.1780 O.2   240  GLN240     -0.2867
     46  CB        11.5680   -1.8990    5.4160 C.3   240  GLN240      0.0367
     47  CG        12.3960   -2.9800    6.1040 C.3   240  GLN240      0.0905
     48  CD        13.6760   -3.3250    5.3710 C.2   240  GLN240      0.2608
     49  OE1       13.8050   -3.1310    4.1430 O.2   240  GLN240     -0.2717
     50  NE2       14.6390   -3.8110    6.1140 N.am  240  GLN240     -0.0878
     51  N         14.7750    2.9180    7.0710 N.3   243  ILE243     -0.1231
     52  CA        15.0300    2.6860    8.4870 C.3   243  ILE243      0.1692
     53  C         16.2260    1.7570    8.6770 C.2   243  ILE243      0.2591
     54  O         17.0350    1.9840    9.5750 O.2   243  ILE243     -0.2718
     55  CB        13.7850    2.1680    9.2380 C.3   243  ILE243      0.0266
     56  CG1       12.7010    3.2570    9.2610 C.3   243  ILE243      0.0019
     57  CG2       14.1670    1.7730   10.6800 C.3   243  ILE243      0.0020
     58  CD1       11.2910    2.7570    9.5000 C.3   243  ILE243      0.0001
     59  N         16.3760    0.7480    7.8170 N.am  244  ALA244     -0.1980
     60  CA        17.5750   -0.1140    7.8710 C.3   244  ALA244      0.1597
     61  C         18.8710    0.6840    7.7550 C.2   244  ALA244      0.2287
     62  O         19.8690    0.3330    8.3860 O.2   244  ALA244     -0.2864
     63  CB        17.5200   -1.2130    6.8080 C.3   244  ALA244      0.0319
     64  N         19.5730    2.0820   11.2150 N.3   247  VAL247     -0.1245
     65  CA        20.0560    0.9890   12.0630 C.3   247  VAL247      0.1561
     66  C         21.5410    0.7620   11.7910 C.2   247  VAL247      0.2260
     67  O         22.3360    0.7140   12.7270 O.2   247  VAL247     -0.2867
     68  CB        19.2240   -0.3080   11.8410 C.3   247  VAL247      0.0252
     69  CG1       19.7690   -1.4530   12.6860 C.3   247  VAL247      0.0019
     70  CG2       17.7420   -0.0610   12.1730 C.3   247  VAL247      0.0019
     71  N         24.8490    1.2050   14.2950 N.3   251  PHE251     -0.1241
     72  CA        25.7380    0.0640   14.5170 C.3   251  PHE251      0.1605
     73  C         27.1730    0.3840   14.0850 C.2   251  PHE251      0.2264
     74  O         28.1270    0.0730   14.7970 O.2   251  PHE251     -0.2867
     75  CB        25.2390   -1.1830   13.7670 C.3   251  PHE251      0.0534
     76  CG        24.0530   -1.8710   14.3980 C.ar  251  PHE251     -0.0203
     77  CD1       23.7840   -1.7400   15.7510 C.ar  251  PHE251     -0.0042
     78  CD2       23.2430   -2.7020   13.6310 C.ar  251  PHE251     -0.0042
     79  CE1       22.6910   -2.4050   16.3270 C.ar  251  PHE251     -0.0003
     80  CE2       22.1490   -3.3800   14.2060 C.ar  251  PHE251     -0.0003
     81  CZ        21.8780   -3.2210   15.5430 C.ar  251  PHE251     -0.0000
     82  N         28.3440   -6.8370   11.7450 N.3   269  LEU269     -0.1245
     83  CA        27.1790   -5.9930   11.9900 C.3   269  LEU269      0.1561
     84  C         27.5640   -4.5470   12.2850 C.2   269  LEU269      0.2260
     85  O         26.8460   -3.5960   11.9230 O.2   269  LEU269     -0.2867
     86  CB        26.3760   -6.5610   13.1670 C.3   269  LEU269      0.0270
     87  CG        25.0390   -5.8720   13.4420 C.3   269  LEU269      0.0019
     88  CD1       24.0570   -6.1270   12.2920 C.3   269  LEU269      0.0001
     89  CD2       24.4730   -6.3480   14.7600 C.3   269  LEU269      0.0001
     90  N         22.8630  -10.3080    6.2060 N.3   281  MET281     -0.1230
     91  CA        22.5640  -10.2130    7.6360 C.3   281  MET281      0.1702
     92  C         21.1050   -9.8910    7.8920 C.2   281  MET281      0.2592
     93  O         20.5270  -10.4150    8.8500 O.2   281  MET281     -0.2718
     94  CB        23.4560   -9.1930    8.3260 C.3   281  MET281      0.0401
     95  CG        24.8930   -9.6680    8.4670 C.3   281  MET281      0.0596
     96  SD        25.9500   -8.5880    9.4550 S.3   281  MET281     -0.1393
     97  CE        25.7970   -7.0480    8.5690 C.3   281  MET281      0.0692
     98  N         20.5160   -9.0510    7.0460 N.am  282  GLN282     -0.1979
     99  CA        19.0820   -8.7660    7.1160 C.3   282  GLN282      0.1601
    100  C         18.2590  -10.0370    6.9120 C.2   282  GLN282      0.2287
    101  O         17.2950  -10.2900    7.6550 O.2   282  GLN282     -0.2864
    102  CB        18.6700   -7.6890    6.1060 C.3   282  GLN282      0.0394
    103  CG        19.1230   -6.2740    6.4870 C.3   282  GLN282      0.0908
    104  CD        18.4410   -5.7670    7.7540 C.2   282  GLN282      0.2608
    105  OE1       18.7980   -6.1670    8.8600 O.2   282  GLN282     -0.2717
    106  NE2       17.4400   -4.9030    7.5960 N.am  282  GLN282     -0.0878
    107  N         19.2850  -13.0930    7.4400 N.3   284  GLY284     -0.1210
    108  CA        19.5690  -13.9440    8.5900 C.3   284  GLY284      0.1956
    109  C         18.7530  -13.5250    9.8000 C.2   284  GLY284      0.2611
    110  O         18.2340  -14.3600   10.5420 O.2   284  GLY284     -0.2717
    111  N         18.6530  -12.2250   10.0110 N.am  285  PHE285     -0.1976
    112  CA        17.9010  -11.6560   11.1270 C.3   285  PHE285      0.1639
    113  C         16.3910  -11.9110   10.9870 C.2   285  PHE285      0.2290
    114  O         15.7110  -12.2630   11.9510 O.2   285  PHE285     -0.2864
    115  CB        18.1950  -10.1540   11.2150 C.3   285  PHE285      0.0560
    116  CG        17.5280   -9.4580   12.3710 C.ar  285  PHE285     -0.0200
    117  CD1       18.0130   -9.6190   13.6660 C.ar  285  PHE285     -0.0042
    118  CD2       16.4200   -8.6310   12.1530 C.ar  285  PHE285     -0.0042
    119  CE1       17.4100   -8.9580   14.7480 C.ar  285  PHE285     -0.0003
    120  CE2       15.8060   -7.9710   13.2360 C.ar  285  PHE285     -0.0003
    121  CZ        16.2970   -8.1510   14.5210 C.ar  285  PHE285     -0.0000
    122  N         16.0070  -15.6730   11.7110 N.3   288  ALA288     -0.1245
    123  CA        16.3470  -16.1310   13.0670 C.3   288  ALA288      0.1562
    124  C         15.5030  -15.4790   14.1530 C.2   288  ALA288      0.2260
    125  O         15.2470  -16.0960   15.1990 O.2   288  ALA288     -0.2867
    126  CB        17.8350  -15.9080   13.3600 C.3   288  ALA288      0.0290
@<TRIPOS>BOND
     1    49    48    2
     2    42    43    1
     3    44    43    1
     4    44    45    2
     5    48    47    1
     6    48    50   am
     7    46    43    1
     8    46    47    1
     9   102   103    1
    10   102    99    1
    11    90    91    1
    12   103   104    1
    13    63    60    1
    14   100    99    1
    15   100   101    2
    16    98    99    1
    17    98    92   am
    18    51    52    1
    19   107   108    1
    20   106   104   am
    21    91    92    1
    22    91    94    1
    23    37    36    2
    24   104   105    2
    25    61    60    1
    26    61    62    2
    27    59    60    1
    28    59    53   am
    29    92    93    2
    30    94    95    1
    31    95    96    1
    32    52    53    1
    33    52    55    1
    34    97    96    1
    35   108   109    1
    36    32    31    2
    37    36    35    1
    38    53    54    2
    39    41    39    1
    40    55    56    1
    41    55    57    1
    42    56    58    1
    43    39    38    1
    44    35    38    1
    45    35    34    1
    46   109   111   am
    47   109   110    2
    48    31    34   am
    49    31    30    1
    50   111   112    1
    51    38    40    1
    52    30    33    1
    53    30    29    1
    54   113   112    1
    55   113   114    2
    56   112   115    1
    57    64    65    1
    58   115   116    1
    59   122   123    1
    60    82    83    1
    61    66    65    1
    62    66    67    2
    63    68    65    1
    64    68    70    1
    65    68    69    1
    66    85    84    2
    67    83    84    1
    68    83    86    1
    69   118   116   ar
    70   118   120   ar
    71    88    87    1
    72   116   117   ar
    73   123   126    1
    74   123   124    1
    75    24    23    2
    76    86    87    1
    77   120   121   ar
    78    87    89    1
    79    78    80   ar
    80    78    76   ar
    81   117   119   ar
    82    75    76    1
    83    75    72    1
    84     8    10   ar
    85     8     6   ar
    86    73    72    1
    87    73    74    2
    88    10    11   ar
    89   124   125    2
    90    80    81   ar
    91    23    22    1
    92    71    72    1
    93    76    77   ar
    94   121   119   ar
    95     5     6    1
    96     5     2    1
    97     6     7   ar
    98    11    12    1
    99    11     9   ar
   100     2     1    1
   101     2     3    1
   102    22    25    1
   103    22    21    1
   104    25    26    1
   105    81    79   ar
   106     7     9   ar
   107    77    79   ar
   108     4     3    2
   109    27    26    1
   110    28    26    1
   111    20    18    1
   112    19    18    1
   113    18    17    1
   114    17    14    1
   115    14    15    1
   116    14    13    1
   117    16    15    2
