@<TRIPOS>MOLECULE
tmp/5jo9A00.pdb
 161 158 0 0 0
SMALL
GASTEIGER

@<TRIPOS>ATOM
      1  N         73.1000  110.0160  102.5290 N.3    16  ILE16      -0.1245
      2  CA        72.0100  110.2630  103.4670 C.3    16  ILE16       0.1561
      3  C         70.6810  110.3350  102.7260 C.2    16  ILE16       0.2260
      4  O         69.6790  109.7540  103.1580 O.2    16  ILE16      -0.2867
      5  CB        72.2850  111.5450  104.2760 C.3    16  ILE16       0.0252
      6  CG1       73.6580  111.4500  104.9540 C.3    16  ILE16       0.0019
      7  CG2       71.1690  111.7820  105.2940 C.3    16  ILE16       0.0019
      8  CD1       73.9870  112.5930  105.9110 C.3    16  ILE16       0.0001
      9  N         81.0050  118.9410   99.4320 N.3    89  TYR89      -0.1241
     10  CA        82.0230  119.2360  100.4280 C.3    89  TYR89       0.1605
     11  C         83.2150  119.9200   99.7760 C.2    89  TYR89       0.2264
     12  O         83.5860  119.5980   98.6440 O.2    89  TYR89      -0.2867
     13  CB        82.4870  117.9590  101.1400 C.3    89  TYR89       0.0534
     14  CG        83.4070  118.2140  102.3120 C.ar   89  TYR89      -0.0201
     15  CD1       84.7590  118.4570  102.1180 C.ar   89  TYR89      -0.0009
     16  CD2       82.9230  118.2080  103.6130 C.ar   89  TYR89      -0.0009
     17  CE1       85.6000  118.6920  103.1820 C.ar   89  TYR89       0.0417
     18  CE2       83.7590  118.4400  104.6850 C.ar   89  TYR89       0.0417
     19  CZ        85.0970  118.6820  104.4640 C.ar   89  TYR89       0.1957
     20  OH        85.9400  118.9150  105.5260 O.3    89  TYR89      -0.2866
     21  N         74.4330  120.0020  109.2790 N.3   137  SER137     -0.1202
     22  CA        75.6150  119.2830  109.7290 C.3   137  SER137      0.2020
     23  C         76.0210  119.7910  111.1010 C.2   137  SER137      0.2619
     24  O         75.5850  120.8550  111.5480 O.2   137  SER137     -0.2717
     25  CB        76.7780  119.4440  108.7480 C.3   137  SER137      0.2103
     26  OG        77.9590  118.8570  109.2630 O.3   137  SER137     -0.2182
     27  N         76.8670  119.0000  111.7630 N.am  138  LEU138     -0.1965
     28  CA        77.5080  119.4540  112.9910 C.3   138  LEU138      0.1728
     29  C         78.2560  120.7610  112.7690 C.2   138  LEU138      0.2616
     30  O         78.3700  121.5760  113.6910 O.2   138  LEU138     -0.2715
     31  CB        78.4530  118.3650  113.5000 C.3   138  LEU138      0.0311
     32  CG        79.4470  118.6860  114.6170 C.3   138  LEU138      0.0022
     33  CD1       78.7410  118.9100  115.9450 C.3   138  LEU138      0.0001
     34  CD2       80.4560  117.5520  114.7200 C.3   138  LEU138      0.0001
     35  N         78.7600  120.9820  111.5520 N.am  139  ALA139     -0.1977
     36  CA        79.4540  122.2250  111.2390 C.3   139  ALA139      0.1597
     37  C         78.5330  123.4350  111.3210 C.2   139  ALA139      0.2287
     38  O         79.0220  124.5700  111.3760 O.2   139  ALA139     -0.2864
     39  CB        80.0770  122.1380  109.8450 C.3   139  ALA139      0.0319
     40  N         84.4540  125.0390  112.3870 N.3   144  THR144     -0.1218
     41  CA        85.4930  124.0710  112.0640 C.3   144  THR144      0.1862
     42  C         86.6020  124.7420  111.2550 C.2   144  THR144      0.2287
     43  O         86.3470  125.1880  110.1260 O.2   144  THR144     -0.2866
     44  CB        84.8980  122.9120  111.2720 C.3   144  THR144      0.1770
     45  OG1       84.2940  123.4220  110.0810 O.3   144  THR144     -0.2211
     46  CG2       83.8420  122.1770  112.0910 C.3   144  THR144      0.0375
     47  N         89.0260  123.6810  109.4600 N.3   146  TRP146     -0.1227
     48  CA        89.5440  123.0280  108.2610 C.3   146  TRP146      0.1737
     49  C         88.5350  122.9430  107.1210 C.2   146  TRP146      0.2595
     50  O         88.8720  122.4140  106.0580 O.2   146  TRP146     -0.2718
     51  CB        90.0610  121.6170  108.5880 C.3   146  TRP146      0.0564
     52  CG        89.0270  120.6590  109.1230 C.ar  146  TRP146      0.0003
     53  CD1       88.0890  119.9720  108.4060 C.ar  146  TRP146      0.0946
     54  CD2       88.8520  120.2680  110.4890 C.ar  146  TRP146      0.0152
     55  NE1       87.3330  119.1880  109.2450 N.ar  146  TRP146     -0.2442
     56  CE2       87.7820  119.3520  110.5290 C.ar  146  TRP146      0.0810
     57  CE3       89.4930  120.6090  111.6830 C.ar  146  TRP146      0.0012
     58  CZ2       87.3390  118.7730  111.7180 C.ar  146  TRP146      0.0191
     59  CZ3       89.0520  120.0350  112.8610 C.ar  146  TRP146      0.0001
     60  CH2       87.9830  119.1300  112.8700 C.ar  146  TRP146      0.0015
     61  N         87.3180  123.4520  107.2990 N.am  147  GLU147     -0.1979
     62  CA        86.3220  123.4950  106.2260 C.3   147  GLU147      0.1602
     63  C         85.6120  124.8420  106.2780 C.2   147  GLU147      0.2287
     64  O         84.4430  124.9400  106.6670 O.2   147  GLU147     -0.2864
     65  CB        85.3450  122.3210  106.3380 C.3   147  GLU147      0.0415
     66  CG        84.7680  122.0970  107.7260 C.3   147  GLU147      0.1163
     67  CD        84.2120  120.6960  107.9290 C.2   147  GLU147      0.3649
     68  OE1       84.5820  119.7830  107.1630 O.co2 147  GLU147     -0.2457
     69  OE2       83.4070  120.5090  108.8650 O.co2 147  GLU147     -0.2457
     70  N         82.5470  124.9910  103.7930 N.3   150  TYR150     -0.1241
     71  CA        81.4650  124.0600  104.0970 C.3   150  TYR150      0.1605
     72  C         80.7080  124.4750  105.3530 C.2   150  TYR150      0.2264
     73  O         79.4740  124.5390  105.3510 O.2   150  TYR150     -0.2867
     74  CB        82.0300  122.6470  104.2540 C.3   150  TYR150      0.0534
     75  CG        81.0010  121.6060  104.6190 C.ar  150  TYR150     -0.0201
     76  CD1       80.1540  121.0720  103.6610 C.ar  150  TYR150     -0.0009
     77  CD2       80.8830  121.1520  105.9250 C.ar  150  TYR150     -0.0009
     78  CE1       79.2120  120.1210  103.9930 C.ar  150  TYR150      0.0417
     79  CE2       79.9450  120.2010  106.2680 C.ar  150  TYR150      0.0417
     80  CZ        79.1120  119.6880  105.2970 C.ar  150  TYR150      0.1957
     81  OH        78.1740  118.7390  105.6290 O.3   150  TYR150     -0.2866
     82  N         74.2100  116.1930  111.5550 N.3   180  PRO180     -0.2102
     83  CA        75.0570  115.0530  111.9130 C.3   180  PRO180      0.1504
     84  C         76.5440  115.3410  111.7770 C.2   180  PRO180      0.2576
     85  O         76.9830  116.1480  110.9560 O.2   180  PRO180     -0.2718
     86  CB        74.6200  113.9820  110.9040 C.3   180  PRO180      0.0282
     87  CG        74.2530  114.7640  109.6970 C.3   180  PRO180      0.0208
     88  CD        73.6390  116.0440  110.2030 C.3   180  PRO180      0.0893
     89  N         77.3250  114.6480  112.6050 N.am  181  GLY181     -0.1943
     90  CA        78.7630  114.6670  112.4910 C.3   181  GLY181      0.1998
     91  C         79.1980  114.0070  111.1980 C.2   181  GLY181      0.2481
     92  O         78.4220  113.9080  110.2430 O.2   181  GLY181     -0.2729
     93  N         80.4430  113.5370  111.1340 N.am  182  PRO182     -0.2715
     94  CA        80.8910  112.8430  109.9220 C.3   182  PRO182      0.1536
     95  C         80.1890  111.5050  109.7650 C.2   182  PRO182      0.2598
     96  O         79.9370  110.7910  110.7390 O.2   182  PRO182     -0.2715
     97  CB        82.4000  112.6690  110.1400 C.3   182  PRO182      0.0310
     98  CG        82.7470  113.5960  111.2680 C.3   182  PRO182      0.0237
     99  CD        81.5250  113.6400  112.1240 C.3   182  PRO182      0.0939
    100  N         79.8720  111.1710  108.5170 N.am  183  VAL183     -0.1978
    101  CA        79.1640  109.9430  108.1960 C.3   183  VAL183      0.1596
    102  C         79.8310  109.3080  106.9840 C.2   183  VAL183      0.2287
    103  O         80.3350  109.9990  106.0930 O.2   183  VAL183     -0.2864
    104  CB        77.6610  110.2020  107.9350 C.3   183  VAL183      0.0276
    105  CG1       77.0830  111.1060  109.0210 C.3   183  VAL183      0.0022
    106  CG2       77.4400  110.8250  106.5640 C.3   183  VAL183      0.0022
    107  N         80.5550  108.1940  103.6270 N.3   185  SER185     -0.1217
    108  CA        80.0440  108.7420  102.3800 C.3   185  SER185      0.1889
    109  C         81.1930  108.8840  101.3980 C.2   185  SER185      0.2288
    110  O         82.3480  109.0550  101.7980 O.2   185  SER185     -0.2866
    111  CB        79.3690  110.1010  102.6070 C.3   185  SER185      0.2089
    112  OG        78.9280  110.6690  101.3860 O.3   185  SER185     -0.2183
    113  N         81.7200  111.3820   99.9640 N.3   187  LEU187     -0.1231
    114  CA        82.2440  112.6900  100.3280 C.3   187  LEU187      0.1693
    115  C         83.4100  112.6020  101.2990 C.2   187  LEU187      0.2591
    116  O         84.0800  113.6150  101.5270 O.2   187  LEU187     -0.2718
    117  CB        81.1300  113.5390  100.9430 C.3   187  LEU187      0.0284
    118  CG        80.0050  113.9310   99.9860 C.3   187  LEU187      0.0019
    119  CD1       78.7900  114.4180  100.7580 C.3   187  LEU187      0.0001
    120  CD2       80.4870  114.9970   99.0170 C.3   187  LEU187      0.0001
    121  N         83.6670  111.4300  101.8810 N.am  188  LEU188     -0.1980
    122  CA        84.8000  111.3060  102.7860 C.3   188  LEU188      0.1596
    123  C         86.1220  111.4400  102.0450 C.2   188  LEU188      0.2287
    124  O         87.1320  111.8000  102.6590 O.2   188  LEU188     -0.2864
    125  CB        84.7330  109.9720  103.5360 C.3   188  LEU188      0.0297
    126  CG        85.2850  109.9110  104.9680 C.3   188  LEU188      0.0022
    127  CD1       84.7980  111.0630  105.8470 C.3   188  LEU188      0.0001
    128  CD2       84.9110  108.5820  105.6110 C.3   188  LEU188      0.0001
    129  N         87.8060  115.0740  102.0330 N.3   191  TRP191     -0.1241
    130  CA        88.2890  115.6610  103.2680 C.3   191  TRP191      0.1605
    131  C         89.7580  116.0410  103.1580 C.2   191  TRP191      0.2264
    132  O         90.5010  115.4840  102.3460 O.2   191  TRP191     -0.2867
    133  CB        88.1150  114.6850  104.4230 C.3   191  TRP191      0.0550
    134  CG        86.7170  114.5580  104.8720 C.ar  191  TRP191      0.0003
    135  CD1       85.6270  114.3350  104.0910 C.ar  191  TRP191      0.0946
    136  CD2       86.2430  114.6370  106.2170 C.ar  191  TRP191      0.0152
    137  NE1       84.4950  114.2710  104.8650 N.ar  191  TRP191     -0.2442
    138  CE2       84.8480  114.4560  106.1760 C.ar  191  TRP191      0.0810
    139  CE3       86.8610  114.8480  107.4520 C.ar  191  TRP191      0.0012
    140  CZ2       84.0630  114.4720  107.3210 C.ar  191  TRP191      0.0191
    141  CZ3       86.0790  114.8690  108.5880 C.ar  191  TRP191      0.0001
    142  CH2       84.6950  114.6840  108.5150 C.ar  191  TRP191      0.0015
    143  N         84.0390  110.9460  118.2590 N.3   237  PHE237     -0.1241
    144  CA        84.5040  112.0100  117.3800 C.3   237  PHE237      0.1605
    145  C         84.6880  113.2730  118.2080 C.2   237  PHE237      0.2264
    146  O         83.7650  113.6980  118.9110 O.2   237  PHE237     -0.2867
    147  CB        83.5140  112.2450  116.2360 C.3   237  PHE237      0.0534
    148  CG        83.9770  113.2560  115.2300 C.ar  237  PHE237     -0.0203
    149  CD1       85.0660  112.9940  114.4230 C.ar  237  PHE237     -0.0042
    150  CD2       83.3130  114.4600  115.0800 C.ar  237  PHE237     -0.0042
    151  CE1       85.4970  113.9190  113.4930 C.ar  237  PHE237     -0.0003
    152  CE2       83.7380  115.3880  114.1490 C.ar  237  PHE237     -0.0003
    153  CZ        84.8320  115.1160  113.3550 C.ar  237  PHE237     -0.0000
    154  N         84.6790  116.8020  118.7970 N.3   239  LEU239     -0.1245
    155  CA        84.2080  118.1180  118.3660 C.3   239  LEU239      0.1561
    156  C         82.9700  118.5300  119.1580 C.2   239  LEU239      0.2260
    157  O         82.6410  119.7150  119.2510 O.2   239  LEU239     -0.2867
    158  CB        83.8880  118.1320  116.8690 C.3   239  LEU239      0.0270
    159  CG        84.0300  119.5100  116.2160 C.3   239  LEU239      0.0019
    160  CD1       85.4440  119.7000  115.6970 C.3   239  LEU239      0.0001
    161  CD2       83.0150  119.7140  115.1030 C.3   239  LEU239      0.0001
@<TRIPOS>BOND
     1    12    11    2
     2   120   118    1
     3     9    10    1
     4    11    10    1
     5   113   114    1
     6   118   119    1
     7   118   117    1
     8   114   117    1
     9   114   115    1
    10    10    13    1
    11    13    14    1
    12   115   116    2
    13   115   121   am
    14   112   111    1
    15   109   110    2
    16   109   108    1
    17   121   122    1
    18   129   130    1
    19   123   124    2
    20   123   122    1
    21    15    14   ar
    22    15    17   ar
    23    14    16   ar
    24   132   131    2
    25   108   111    1
    26   108   107    1
    27     1     2    1
    28     3     4    2
    29     3     2    1
    30   122   125    1
    31   131   130    1
    32    17    19   ar
    33   130   133    1
    34     2     5    1
    35   125   126    1
    36    16    18   ar
    37    76    78   ar
    38    76    75   ar
    39    70    71    1
    40    78    80   ar
    41   135   137   ar
    42   135   134   ar
    43    71    74    1
    44    71    72    1
    45    74    75    1
    46     5     6    1
    47     5     7    1
    48   133   134    1
    49    19    18   ar
    50    19    20    1
    51    75    77   ar
    52   137   138   ar
    53   134   136   ar
    54     6     8    1
    55   126   128    1
    56   126   127    1
    57    80    81    1
    58    80    79   ar
    59    73    72    2
    60    77    79   ar
    61    50    49    2
    62   103   102    2
    63   138   136   ar
    64   138   140   ar
    65   136   139   ar
    66    62    63    1
    67    62    65    1
    68    62    61    1
    69    63    64    2
    70    65    66    1
    71   106   104    1
    72   102   101    1
    73    49    61   am
    74    49    48    1
    75    68    67   ar
    76   140   142   ar
    77   139   141   ar
    78    66    67    1
    79    67    69   ar
    80   104   101    1
    81   104   105    1
    82   101   100    1
    83    48    51    1
    84    48    47    1
    85    53    52   ar
    86    53    55   ar
    87   142   141   ar
    88   100    95   am
    89    51    52    1
    90    25    26    1
    91    25    22    1
    92    52    54   ar
    93    55    56   ar
    94    21    22    1
    95    87    88    1
    96    87    86    1
    97    22    23    1
    98    95    94    1
    99    95    96    2
   100    39    36    1
   101    94    97    1
   102    94    93    1
   103    45    44    1
   104    43    42    2
   105    97    98    1
   106    88    82    1
   107    92    91    2
   108    54    56   ar
   109    54    57   ar
   110    56    58   ar
   111    86    83    1
   112    85    84    2
   113    23    24    2
   114    23    27   am
   115    93    91   am
   116    93    99    1
   117    91    90    1
   118    36    37    1
   119    36    35    1
   120    42    41    1
   121    98    99    1
   122    44    41    1
   123    44    46    1
   124    37    38    2
   125    35    29   am
   126    82    83    1
   127    57    59   ar
   128    58    60   ar
   129    27    28    1
   130    84    83    1
   131    84    89   am
   132    41    40    1
   133    90    89    1
   134    29    28    1
   135    29    30    2
   136    59    60   ar
   137    28    31    1
   138   153   151   ar
   139   153   152   ar
   140   151   149   ar
   141    31    32    1
   142   152   150   ar
   143   149   148   ar
   144    32    34    1
   145    32    33    1
   146   150   148   ar
   147   161   159    1
   148   148   147    1
   149   160   159    1
   150   159   158    1
   151   147   144    1
   152   158   155    1
   153   144   145    1
   154   144   143    1
   155   145   146    2
   156   155   154    1
   157   155   156    1
   158   156   157    2
