@<TRIPOS>MOLECULE
tmp/5jocA01.pdb
 89 84 0 0 0
SMALL
GASTEIGER

@<TRIPOS>ATOM
      1  N        -17.2480  100.0390    1.5030 N.3   144  ARG144     -0.1245
      2  CA       -18.1270   98.9250    1.0780 C.3   144  ARG144      0.1563
      3  C        -19.5070   99.5130    0.9450 C.2   144  ARG144      0.2260
      4  O        -20.0280  100.0430    1.9010 O.2   144  ARG144     -0.2867
      5  CB       -18.1580   97.8540    2.1110 C.3   144  ARG144      0.0307
      6  CG       -19.0260   96.6440    1.6990 C.3   144  ARG144      0.0489
      7  CD       -19.0870   95.6560    2.8390 C.3   144  ARG144      0.2205
      8  NE       -19.8010   94.3870    2.5500 N.pl3 144  ARG144     -0.0865
      9  CZ       -21.1270   94.2470    2.6220 C.cat 144  ARG144      0.5346
     10  NH1      -21.9010   95.2770    2.9230 N.pl3 144  ARG144      0.1354
     11  NH2      -21.6750   93.0420    2.3870 N.pl3 144  ARG144      0.1354
     12  N        -22.8450   97.7390   -0.6340 N.3   146  TYR146     -0.1241
     13  CA       -23.5570   96.6300   -1.2750 C.3   146  TYR146      0.1605
     14  C        -24.2250   97.0620   -2.5720 C.2   146  TYR146      0.2264
     15  O        -24.9340   98.0110   -2.5950 O.2   146  TYR146     -0.2867
     16  CB       -24.5830   96.0880   -0.2830 C.3   146  TYR146      0.0534
     17  CG       -25.4410   95.0200   -0.8770 C.ar  146  TYR146     -0.0201
     18  CD1      -24.9540   93.7730   -1.0440 C.ar  146  TYR146     -0.0009
     19  CD2      -26.7410   95.3130   -1.3650 C.ar  146  TYR146     -0.0009
     20  CE1      -25.7170   92.7630   -1.6480 C.ar  146  TYR146      0.0417
     21  CE2      -27.5120   94.3110   -1.9660 C.ar  146  TYR146      0.0417
     22  CZ       -26.9890   93.0350   -2.0650 C.ar  146  TYR146      0.1957
     23  OH       -27.7090   91.9500   -2.6590 O.3   146  TYR146     -0.2866
     24  N        -20.6720   86.2150    3.3410 N.3   268  GLU268     -0.1245
     25  CA       -20.3070   87.1460    4.4000 C.3   268  GLU268      0.1567
     26  C        -20.0800   86.3290    5.6950 C.2   268  GLU268      0.2260
     27  O        -20.7200   85.2800    5.9180 O.2   268  GLU268     -0.2867
     28  CB       -21.4200   88.2090    4.5600 C.3   268  GLU268      0.0388
     29  CG       -21.6320   88.9960    3.2990 C.3   268  GLU268      0.1160
     30  CD       -22.9380   89.7710    3.2580 C.2   268  GLU268      0.3649
     31  OE1      -23.7200   89.7080    4.2230 O.co2 268  GLU268     -0.2457
     32  OE2      -23.2130   90.4090    2.2160 O.co2 268  GLU268     -0.2457
     33  N        -27.1350   91.0810   12.3440 N.3   280  ILE280     -0.1245
     34  CA       -27.9280   92.0560   11.6090 C.3   280  ILE280      0.1561
     35  C        -27.2230   93.4400   11.4670 C.2   280  ILE280      0.2260
     36  O        -27.2470   93.9850   10.3830 O.2   280  ILE280     -0.2867
     37  CB       -29.3370   92.2070   12.2980 C.3   280  ILE280      0.0252
     38  CG1      -30.0630   90.8420   12.3710 C.3   280  ILE280      0.0019
     39  CG2      -30.1830   93.2300   11.5510 C.3   280  ILE280      0.0019
     40  CD1      -31.0000   90.7050   13.5630 C.3   280  ILE280      0.0001
     41  N        -26.1780  101.4000    3.4000 N.3   282  ALA282     -0.1245
     42  CA       -25.2940  102.5440    3.5930 C.3   282  ALA282      0.1562
     43  C        -23.8040  102.0910    3.3670 C.2   282  ALA282      0.2260
     44  O        -23.4750  100.9250    3.4880 O.2   282  ALA282     -0.2867
     45  CB       -25.4750  103.0610    4.9880 C.3   282  ALA282      0.0290
     46  N        -19.8090  101.8270    4.3190 N.3   284  HIS284     -0.1241
     47  CA       -18.9810  101.6970    5.5100 C.3   284  HIS284      0.1621
     48  C        -17.4850  101.4530    5.1510 C.2   284  HIS284      0.2264
     49  O        -17.1580  100.6560    4.2030 O.2   284  HIS284     -0.2867
     50  CB       -19.4730  100.5370    6.4010 C.3   284  HIS284      0.0745
     51  CG       -20.8240  100.7800    6.9900 C.ar  284  HIS284      0.0817
     52  ND1      -21.9440  100.0710    6.5930 N.ar  284  HIS284     -0.2268
     53  CD2      -21.2620  101.7350    7.8490 C.ar  284  HIS284      0.1154
     54  CE1      -23.0080  100.5590    7.1990 C.ar  284  HIS284      0.1986
     55  NE2      -22.6250  101.5710    7.9580 N.ar  284  HIS284     -0.2212
     56  N        -22.8320   83.3000    6.1630 N.3   302  HIS302     -0.1226
     57  CA       -24.2520   83.5030    5.7790 C.3   302  HIS302      0.1752
     58  C        -24.4600   84.4000    4.5570 C.2   302  HIS302      0.2596
     59  O        -23.5290   85.0800    4.0810 O.2   302  HIS302     -0.2718
     60  CB       -25.0270   84.0180    6.9680 C.3   302  HIS302      0.0759
     61  CG       -24.8240   85.4450    7.2610 C.ar  302  HIS302      0.0818
     62  ND1      -25.8410   86.2570    7.6970 N.ar  302  HIS302     -0.2268
     63  CD2      -23.7330   86.2270    7.2010 C.ar  302  HIS302      0.1154
     64  CE1      -25.3980   87.4840    7.8420 C.ar  302  HIS302      0.1986
     65  NE2      -24.1340   87.5010    7.4870 N.ar  302  HIS302     -0.2212
     66  N        -25.6850   84.3770    4.0310 N.am  303  LYS303     -0.1966
     67  CA       -26.1430   85.3240    3.0390 C.3   303  LYS303      0.1728
     68  C        -27.6860   85.3390    3.0210 C.2   303  LYS303      0.2616
     69  O        -28.3100   84.2720    3.0600 O.2   303  LYS303     -0.2715
     70  CB       -25.6280   84.9940    1.6300 C.3   303  LYS303      0.0311
     71  CG       -25.9080   86.0760    0.6010 C.3   303  LYS303      0.0038
     72  CD       -25.1330   87.3640    0.7770 C.3   303  LYS303      0.0206
     73  CE       -25.7560   88.5540    0.0730 C.3   303  LYS303      0.1093
     74  NZ       -26.9290   89.0630    0.8140 N.3   303  LYS303     -0.1314
     75  N        -28.2500   86.5110    2.9820 N.am  304  THR304     -0.1951
     76  CA       -29.6720   86.6520    2.8950 C.3   304  THR304      0.1897
     77  C        -30.0760   87.0000    1.4410 C.2   304  THR304      0.2313
     78  O        -29.2810   87.4680    0.6760 O.2   304  THR304     -0.2863
     79  CB       -30.1380   87.7080    3.9040 C.3   304  THR304      0.1794
     80  OG1      -31.5300   87.4860    4.1480 O.3   304  THR304     -0.2208
     81  CG2      -29.8810   89.1370    3.3740 C.3   304  THR304      0.0378
     82  N        -35.6240   90.6460    7.1190 N.3   334  ASN334     -0.1240
     83  CA       -34.3970   90.0000    7.4500 C.3   334  ASN334      0.1653
     84  C        -34.1830   89.7070    8.9270 C.2   334  ASN334      0.2266
     85  O        -33.6870   88.6340    9.2380 O.2   334  ASN334     -0.2867
     86  CB       -33.1980   90.7740    6.9050 C.3   334  ASN334      0.1155
     87  CG       -31.9930   89.8820    6.8170 C.2   334  ASN334      0.2627
     88  OD1      -32.1130   88.6770    6.5290 O.2   334  ASN334     -0.2716
     89  ND2      -30.8740   90.3880    7.1650 N.am  334  ASN334     -0.0877
@<TRIPOS>BOND
     1    23    22    1
     2    15    14    2
     3    14    13    1
     4    22    21   ar
     5    22    20   ar
     6    21    19   ar
     7    20    18   ar
     8    19    17   ar
     9    13    12    1
    10    13    16    1
    11    18    17   ar
    12    17    16    1
    13    73    72    1
    14    73    74    1
    15    71    72    1
    16    71    70    1
    17    78    77    2
    18     3     2    1
    19     3     4    2
    20     2     1    1
    21     2     5    1
    22    77    76    1
    23    70    67    1
    24     6     5    1
    25     6     7    1
    26    32    30   ar
    27    11     9    1
    28     8     9    2
    29     8     7    1
    30     9    10    1
    31    76    75    1
    32    76    79    1
    33    75    68   am
    34    68    67    1
    35    68    69    2
    36    67    66    1
    37    30    29    1
    38    30    31   ar
    39    29    28    1
    40    24    25    1
    41    43    44    2
    42    43    42    1
    43    81    79    1
    44    41    42    1
    45    42    45    1
    46    79    80    1
    47    66    58   am
    48    59    58    2
    49    49    48    2
    50    46    47    1
    51    25    28    1
    52    25    26    1
    53    58    57    1
    54    48    47    1
    55    47    50    1
    56    26    27    2
    57    57    56    1
    58    57    60    1
    59    50    51    1
    60    88    87    2
    61    52    51   ar
    62    52    54   ar
    63    87    86    1
    64    87    89   am
    65    86    83    1
    66    60    61    1
    67    51    53   ar
    68    82    83    1
    69    54    55   ar
    70    63    61   ar
    71    63    65   ar
    72    61    62   ar
    73    83    84    1
    74    65    64   ar
    75    62    64   ar
    76    53    55   ar
    77    84    85    2
    78    36    35    2
    79    35    34    1
    80    39    37    1
    81    34    37    1
    82    34    33    1
    83    37    38    1
    84    38    40    1
