@<TRIPOS>MOLECULE
tmp/5jocA00.pdb
 94 88 0 0 0
SMALL
GASTEIGER

@<TRIPOS>ATOM
      1  N        -32.7230   85.0510   -4.8630 N.3    59  GLY59      -0.1210
      2  CA       -32.4680   86.4360   -4.7160 C.3    59  GLY59       0.1956
      3  C        -30.8990   86.5660   -4.5000 C.2    59  GLY59       0.2611
      4  O        -30.1520   85.8910   -5.1240 O.2    59  GLY59      -0.2717
      5  N        -30.4810   87.4740   -3.6410 N.am   60  ALA60      -0.1979
      6  CA       -29.0440   87.7440   -3.4150 C.3    60  ALA60       0.1597
      7  C        -28.2440   86.5470   -2.8950 C.2    60  ALA60       0.2287
      8  O        -27.0310   86.5400   -2.9510 O.2    60  ALA60      -0.2864
      9  CB       -28.9220   88.9050   -2.4280 C.3    60  ALA60       0.0319
     10  N        -25.5910   85.3560   -5.1500 N.3    63  LYS63      -0.1245
     11  CA       -24.2010   85.9210   -5.0540 C.3    63  LYS63       0.1561
     12  C        -23.2010   84.8990   -4.5210 C.2    63  LYS63       0.2260
     13  O        -22.0130   85.0030   -4.8810 O.2    63  LYS63      -0.2867
     14  CB       -24.2050   87.2290   -4.2990 C.3    63  LYS63       0.0271
     15  CG       -24.9940   88.3000   -5.0180 C.3    63  LYS63       0.0035
     16  CD       -25.0860   89.5460   -4.1400 C.3    63  LYS63       0.0206
     17  CE       -25.7470   90.7540   -4.7100 C.3    63  LYS63       0.1093
     18  NZ       -27.2040   90.5520   -4.9400 N.3    63  LYS63      -0.1314
     19  N        -26.7240  100.4540   -6.0500 N.3   115  LEU115     -0.1231
     20  CA       -27.4370   99.2270   -5.6320 C.3   115  LEU115      0.1693
     21  C        -27.9560   98.4430   -6.7650 C.2   115  LEU115      0.2591
     22  O        -27.7290   97.2090   -6.8230 O.2   115  LEU115     -0.2718
     23  CB       -28.5760   99.6370   -4.7170 C.3   115  LEU115      0.0284
     24  CG       -29.4700   98.5280   -4.1100 C.3   115  LEU115      0.0019
     25  CD1      -28.6280   97.5030   -3.3830 C.3   115  LEU115      0.0001
     26  CD2      -30.5630   99.1700   -3.2060 C.3   115  LEU115      0.0001
     27  N        -28.6240   99.1220   -7.7010 N.am  116  GLN116     -0.1979
     28  CA       -29.1290   98.4860   -8.8900 C.3   116  GLN116      0.1601
     29  C        -28.5180   99.0230  -10.1460 C.2   116  GLN116      0.2287
     30  O        -28.2270  100.2300  -10.2560 O.2   116  GLN116     -0.2864
     31  CB       -30.6820   98.6840   -9.0090 C.3   116  GLN116      0.0394
     32  CG       -31.4530   98.1790   -7.8080 C.3   116  GLN116      0.0908
     33  CD       -31.3490   96.6650   -7.5850 C.2   116  GLN116      0.2608
     34  OE1      -30.8220   95.9210   -8.4020 O.2   116  GLN116     -0.2717
     35  NE2      -31.7980   96.2180   -6.3860 N.am  116  GLN116     -0.0878
     36  N        -22.8450   97.7390   -0.6340 N.3   146  TYR146     -0.1241
     37  CA       -23.5570   96.6300   -1.2750 C.3   146  TYR146      0.1605
     38  C        -24.2250   97.0620   -2.5720 C.2   146  TYR146      0.2264
     39  O        -24.9340   98.0110   -2.5950 O.2   146  TYR146     -0.2867
     40  CB       -24.5830   96.0880   -0.2830 C.3   146  TYR146      0.0534
     41  CG       -25.4410   95.0200   -0.8770 C.ar  146  TYR146     -0.0201
     42  CD1      -24.9540   93.7730   -1.0440 C.ar  146  TYR146     -0.0009
     43  CD2      -26.7410   95.3130   -1.3650 C.ar  146  TYR146     -0.0009
     44  CE1      -25.7170   92.7630   -1.6480 C.ar  146  TYR146      0.0417
     45  CE2      -27.5120   94.3110   -1.9660 C.ar  146  TYR146      0.0417
     46  CZ       -26.9890   93.0350   -2.0650 C.ar  146  TYR146      0.1957
     47  OH       -27.7090   91.9500   -2.6590 O.3   146  TYR146     -0.2866
     48  N        -25.6310   95.4500   -6.5120 N.3   148  ASN148     -0.1240
     49  CA       -25.7660   94.4770   -7.6050 C.3   148  ASN148      0.1653
     50  C        -24.9330   94.8240   -8.8480 C.2   148  ASN148      0.2266
     51  O        -24.4600   93.9100   -9.5280 O.2   148  ASN148     -0.2867
     52  CB       -27.2870   94.3060   -8.0250 C.3   148  ASN148      0.1155
     53  CG       -28.0830   93.7160   -6.9250 C.2   148  ASN148      0.2627
     54  OD1      -27.8830   92.5980   -6.5900 O.2   148  ASN148     -0.2716
     55  ND2      -28.9000   94.5180   -6.2730 N.am  148  ASN148     -0.0877
     56  N        -39.5380   86.9480  -10.2820 N.3   207  VAL207     -0.1245
     57  CA       -38.5540   88.0220  -10.4510 C.3   207  VAL207      0.1561
     58  C        -38.5230   88.5640  -11.9350 C.2   207  VAL207      0.2260
     59  O        -38.6730   87.8040  -12.9330 O.2   207  VAL207     -0.2867
     60  CB       -37.1460   87.5100  -10.0320 C.3   207  VAL207      0.0252
     61  CG1      -36.7020   86.4430  -10.9450 C.3   207  VAL207      0.0019
     62  CG2      -36.1440   88.7150   -9.9550 C.3   207  VAL207      0.0019
     63  N        -28.7770   87.9560   -8.8400 N.3   217  TYR217     -0.1241
     64  CA       -29.9590   87.5980   -8.0580 C.3   217  TYR217      0.1605
     65  C        -30.9200   86.6020   -8.7180 C.2   217  TYR217      0.2264
     66  O        -32.0540   86.4000   -8.2450 O.2   217  TYR217     -0.2867
     67  CB       -30.7360   88.8250   -7.7080 C.3   217  TYR217      0.0534
     68  CG       -31.1020   89.7220   -8.8940 C.ar  217  TYR217     -0.0201
     69  CD1      -32.2320   89.5010   -9.6710 C.ar  217  TYR217     -0.0009
     70  CD2      -30.3800   90.8980   -9.1740 C.ar  217  TYR217     -0.0009
     71  CE1      -32.5840   90.3740  -10.7120 C.ar  217  TYR217      0.0417
     72  CE2      -30.6840   91.7210  -10.2290 C.ar  217  TYR217      0.0417
     73  CZ       -31.7980   91.4660  -11.0120 C.ar  217  TYR217      0.1957
     74  OH       -32.1090   92.3230  -12.0300 O.3   217  TYR217     -0.2866
     75  N        -31.3420   86.7850    1.0510 N.3   305  GLY305     -0.1210
     76  CA       -31.8110   87.1580   -0.2360 C.3   305  GLY305      0.1956
     77  C        -33.3430   87.3900   -0.2260 C.2   305  GLY305      0.2612
     78  O        -34.0540   86.8930    0.6220 O.2   305  GLY305     -0.2717
     79  N        -33.8270   88.2580   -1.1020 N.am  306  ALA306     -0.1965
     80  CA       -35.2440   88.5440   -1.1490 C.3   306  ALA306      0.1728
     81  C        -35.5930   89.1420   -2.4560 C.2   306  ALA306      0.2617
     82  O        -35.4040   90.3080   -2.6350 O.2   306  ALA306     -0.2715
     83  CB       -35.6360   89.5100   -0.0560 C.3   306  ALA306      0.0334
     84  N        -36.2190   88.4030   -3.3250 N.am  307  THR307     -0.1937
     85  CA       -36.7820   89.0090   -4.5110 C.3   307  THR307      0.2028
     86  C        -38.1550   89.6380   -4.1280 C.2   307  THR307      0.2642
     87  O        -38.5660   89.5590   -2.9970 O.2   307  THR307     -0.2714
     88  CB       -37.0070   87.9810   -5.6400 C.3   307  THR307      0.1808
     89  OG1      -37.8770   86.9150   -5.1620 O.3   307  THR307     -0.2208
     90  CG2      -35.7290   87.3380   -6.0260 C.3   307  THR307      0.0379
     91  N        -38.8690   90.2140   -5.1080 N.am  308  GLY308     -0.1954
     92  CA       -40.1940   90.7540   -4.8620 C.3   308  GLY308      0.1869
     93  C        -41.0940   89.8300   -4.0500 C.2   308  GLY308      0.2309
     94  O        -41.8030   90.2800   -3.1320 O.2   308  GLY308     -0.2863
@<TRIPOS>BOND
     1    59    58    2
     2    74    73    1
     3    58    57    1
     4    73    71   ar
     5    73    72   ar
     6    61    60    1
     7    71    69   ar
     8    57    56    1
     9    57    60    1
    10    30    29    2
    11    72    70   ar
    12    29    28    1
    13    60    62    1
    14    69    68   ar
    15    51    50    2
    16    70    68   ar
    17    31    28    1
    18    31    32    1
    19    68    67    1
    20    28    27    1
    21    50    49    1
    22    63    64    1
    23    65    66    2
    24    65    64    1
    25    34    33    2
    26    64    67    1
    27    52    49    1
    28    52    53    1
    29    32    33    1
    30    27    21   am
    31    49    48    1
    32    33    35   am
    33    53    54    2
    34    53    55   am
    35    22    21    2
    36    21    20    1
    37    19    20    1
    38    90    88    1
    39    88    89    1
    40    88    85    1
    41    20    23    1
    42    10    11    1
    43     4     3    2
    44    91    92    1
    45    91    86   am
    46    11    12    1
    47    11    14    1
    48    15    14    1
    49    15    16    1
    50    18    17    1
    51    13    12    2
    52     1     2    1
    53    92    93    1
    54    23    24    1
    55     2     3    1
    56    17    16    1
    57    85    86    1
    58    85    84    1
    59     3     5   am
    60    86    87    2
    61    24    25    1
    62    24    26    1
    63    93    94    2
    64     5     6    1
    65     6     7    1
    66     6     9    1
    67    84    81   am
    68     8     7    2
    69    47    46    1
    70    82    81    2
    71    39    38    2
    72    38    37    1
    73    81    80    1
    74    46    45   ar
    75    46    44   ar
    76    45    43   ar
    77    44    42   ar
    78    43    41   ar
    79    37    36    1
    80    37    40    1
    81    80    79    1
    82    80    83    1
    83    79    77   am
    84    42    41   ar
    85    41    40    1
    86    76    77    1
    87    76    75    1
    88    77    78    2
