@<TRIPOS>MOLECULE
tmp/5jogA00.pdb
 162 156 0 0 0
SMALL
GASTEIGER

@<TRIPOS>ATOM
      1  N         25.8130  -34.2820   21.1750 N.3    73  GLU73      -0.1231
      2  CA        25.2730  -33.6230   19.9950 C.3    73  GLU73       0.1699
      3  C         25.1840  -34.6020   18.8290 C.2    73  GLU73       0.2592
      4  O         25.9160  -35.6020   18.7510 O.2    73  GLU73      -0.2718
      5  CB        26.0960  -32.3910   19.6050 C.3    73  GLU73       0.0402
      6  CG        26.0160  -31.2540   20.6090 C.3    73  GLU73       0.1161
      7  CD        26.7860  -31.4350   21.9020 C.2    73  GLU73       0.3649
      8  OE1       26.4560  -30.7100   22.8630 O.co2  73  GLU73      -0.2457
      9  OE2       27.6950  -32.2990   21.9710 O.co2  73  GLU73      -0.2457
     10  N         24.2560  -34.3010   17.9240 N.am   74  VAL74      -0.1966
     11  CA        23.9110  -35.1140   16.7750 C.3    74  VAL74       0.1727
     12  C         23.5610  -34.1500   15.6600 C.2    74  VAL74       0.2616
     13  O         23.1770  -33.0050   15.9350 O.2    74  VAL74      -0.2715
     14  CB        22.7080  -35.9880   17.2440 C.3    74  VAL74       0.0290
     15  CG1       21.3850  -35.6070   16.5870 C.3    74  VAL74       0.0023
     16  CG2       23.0180  -37.4780   17.1660 C.3    74  VAL74       0.0023
     17  N         23.6950  -34.5940   14.4060 N.am   75  MET75      -0.1977
     18  CA        23.3810  -33.7190   13.2820 C.3    75  MET75       0.1605
     19  C         22.9290  -34.4860   12.0780 C.2    75  MET75       0.2287
     20  O         23.1810  -35.6790   11.9730 O.2    75  MET75      -0.2864
     21  CB        24.5790  -32.7930   12.9500 C.3    75  MET75       0.0413
     22  CG        25.7620  -33.4890   12.2820 C.3    75  MET75       0.0598
     23  SD        26.8450  -32.2810   11.4800 S.3    75  MET75      -0.1393
     24  CE        25.8110  -31.8600   10.1360 C.3    75  MET75       0.0692
     25  N         20.8170  -33.9210    7.8250 N.3    77  LEU77      -0.1245
     26  CA        20.3650  -33.0280    6.7700 C.3    77  LEU77       0.1561
     27  C         18.8560  -32.9870    6.6120 C.2    77  LEU77       0.2260
     28  O         18.1340  -33.9230    6.9820 O.2    77  LEU77      -0.2867
     29  CB        21.0710  -33.3440    5.4380 C.3    77  LEU77       0.0270
     30  CG        22.6050  -33.1640    5.4450 C.3    77  LEU77       0.0019
     31  CD1       23.2560  -33.7910    4.1960 C.3    77  LEU77       0.0001
     32  CD2       22.9850  -31.7130    5.5920 C.3    77  LEU77       0.0001
     33  N         23.0760  -37.9220    9.9650 N.3    95  LEU95      -0.1245
     34  CA        24.4530  -37.9410    9.4440 C.3    95  LEU95       0.1561
     35  C         25.3360  -38.7110   10.4210 C.2    95  LEU95       0.2260
     36  O         25.2060  -38.4980   11.6360 O.2    95  LEU95      -0.2867
     37  CB        25.0490  -36.5550    9.1430 C.3    95  LEU95       0.0270
     38  CG        24.5720  -35.8580    7.8720 C.3    95  LEU95       0.0019
     39  CD1       25.1560  -34.5140    7.7740 C.3    95  LEU95       0.0001
     40  CD2       24.9500  -36.6210    6.6350 C.3    95  LEU95       0.0001
     41  N         20.4470  -27.9410    7.2970 N.3   126  TRP126     -0.1241
     42  CA        21.0280  -28.8790    8.2430 C.3   126  TRP126      0.1605
     43  C         20.3990  -28.6650    9.6320 C.2   126  TRP126      0.2264
     44  O         20.0190  -27.5460   10.0170 O.2   126  TRP126     -0.2867
     45  CB        22.6000  -28.7910    8.2970 C.3   126  TRP126      0.0550
     46  CG        23.1680  -27.6070    9.0370 C.ar  126  TRP126      0.0003
     47  CD1       22.9420  -26.2910    8.7640 C.ar  126  TRP126      0.0946
     48  CD2       24.1200  -27.6340   10.1170 C.ar  126  TRP126      0.0152
     49  NE1       23.6280  -25.4970    9.6510 N.ar  126  TRP126     -0.2442
     50  CE2       24.3640  -26.2940   10.4910 C.ar  126  TRP126      0.0810
     51  CE3       24.7350  -28.6630   10.8560 C.ar  126  TRP126      0.0012
     52  CZ2       25.2360  -25.9510   11.5420 C.ar  126  TRP126      0.0191
     53  CZ3       25.5830  -28.3320   11.9160 C.ar  126  TRP126      0.0001
     54  CH2       25.8450  -26.9930   12.2390 C.ar  126  TRP126      0.0015
     55  N         20.8660  -29.9250   13.9510 N.3   128  HIS128     -0.1241
     56  CA        21.7140  -30.4830   14.9800 C.3   128  HIS128      0.1621
     57  C         21.1380  -30.2130   16.3350 C.2   128  HIS128      0.2264
     58  O         20.3260  -29.3020   16.4990 O.2   128  HIS128     -0.2867
     59  CB        23.2030  -30.0590   14.8530 C.3   128  HIS128      0.0745
     60  CG        23.5000  -28.6850   15.3390 C.ar  128  HIS128      0.0817
     61  ND1       23.1420  -27.5740   14.6140 N.ar  128  HIS128     -0.2268
     62  CD2       24.1670  -28.2960   16.4360 C.ar  128  HIS128      0.1154
     63  CE1       23.5680  -26.5420   15.3010 C.ar  128  HIS128      0.1986
     64  NE2       24.1860  -26.9270   16.4140 N.ar  128  HIS128     -0.2212
     65  N         21.4940  -29.5900   20.7260 N.3   130  HIS130     -0.1241
     66  CA        22.1570  -28.9300   21.8690 C.3   130  HIS130      0.1621
     67  C         21.5390  -29.5990   23.1060 C.2   130  HIS130      0.2264
     68  O         20.5830  -29.0480   23.6540 O.2   130  HIS130     -0.2867
     69  CB        21.8690  -27.4020   21.8730 C.3   130  HIS130      0.0745
     70  CG        22.7310  -26.5830   20.9410 C.ar  130  HIS130      0.0817
     71  ND1       22.6800  -25.1970   20.9500 N.ar  130  HIS130     -0.2268
     72  CD2       23.6450  -26.9780   20.0150 C.ar  130  HIS130      0.1154
     73  CE1       23.5540  -24.7910   20.0390 C.ar  130  HIS130      0.1986
     74  NE2       24.1490  -25.8220   19.4360 N.ar  130  HIS130     -0.2212
     75  N         21.2250  -27.3080   26.5520 N.3   133  TYR133     -0.1241
     76  CA        21.5590  -25.8870   26.6270 C.3   133  TYR133      0.1605
     77  C         20.7070  -24.9110   25.7860 C.2   133  TYR133      0.2264
     78  O         20.9170  -23.7060   25.9160 O.2   133  TYR133     -0.2867
     79  CB        23.0490  -25.6070   26.3680 C.3   133  TYR133      0.0534
     80  CG        23.7430  -26.3550   25.2520 C.ar  133  TYR133     -0.0201
     81  CD1       24.1140  -27.6870   25.4110 C.ar  133  TYR133     -0.0009
     82  CD2       24.2470  -25.6750   24.1470 C.ar  133  TYR133     -0.0009
     83  CE1       24.8600  -28.3510   24.4430 C.ar  133  TYR133      0.0417
     84  CE2       25.0420  -26.3150   23.2010 C.ar  133  TYR133      0.0417
     85  CZ        25.3210  -27.6620   23.3370 C.ar  133  TYR133      0.1957
     86  OH        26.0520  -28.3160   22.3730 O.3   133  TYR133     -0.2866
     87  N         26.1700  -21.5370   18.2240 N.3   138  SER138     -0.1217
     88  CA        27.4740  -21.3100   18.7980 C.3   138  SER138      0.1889
     89  C         28.3080  -20.5260   17.7440 C.2   138  SER138      0.2288
     90  O         27.9260  -20.4670   16.5580 O.2   138  SER138     -0.2866
     91  CB        28.1280  -22.6470   19.1450 C.3   138  SER138      0.2089
     92  OG        28.6590  -23.3300   18.0210 O.3   138  SER138     -0.2183
     93  N         31.0720  -21.4020   16.3820 N.3   140  ILE140     -0.1231
     94  CA        31.4200  -22.3800   15.3350 C.3   140  ILE140      0.1692
     95  C         30.2090  -22.6200   14.3960 C.2   140  ILE140      0.2592
     96  O         30.3980  -22.9460   13.2240 O.2   140  ILE140     -0.2718
     97  CB        31.8820  -23.7600   15.8990 C.3   140  ILE140      0.0266
     98  CG1       32.3190  -23.7100   17.4120 C.3   140  ILE140      0.0019
     99  CG2       32.9460  -24.4020   15.0110 C.3   140  ILE140      0.0020
    100  CD1       33.7260  -23.1120   17.8330 C.3   140  ILE140      0.0001
    101  N         28.9700  -22.5380   14.9370 N.am  141  ASP141     -0.1974
    102  CA        27.7420  -22.7380   14.1620 C.3   141  ASP141      0.1709
    103  C         27.5070  -21.5650   13.2330 C.2   141  ASP141      0.2293
    104  O         26.9460  -21.7650   12.1580 O.2   141  ASP141     -0.2864
    105  CB        26.5130  -22.8610   15.0880 C.3   141  ASP141      0.1436
    106  CG        26.4090  -24.0940   15.9510 C.2   141  ASP141      0.3671
    107  OD1       26.9730  -25.1400   15.5640 O.co2 141  ASP141     -0.2456
    108  OD2       25.6930  -24.0350   16.9840 O.co2 141  ASP141     -0.2456
    109  N         29.7960  -21.7980   10.4410 N.3   144  THR144     -0.1218
    110  CA        29.2570  -22.8690    9.5820 C.3   144  THR144      0.1862
    111  C         28.0960  -22.3580    8.7350 C.2   144  THR144      0.2287
    112  O         28.1030  -22.5370    7.5260 O.2   144  THR144     -0.2866
    113  CB        28.8830  -24.1030   10.4140 C.3   144  THR144      0.1770
    114  OG1       30.0460  -24.5930   11.0850 O.3   144  THR144     -0.2211
    115  CG2       28.2710  -25.1990    9.5800 C.3   144  THR144      0.0375
    116  N         29.0650  -19.8000    5.8820 N.3   147  LEU147     -0.1231
    117  CA        29.6490  -20.5520    4.7830 C.3   147  LEU147      0.1693
    118  C         28.5700  -21.2840    3.9990 C.2   147  LEU147      0.2592
    119  O         28.6370  -21.3330    2.7730 O.2   147  LEU147     -0.2718
    120  CB        30.7000  -21.5320    5.3170 C.3   147  LEU147      0.0284
    121  CG        31.8630  -21.8800    4.3910 C.3   147  LEU147      0.0019
    122  CD1       32.6320  -20.6360    3.9500 C.3   147  LEU147      0.0001
    123  CD2       32.8220  -22.8130    5.0860 C.3   147  LEU147      0.0001
    124  N         27.5680  -21.8410    4.7130 N.am  148  ASN148     -0.1974
    125  CA        26.4140  -22.5360    4.1520 C.3   148  ASN148      0.1688
    126  C         25.5860  -21.5240    3.3410 C.2   148  ASN148      0.2292
    127  O         25.2380  -21.8160    2.2090 O.2   148  ASN148     -0.2864
    128  CB        25.5630  -23.1870    5.2720 C.3   148  ASN148      0.1181
    129  CG        26.0800  -24.5050    5.8230 C.2   148  ASN148      0.2629
    130  OD1       26.8980  -25.2140    5.2160 O.2   148  ASN148     -0.2716
    131  ND2       25.5620  -24.8890    6.9830 N.am  148  ASN148     -0.0877
    132  N         27.9550  -21.1330   -0.0740 N.3   151  PHE151     -0.1227
    133  CA        28.0860  -22.3160   -0.9290 C.3   151  PHE151      0.1736
    134  C         26.8500  -23.2110   -1.0440 C.2   151  PHE151      0.2595
    135  O         26.7030  -23.8660   -2.0710 O.2   151  PHE151     -0.2718
    136  CB        29.2840  -23.1550   -0.4690 C.3   151  PHE151      0.0547
    137  CG        29.5250  -24.4620   -1.1870 C.ar  151  PHE151     -0.0202
    138  CD1       30.0800  -24.4840   -2.4610 C.ar  151  PHE151     -0.0042
    139  CD2       29.2610  -25.6770   -0.5610 C.ar  151  PHE151     -0.0042
    140  CE1       30.3470  -25.6980   -3.1070 C.ar  151  PHE151     -0.0003
    141  CE2       29.5160  -26.8880   -1.2110 C.ar  151  PHE151     -0.0003
    142  CZ        30.0730  -26.8890   -2.4710 C.ar  151  PHE151     -0.0000
    143  N         25.9900  -23.2930   -0.0120 N.am  152  GLN152     -0.1979
    144  CA        24.8340  -24.2090   -0.0290 C.3   152  GLN152      0.1601
    145  C         23.4810  -23.5060   -0.2190 C.2   152  GLN152      0.2287
    146  O         22.4490  -24.1780   -0.2760 O.2   152  GLN152     -0.2864
    147  CB        24.8330  -25.0580    1.2660 C.3   152  GLN152      0.0394
    148  CG        26.0840  -25.9430    1.4760 C.3   152  GLN152      0.0908
    149  CD        26.0170  -27.2640    0.7950 C.2   152  GLN152      0.2608
    150  OE1       25.0130  -27.6450    0.1940 O.2   152  GLN152     -0.2717
    151  NE2       27.0740  -28.0230    0.9030 N.am  152  GLN152     -0.0878
    152  N         19.8890  -22.2150    2.4050 N.3   155  PHE155     -0.1241
    153  CA        20.1700  -23.1990    3.4650 C.3   155  PHE155      0.1605
    154  C         19.8070  -22.6360    4.8080 C.2   155  PHE155      0.2264
    155  O         20.1650  -21.5000    5.1390 O.2   155  PHE155     -0.2867
    156  CB        21.6460  -23.6030    3.4620 C.3   155  PHE155      0.0534
    157  CG        21.9410  -25.0740    3.6460 C.ar  155  PHE155     -0.0203
    158  CD1       21.5880  -25.9960    2.6710 C.ar  155  PHE155     -0.0042
    159  CD2       22.6630  -25.5230    4.7510 C.ar  155  PHE155     -0.0042
    160  CE1       21.9230  -27.3450    2.8070 C.ar  155  PHE155     -0.0003
    161  CE2       22.9860  -26.8700    4.8980 C.ar  155  PHE155     -0.0003
    162  CZ        22.6210  -27.7740    3.9220 C.ar  155  PHE155     -0.0000
@<TRIPOS>BOND
     1   140   142   ar
     2   140   138   ar
     3   142   141   ar
     4   138   137   ar
     5   135   134    2
     6   141   139   ar
     7   137   139   ar
     8   137   136    1
     9   134   133    1
    10   134   143   am
    11   133   136    1
    12   133   132    1
    13   146   145    2
    14   145   144    1
    15   144   143    1
    16   144   147    1
    17   150   149    2
    18   149   151   am
    19   149   148    1
    20   147   148    1
    21   127   126    2
    22   152   153    1
    23   158   160   ar
    24   158   157   ar
    25   119   118    2
    26   160   162   ar
    27   126   125    1
    28   156   153    1
    29   156   157    1
    30   153   154    1
    31   157   159   ar
    32   162   161   ar
    33   122   121    1
    34   118   124   am
    35   118   117    1
    36   125   124    1
    37   125   128    1
    38    31    30    1
    39   121   123    1
    40   121   120    1
    41   159   161   ar
    42   117   120    1
    43   117   116    1
    44   154   155    2
    45   130   129    2
    46   128   129    1
    47    29    30    1
    48    29    26    1
    49    30    32    1
    50   129   131   am
    51    27    26    1
    52    27    28    2
    53    40    38    1
    54    26    25    1
    55    41    42    1
    56   112   111    2
    57    39    38    1
    58    38    37    1
    59    42    45    1
    60    42    43    1
    61    45    46    1
    62   111   110    1
    63    47    46   ar
    64    47    49   ar
    65    46    48   ar
    66    37    34    1
    67    34    33    1
    68    34    35    1
    69   115   113    1
    70   110   113    1
    71   110   109    1
    72    43    44    2
    73    49    50   ar
    74    48    50   ar
    75    48    51   ar
    76    24    23    1
    77   113   114    1
    78    35    36    2
    79    50    52   ar
    80    51    53   ar
    81    23    22    1
    82    52    54   ar
    83    53    54   ar
    84    20    19    2
    85    19    18    1
    86   104   103    2
    87    22    21    1
    88    21    18    1
    89    96    95    2
    90   103   102    1
    91    18    17    1
    92    55    56    1
    93   102   101    1
    94   102   105    1
    95    95   101   am
    96    95    94    1
    97    17    12   am
    98    61    63   ar
    99    61    60   ar
   100    59    56    1
   101    59    60    1
   102    56    57    1
   103    99    97    1
   104   105   106    1
   105    63    64   ar
   106    94    97    1
   107    94    93    1
   108    60    62   ar
   109   107   106   ar
   110    12    13    2
   111    12    11    1
   112    97    98    1
   113   106   108   ar
   114    57    58    2
   115    64    62   ar
   116    90    89    2
   117    15    14    1
   118    11    14    1
   119    11    10    1
   120    16    14    1
   121    98   100    1
   122    89    88    1
   123    10     3   am
   124    92    91    1
   125    87    88    1
   126     4     3    2
   127    88    91    1
   128     3     2    1
   129    74    72   ar
   130    74    73   ar
   131     5     2    1
   132     5     6    1
   133     2     1    1
   134    72    70   ar
   135    73    71   ar
   136     6     7    1
   137    65    66    1
   138    70    71   ar
   139    70    69    1
   140    66    69    1
   141    66    67    1
   142     7     9   ar
   143     7     8   ar
   144    86    85    1
   145    67    68    2
   146    84    85   ar
   147    84    82   ar
   148    85    83   ar
   149    82    80   ar
   150    83    81   ar
   151    80    81   ar
   152    80    79    1
   153    77    78    2
   154    77    76    1
   155    79    76    1
   156    75    76    1
