@<TRIPOS>MOLECULE
tmp/5johA00.pdb
 99 96 0 0 0
SMALL
GASTEIGER

@<TRIPOS>ATOM
      1  N         26.0670  -34.5370   20.8890 N.3    73  GLU73      -0.1231
      2  CA        25.5240  -33.8420   19.7250 C.3    73  GLU73       0.1699
      3  C         25.4230  -34.7780   18.5530 C.2    73  GLU73       0.2592
      4  O         26.2200  -35.7080   18.3890 O.2    73  GLU73      -0.2718
      5  CB        26.3900  -32.6180   19.3500 C.3    73  GLU73       0.0402
      6  CG        26.2950  -31.4800   20.3460 C.3    73  GLU73       0.1161
      7  CD        27.0880  -31.6530   21.6280 C.2    73  GLU73       0.3649
      8  OE1       26.8310  -30.8850   22.5780 O.co2  73  GLU73      -0.2457
      9  OE2       27.9640  -32.5460   21.6880 O.co2  73  GLU73      -0.2457
     10  N         24.4160  -34.5300   17.7230 N.am   74  VAL74      -0.1966
     11  CA        24.0990  -35.3390   16.5620 C.3    74  VAL74       0.1727
     12  C         23.7570  -34.3810   15.4220 C.2    74  VAL74       0.2616
     13  O         23.3100  -33.2630   15.6940 O.2    74  VAL74      -0.2715
     14  CB        22.9070  -36.2180   17.0340 C.3    74  VAL74       0.0290
     15  CG1       21.5770  -35.8420   16.4260 C.3    74  VAL74       0.0023
     16  CG2       23.2150  -37.7020   16.9660 C.3    74  VAL74       0.0023
     17  N         23.9250  -34.8190   14.1660 N.am   75  MET75      -0.1977
     18  CA        23.5860  -33.9380   13.0360 C.3    75  MET75       0.1605
     19  C         23.0920  -34.7070   11.8330 C.2    75  MET75       0.2287
     20  O         23.3110  -35.9060   11.7040 O.2    75  MET75      -0.2864
     21  CB        24.7840  -33.0380   12.6600 C.3    75  MET75       0.0413
     22  CG        25.9490  -33.7930   12.0370 C.3    75  MET75       0.0598
     23  SD        27.1550  -32.7160   11.1850 S.3    75  MET75      -0.1393
     24  CE        26.0910  -32.1100    9.8450 C.3    75  MET75       0.0692
     25  N         20.6110  -28.1830    7.1200 N.3   126  TRP126     -0.1241
     26  CA        21.1810  -29.1350    8.0660 C.3   126  TRP126      0.1605
     27  C         20.5650  -28.9400    9.4390 C.2   126  TRP126      0.2264
     28  O         20.1730  -27.8420    9.8200 O.2   126  TRP126     -0.2867
     29  CB        22.7480  -29.0670    8.1300 C.3   126  TRP126      0.0550
     30  CG        23.3360  -27.8690    8.8400 C.ar  126  TRP126      0.0003
     31  CD1       23.1320  -26.5570    8.5370 C.ar  126  TRP126      0.0946
     32  CD2       24.3020  -27.8870    9.9040 C.ar  126  TRP126      0.0152
     33  NE1       23.8550  -25.7570    9.3890 N.ar  126  TRP126     -0.2442
     34  CE2       24.5800  -26.5430   10.2400 C.ar  126  TRP126      0.0810
     35  CE3       24.8840  -28.9050   10.6730 C.ar  126  TRP126      0.0012
     36  CZ2       25.4590  -26.1890   11.2910 C.ar  126  TRP126      0.0191
     37  CZ3       25.7380  -28.5600   11.7140 C.ar  126  TRP126      0.0001
     38  CH2       26.0430  -27.2200   11.9970 C.ar  126  TRP126      0.0015
     39  N         21.0330  -30.2020   13.7730 N.3   128  HIS128     -0.1241
     40  CA        21.9160  -30.7260   14.7950 C.3   128  HIS128      0.1621
     41  C         21.3650  -30.4440   16.1690 C.2   128  HIS128      0.2264
     42  O         20.4940  -29.5980   16.3500 O.2   128  HIS128     -0.2867
     43  CB        23.4030  -30.2960   14.6240 C.3   128  HIS128      0.0745
     44  CG        23.7200  -28.9300   15.1130 C.ar  128  HIS128      0.0817
     45  ND1       23.3460  -27.8130   14.4060 N.ar  128  HIS128     -0.2268
     46  CD2       24.4020  -28.5470   16.2160 C.ar  128  HIS128      0.1154
     47  CE1       23.7830  -26.7860   15.1050 C.ar  128  HIS128      0.1986
     48  NE2       24.4230  -27.1800   16.2030 N.ar  128  HIS128     -0.2212
     49  N         21.7750  -29.7560   20.5280 N.3   130  HIS130     -0.1241
     50  CA        22.4610  -29.1090   21.6640 C.3   130  HIS130      0.1621
     51  C         21.8460  -29.7800   22.9110 C.2   130  HIS130      0.2264
     52  O         20.8860  -29.2230   23.4710 O.2   130  HIS130     -0.2867
     53  CB        22.1830  -27.5880   21.6800 C.3   130  HIS130      0.0745
     54  CG        23.0330  -26.7770   20.7300 C.ar  130  HIS130      0.0817
     55  ND1       22.9710  -25.3970   20.7240 N.ar  130  HIS130     -0.2268
     56  CD2       23.9540  -27.1770   19.8140 C.ar  130  HIS130      0.1154
     57  CE1       23.8540  -24.9970   19.8280 C.ar  130  HIS130      0.1986
     58  NE2       24.4590  -26.0320   19.2360 N.ar  130  HIS130     -0.2212
     59  N         21.5640  -27.5120   26.3430 N.3   133  TYR133     -0.1241
     60  CA        21.9140  -26.0840   26.4230 C.3   133  TYR133      0.1605
     61  C         21.0650  -25.1030   25.5680 C.2   133  TYR133      0.2264
     62  O         21.3020  -23.8960   25.6470 O.2   133  TYR133     -0.2867
     63  CB        23.4080  -25.8200   26.1790 C.3   133  TYR133      0.0534
     64  CG        24.0970  -26.5600   25.0550 C.ar  133  TYR133     -0.0201
     65  CD1       24.4570  -27.8990   25.1950 C.ar  133  TYR133     -0.0009
     66  CD2       24.5790  -25.8750   23.9410 C.ar  133  TYR133     -0.0009
     67  CE1       25.1930  -28.5560   24.2170 C.ar  133  TYR133      0.0417
     68  CE2       25.3660  -26.5110   22.9840 C.ar  133  TYR133      0.0417
     69  CZ        25.6320  -27.8600   23.1020 C.ar  133  TYR133      0.1957
     70  OH        26.3630  -28.4950   22.1290 O.3   133  TYR133     -0.2866
     71  N         26.4530  -21.7120   17.9430 N.3   138  SER138     -0.1217
     72  CA        27.7470  -21.4850   18.5300 C.3   138  SER138      0.1889
     73  C         28.5900  -20.7190   17.4770 C.2   138  SER138      0.2288
     74  O         28.2000  -20.6380   16.2990 O.2   138  SER138     -0.2866
     75  CB        28.3990  -22.8220   18.8860 C.3   138  SER138      0.2089
     76  OG        28.8930  -23.5160   17.7540 O.3   138  SER138     -0.2183
     77  N         31.3300  -21.6710   16.0940 N.3   140  ILE140     -0.1231
     78  CA        31.6430  -22.6860   15.0610 C.3   140  ILE140      0.1692
     79  C         30.4260  -22.8900   14.1220 C.2   140  ILE140      0.2592
     80  O         30.6090  -23.2050   12.9410 O.2   140  ILE140     -0.2718
     81  CB        32.0400  -24.0780   15.6500 C.3   140  ILE140      0.0266
     82  CG1       32.5600  -23.9980   17.1310 C.3   140  ILE140      0.0019
     83  CG2       33.0050  -24.8470   14.7390 C.3   140  ILE140      0.0020
     84  CD1       33.9820  -23.4440   17.4310 C.3   140  ILE140      0.0001
     85  N         29.1950  -22.7820   14.6710 N.am  141  ASP141     -0.1974
     86  CA        27.9650  -22.9680   13.9070 C.3   141  ASP141      0.1709
     87  C         27.7460  -21.8080   12.9610 C.2   141  ASP141      0.2293
     88  O         27.2150  -22.0300   11.8680 O.2   141  ASP141     -0.2864
     89  CB        26.7420  -23.0750   14.8330 C.3   141  ASP141      0.1436
     90  CG        26.6130  -24.3090   15.6970 C.2   141  ASP141      0.3671
     91  OD1       27.1690  -25.3540   15.3190 O.co2 141  ASP141     -0.2456
     92  OD2       25.9040  -24.2350   16.7320 O.co2 141  ASP141     -0.2456
     93  N         30.0960  -22.0360   10.1580 N.3   144  THR144     -0.1218
     94  CA        29.5660  -23.1100    9.3000 C.3   144  THR144      0.1862
     95  C         28.3890  -22.6080    8.4490 C.2   144  THR144      0.2287
     96  O         28.3920  -22.8100    7.2390 O.2   144  THR144     -0.2866
     97  CB        29.1630  -24.3290   10.1490 C.3   144  THR144      0.1770
     98  OG1       30.3210  -24.8290   10.8180 O.3   144  THR144     -0.2211
     99  CG2       28.5080  -25.4420    9.3220 C.3   144  THR144      0.0375
@<TRIPOS>BOND
     1    25    26    1
     2    96    95    2
     3    26    29    1
     4    26    27    1
     5    29    30    1
     6    95    94    1
     7    31    30   ar
     8    31    33   ar
     9    30    32   ar
    10    94    97    1
    11    94    93    1
    12    99    97    1
    13    33    34   ar
    14    27    28    2
    15    24    23    1
    16    32    34   ar
    17    32    35   ar
    18    97    98    1
    19    34    36   ar
    20    35    37   ar
    21    23    22    1
    22    36    38   ar
    23    20    19    2
    24    37    38   ar
    25    19    18    1
    26    88    87    2
    27    22    21    1
    28    21    18    1
    29    80    79    2
    30    87    86    1
    31    18    17    1
    32    39    40    1
    33    86    85    1
    34    86    89    1
    35    79    85   am
    36    79    78    1
    37    17    12   am
    38    45    47   ar
    39    45    44   ar
    40    43    40    1
    41    43    44    1
    42    83    81    1
    43    40    41    1
    44    89    90    1
    45    78    81    1
    46    78    77    1
    47    47    48   ar
    48    44    46   ar
    49    91    90   ar
    50    12    13    2
    51    12    11    1
    52    81    82    1
    53    90    92   ar
    54    41    42    2
    55    48    46   ar
    56    74    73    2
    57    15    14    1
    58    11    14    1
    59    11    10    1
    60    16    14    1
    61    82    84    1
    62    73    72    1
    63    10     3   am
    64    76    75    1
    65    71    72    1
    66     4     3    2
    67    72    75    1
    68     3     2    1
    69    58    56   ar
    70    58    57   ar
    71     5     2    1
    72     5     6    1
    73     2     1    1
    74    56    54   ar
    75    57    55   ar
    76     6     7    1
    77    49    50    1
    78    55    54   ar
    79    54    53    1
    80     7     9   ar
    81     7     8   ar
    82    50    53    1
    83    50    51    1
    84    70    69    1
    85    51    52    2
    86    68    69   ar
    87    68    66   ar
    88    69    67   ar
    89    66    64   ar
    90    67    65   ar
    91    64    65   ar
    92    64    63    1
    93    61    62    2
    94    61    60    1
    95    63    60    1
    96    59    60    1
