@<TRIPOS>MOLECULE
tmp/5jonA00.pdb
 187 182 0 0 0
SMALL
GASTEIGER

@<TRIPOS>ATOM
      1  N          4.7460   -4.1260  -65.8740 N.3    11  ASN11      -0.1240
      2  CA         4.4380   -2.8860  -66.5570 C.3    11  ASN11       0.1653
      3  C          3.2030   -2.1930  -65.9810 C.2    11  ASN11       0.2266
      4  O          2.2540   -2.8550  -65.5210 O.2    11  ASN11      -0.2867
      5  CB         4.2870   -3.1040  -68.0690 C.3    11  ASN11       0.1155
      6  CG         4.5270   -1.8210  -68.8690 C.2    11  ASN11       0.2627
      7  OD1        5.4160   -1.0430  -68.5480 O.2    11  ASN11      -0.2716
      8  ND2        3.7140   -1.5880  -69.8840 N.am   11  ASN11      -0.0877
      9  N          0.6730   -0.7440  -67.2550 N.3    13  ASP13      -0.1225
     10  CA        -0.6320   -1.0200  -67.8630 C.3    13  ASP13       0.1805
     11  C         -1.2380   -2.3500  -67.3770 C.2    13  ASP13       0.2597
     12  O         -2.3750   -2.6310  -67.7020 O.2    13  ASP13      -0.2718
     13  CB        -0.5850   -0.9240  -69.4210 C.3    13  ASP13       0.1424
     14  CG         0.5280   -1.7960  -70.0720 C.2    13  ASP13       0.3668
     15  OD1        1.2420   -2.5160  -69.3470 O.co2  13  ASP13      -0.2456
     16  OD2        0.7220   -1.7250  -71.3200 O.co2  13  ASP13      -0.2456
     17  N         -0.5010   -3.1440  -66.5870 N.am   14  LYS14      -0.1979
     18  CA        -0.9610   -4.4640  -66.1180 C.3    14  LYS14       0.1596
     19  C         -1.5580   -4.4030  -64.7010 C.2    14  LYS14       0.2287
     20  O         -1.4430   -3.3880  -64.0250 O.2    14  LYS14      -0.2864
     21  CB         0.2040   -5.4690  -66.1200 C.3    14  LYS14       0.0298
     22  CG         1.0490   -5.4930  -67.3940 C.3    14  LYS14       0.0038
     23  CD         0.2160   -5.8180  -68.6070 C.3    14  LYS14       0.0206
     24  CE         1.1030   -5.8730  -69.8550 C.3    14  LYS14       0.1093
     25  NZ         0.2020   -6.0380  -71.0010 N.3    14  LYS14      -0.1314
     26  N         11.4910   -2.5480  -69.3130 N.3    43  GLU43      -0.1245
     27  CA        12.0890   -3.4940  -70.2450 C.3    43  GLU43       0.1567
     28  C         13.5170   -3.0900  -70.6500 C.2    43  GLU43       0.2260
     29  O         14.3400   -3.9630  -70.9390 O.2    43  GLU43      -0.2867
     30  CB        11.1830   -3.7070  -71.4710 C.3    43  GLU43       0.0388
     31  CG        11.2730   -2.6570  -72.5880 C.3    43  GLU43       0.1160
     32  CD        10.5750   -1.3360  -72.2710 C.2    43  GLU43       0.3649
     33  OE1       10.2120   -1.0790  -71.1010 O.co2  43  GLU43      -0.2457
     34  OE2       10.3880   -0.5490  -73.2140 O.co2  43  GLU43      -0.2457
     35  N          7.3090   -9.3850  -68.5510 N.3    61  TRP61      -0.1227
     36  CA         7.1690   -8.6920  -69.8250 C.3    61  TRP61       0.1737
     37  C          6.6980   -9.6940  -70.8520 C.2    61  TRP61       0.2595
     38  O          6.7320  -10.9080  -70.5990 O.2    61  TRP61      -0.2718
     39  CB         8.5170   -8.0370  -70.2530 C.3    61  TRP61       0.0564
     40  CG         8.3860   -6.9850  -71.3330 C.ar   61  TRP61       0.0003
     41  CD1        8.6440   -7.1340  -72.6700 C.ar   61  TRP61       0.0946
     42  CD2        7.9730   -5.6280  -71.1590 C.ar   61  TRP61       0.0152
     43  NE1        8.3990   -5.9690  -73.3320 N.ar   61  TRP61      -0.2442
     44  CE2        7.9860   -5.0220  -72.4310 C.ar   61  TRP61       0.0810
     45  CE3        7.5900   -4.8650  -70.0540 C.ar   61  TRP61       0.0012
     46  CZ2        7.6240   -3.6850  -72.6270 C.ar   61  TRP61       0.0191
     47  CZ3        7.2360   -3.5340  -70.2460 C.ar   61  TRP61       0.0001
     48  CH2        7.2660   -2.9530  -71.5190 C.ar   61  TRP61       0.0015
     49  N          6.2720   -9.2120  -72.0170 N.am   62  ALA62      -0.1980
     50  CA         6.0600  -10.0990  -73.1520 C.3    62  ALA62       0.1597
     51  C          7.3650  -10.8160  -73.5100 C.2    62  ALA62       0.2287
     52  O          8.4560  -10.2600  -73.3660 O.2    62  ALA62      -0.2864
     53  CB         5.5210   -9.3390  -74.3420 C.3    62  ALA62       0.0319
     54  N          9.0220  -11.5480  -76.1140 N.3    64  ASP64      -0.1225
     55  CA         9.9480  -11.0750  -77.1450 C.3    64  ASP64       0.1805
     56  C         11.2730  -10.5240  -76.5870 C.2    64  ASP64       0.2597
     57  O         12.3060  -10.7160  -77.2210 O.2    64  ASP64      -0.2718
     58  CB         9.2920  -10.0690  -78.1020 C.3    64  ASP64       0.1424
     59  CG         8.8960   -8.7650  -77.4230 C.2    64  ASP64       0.3668
     60  OD1        8.1320   -8.8140  -76.4370 O.co2  64  ASP64      -0.2456
     61  OD2        9.3710   -7.6970  -77.8680 O.co2  64  ASP64      -0.2456
     62  N         11.2750   -9.8790  -75.4190 N.am   65  ARG65      -0.1979
     63  CA        12.5580   -9.3550  -74.8720 C.3    65  ARG65       0.1597
     64  C         13.4650  -10.3570  -74.1060 C.2    65  ARG65       0.2287
     65  O         14.6160  -10.0610  -73.8090 O.2    65  ARG65      -0.2864
     66  CB        12.3190   -8.0690  -74.0850 C.3    65  ARG65       0.0334
     67  CG        12.4910   -6.8750  -75.0140 C.3    65  ARG65       0.0492
     68  CD        11.9090   -5.5910  -74.5150 C.3    65  ARG65       0.2205
     69  NE        11.6370   -4.6900  -75.6450 N.pl3  65  ARG65      -0.0865
     70  CZ        12.5020   -3.8300  -76.1940 C.cat  65  ARG65       0.5346
     71  NH1       13.7660   -3.7360  -75.7670 N.pl3  65  ARG65       0.1354
     72  NH2       12.0890   -3.0550  -77.1910 N.pl3  65  ARG65       0.1354
     73  N         -1.4480  -12.2860  -75.3290 N.3   110  GLU110     -0.1245
     74  CA        -1.9300  -10.9410  -75.6260 C.3   110  GLU110      0.1567
     75  C         -1.9990  -10.7100  -77.1380 C.2   110  GLU110      0.2260
     76  O         -1.0460  -10.9840  -77.8660 O.2   110  GLU110     -0.2867
     77  CB        -0.9910   -9.8980  -75.0380 C.3   110  GLU110      0.0388
     78  CG        -0.6590  -10.0490  -73.5610 C.3   110  GLU110      0.1160
     79  CD         0.2830   -8.9680  -73.0580 C.2   110  GLU110      0.3649
     80  OE1        0.9940   -8.3370  -73.8780 O.co2 110  GLU110     -0.2457
     81  OE2        0.3120   -8.7240  -71.8300 O.co2 110  GLU110     -0.2457
     82  N         -2.3710    4.6090  -79.7920 N.3   149  ASN149     -0.1240
     83  CA        -0.9940    4.9830  -79.4470 C.3   149  ASN149      0.1653
     84  C         -0.0960    4.9380  -80.6790 C.2   149  ASN149      0.2266
     85  O          0.2070    3.8570  -81.1800 O.2   149  ASN149     -0.2867
     86  CB        -0.4630    4.0450  -78.3520 C.3   149  ASN149      0.1155
     87  CG         0.8820    4.4730  -77.7630 C.2   149  ASN149      0.2627
     88  OD1        1.4550    5.4940  -78.1070 O.2   149  ASN149     -0.2716
     89  ND2        1.3810    3.6730  -76.8380 N.am  149  ASN149     -0.0877
     90  N          4.2570    3.9400  -79.7970 N.3   152  GLU152     -0.1231
     91  CA         4.7770    2.5760  -79.6480 C.3   152  GLU152      0.1684
     92  C          4.4380    1.8080  -80.9100 C.2   152  GLU152      0.2434
     93  O          3.2410    1.6750  -81.2430 O.2   152  GLU152     -0.2733
     94  CB         4.1880    1.8900  -78.4230 C.3   152  GLU152      0.0402
     95  CG         4.7670    2.3850  -77.1100 C.3   152  GLU152      0.1161
     96  CD         6.2230    1.9800  -76.8780 C.2   152  GLU152      0.3649
     97  OE1        6.7980    1.1230  -77.6110 O.co2 152  GLU152     -0.2457
     98  OE2        6.8050    2.5250  -75.9320 O.co2 152  GLU152     -0.2457
     99  N          5.4690    1.2980  -81.6090 N.am  153  PRO153     -0.2718
    100  CA         5.2440    0.6100  -82.8840 C.3   153  PRO153      0.1535
    101  C          4.4120   -0.6810  -82.8020 C.2   153  PRO153      0.2599
    102  O          3.8660   -1.1330  -83.8130 O.2   153  PRO153     -0.2715
    103  CB         6.6690    0.3390  -83.3890 C.3   153  PRO153      0.0310
    104  CG         7.5020    0.2970  -82.1690 C.3   153  PRO153      0.0237
    105  CD         6.9070    1.3160  -81.2540 C.3   153  PRO153      0.0939
    106  N          4.3010   -1.2600  -81.5980 N.am  154  TYR154     -0.1960
    107  CA         3.4080   -2.3900  -81.3330 C.3   154  TYR154      0.1771
    108  C          1.9800   -2.1570  -81.8630 C.2   154  TYR154      0.2619
    109  O          1.3490   -3.0700  -82.3740 O.2   154  TYR154     -0.2715
    110  CB         3.3840   -2.6190  -79.8180 C.3   154  TYR154      0.0574
    111  CG         2.5030   -3.7180  -79.3200 C.ar  154  TYR154     -0.0198
    112  CD1        2.8650   -5.0430  -79.5020 C.ar  154  TYR154     -0.0009
    113  CD2        1.3180   -3.4410  -78.6320 C.ar  154  TYR154     -0.0009
    114  CE1        2.0820   -6.0650  -79.0310 C.ar  154  TYR154      0.0417
    115  CE2        0.5160   -4.4730  -78.1450 C.ar  154  TYR154      0.0417
    116  CZ         0.9050   -5.7850  -78.3570 C.ar  154  TYR154      0.1957
    117  OH         0.1530   -6.8440  -77.8980 O.3   154  TYR154     -0.2866
    118  N          1.4940   -0.9290  -81.7620 N.am  155  PHE155     -0.1974
    119  CA         0.1210   -0.5940  -82.1370 C.3   155  PHE155      0.1639
    120  C         -0.0830   -0.3560  -83.6480 C.2   155  PHE155      0.2290
    121  O         -1.2060   -0.5430  -84.1740 O.2   155  PHE155     -0.2864
    122  CB        -0.3450    0.6280  -81.3400 C.3   155  PHE155      0.0560
    123  CG        -0.4200    0.3860  -79.8480 C.ar  155  PHE155     -0.0200
    124  CD1        0.6870    0.5510  -79.0480 C.ar  155  PHE155     -0.0042
    125  CD2       -1.5990   -0.0340  -79.2640 C.ar  155  PHE155     -0.0042
    126  CE1        0.6290    0.3330  -77.6810 C.ar  155  PHE155     -0.0003
    127  CE2       -1.6750   -0.2580  -77.8950 C.ar  155  PHE155     -0.0003
    128  CZ        -0.5580   -0.0880  -77.1110 C.ar  155  PHE155     -0.0000
    129  N         -5.7860   -5.7420  -71.1760 N.3   229  TRP229     -0.1241
    130  CA        -5.4640   -4.8770  -70.0300 C.3   229  TRP229      0.1605
    131  C         -6.2640   -3.5680  -69.9410 C.2   229  TRP229      0.2264
    132  O         -6.6290   -3.1440  -68.8440 O.2   229  TRP229     -0.2867
    133  CB        -3.9540   -4.5560  -69.9930 C.3   229  TRP229      0.0550
    134  CG        -3.4480   -3.8890  -71.2350 C.ar  229  TRP229      0.0003
    135  CD1       -3.4780   -2.5610  -71.5220 C.ar  229  TRP229      0.0946
    136  CD2       -2.8350   -4.5330  -72.3580 C.ar  229  TRP229      0.0152
    137  NE1       -2.9390   -2.3340  -72.7720 N.ar  229  TRP229     -0.2442
    138  CE2       -2.5190   -3.5260  -73.2980 C.ar  229  TRP229      0.0810
    139  CE3       -2.5410   -5.8700  -72.6700 C.ar  229  TRP229      0.0012
    140  CZ2       -1.9350   -3.8080  -74.5260 C.ar  229  TRP229      0.0191
    141  CZ3       -1.9250   -6.1500  -73.8860 C.ar  229  TRP229      0.0001
    142  CH2       -1.6260   -5.1170  -74.8010 C.ar  229  TRP229      0.0015
    143  N          1.9330  -11.5060  -78.1850 N.3   259  GLY259     -0.1225
    144  CA         2.8630  -11.5500  -77.0610 C.3   259  GLY259      0.1811
    145  C          2.3600  -12.4680  -75.9520 C.2   259  GLY259      0.2280
    146  O          1.1560  -12.6040  -75.7120 O.2   259  GLY259     -0.2866
    147  N          2.8130  -12.7130  -72.2050 N.3   261  LEU261     -0.1245
    148  CA         3.2330  -12.1940  -70.9060 C.3   261  LEU261      0.1561
    149  C          3.8520  -13.3370  -70.1540 C.2   261  LEU261      0.2260
    150  O          3.2350  -14.3880  -69.9810 O.2   261  LEU261     -0.2867
    151  CB         2.0760  -11.6200  -70.1000 C.3   261  LEU261      0.0270
    152  CG         2.4610  -11.0010  -68.7400 C.3   261  LEU261      0.0019
    153  CD1        3.4430   -9.8450  -68.8810 C.3   261  LEU261      0.0001
    154  CD2        1.2330  -10.5170  -67.9880 C.3   261  LEU261      0.0001
    155  N          5.4240  -13.3260  -81.5790 N.3   329  MET329     -0.1245
    156  CA         6.6460  -12.5360  -81.7470 C.3   329  MET329      0.1570
    157  C          7.8540  -13.4660  -81.6340 C.2   329  MET329      0.2261
    158  O          7.8180  -14.4170  -80.8590 O.2   329  MET329     -0.2867
    159  CB         6.7860  -11.4540  -80.7050 C.3   329  MET329      0.0387
    160  CG         5.9400  -10.2420  -80.9540 C.3   329  MET329      0.0595
    161  SD         6.2490   -8.9300  -79.7560 S.3   329  MET329     -0.1393
    162  CE         5.6640   -9.6770  -78.2420 C.3   329  MET329      0.0692
    163  N         12.6980   -3.4700  -82.7200 N.3   339  TRP339     -0.1241
    164  CA        11.7380   -2.5730  -82.1460 C.3   339  TRP339      0.1605
    165  C         12.2210   -1.1410  -82.1480 C.2   339  TRP339      0.2264
    166  O         11.4360   -0.2440  -82.4620 O.2   339  TRP339     -0.2867
    167  CB        11.3600   -2.9990  -80.7150 C.3   339  TRP339      0.0550
    168  CG        10.3860   -4.1300  -80.6840 C.ar  339  TRP339      0.0003
    169  CD1       10.5350   -5.3220  -80.0390 C.ar  339  TRP339      0.0946
    170  CD2        9.1040   -4.1800  -81.3420 C.ar  339  TRP339      0.0152
    171  NE1        9.4380   -6.1070  -80.2470 N.ar  339  TRP339     -0.2442
    172  CE2        8.5320   -5.4240  -81.0300 C.ar  339  TRP339      0.0810
    173  CE3        8.3860   -3.2890  -82.1510 C.ar  339  TRP339      0.0012
    174  CZ2        7.2700   -5.8040  -81.5010 C.ar  339  TRP339      0.0191
    175  CZ3        7.1210   -3.6720  -82.6240 C.ar  339  TRP339      0.0001
    176  CH2        6.5890   -4.9190  -82.3000 C.ar  339  TRP339      0.0015
    177  N         10.2440    1.7010  -84.2370 N.3   343  ARG343     -0.1245
    178  CA         9.7870    2.8290  -83.4260 C.3   343  ARG343      0.1563
    179  C         10.2740    4.1620  -84.0170 C.2   343  ARG343      0.2260
    180  O          9.4910    5.0920  -84.2360 O.2   343  ARG343     -0.2867
    181  CB        10.3170    2.6760  -82.0000 C.3   343  ARG343      0.0307
    182  CG         9.9650    3.7850  -81.0270 C.3   343  ARG343      0.0489
    183  CD        10.9460    3.7880  -79.8720 C.3   343  ARG343      0.2205
    184  NE        10.3020    3.7230  -78.5690 N.pl3 343  ARG343     -0.0865
    185  CZ         9.8770    2.6110  -77.9630 C.cat 343  ARG343      0.5346
    186  NH1        9.9730    1.4060  -78.5330 N.pl3 343  ARG343      0.1354
    187  NH2        9.3300    2.7100  -76.7510 N.pl3 343  ARG343      0.1354
@<TRIPOS>BOND
     1   177   178    1
     2   180   179    2
     3   121   120    2
     4   179   178    1
     5   102   101    2
     6   120   119    1
     7   178   181    1
     8   103   100    1
     9   103   104    1
    10   100   101    1
    11   100    99    1
    12   101   106   am
    13   163   164    1
    14   175   176   ar
    15   175   173   ar
    16   166   165    2
    17   109   108    2
    18   176   174   ar
    19   104   105    1
    20   173   170   ar
    21   165   164    1
    22   164   167    1
    23   119   118    1
    24   119   122    1
    25   181   182    1
    26   108   118   am
    27   108   107    1
    28   156   157    1
    29   156   155    1
    30   156   159    1
    31   157   158    2
    32    99   105    1
    33    99    92   am
    34   106   107    1
    35   174   172   ar
    36   170   172   ar
    37   170   168   ar
    38   122   123    1
    39   107   110    1
    40    93    92    2
    41    85    84    2
    42   172   171   ar
    43   182   183    1
    44   160   159    1
    45   160   161    1
    46    92    91    1
    47   167   168    1
    48   168   169   ar
    49    84    83    1
    50   171   169   ar
    51   183   184    1
    52   123   125   ar
    53   123   124   ar
    54   110   111    1
    55    90    91    1
    56    82    83    1
    57   161   162    1
    58    91    94    1
    59   112   111   ar
    60   112   114   ar
    61    83    86    1
    62   111   113   ar
    63   125   127   ar
    64   124   126   ar
    65   114   116   ar
    66   113   115   ar
    67   184   185    2
    68   186   185    1
    69    94    95    1
    70   116   115   ar
    71   116   117    1
    72    86    87    1
    73   143   144    1
    74    88    87    2
    75    58    59    1
    76    58    55    1
    77   185   187    1
    78   127   128   ar
    79    61    59   ar
    80    76    75    2
    81    87    89   am
    82   126   128   ar
    83    97    96   ar
    84    59    60   ar
    85    57    56    2
    86    72    70    1
    87    55    56    1
    88    55    54    1
    89    75    74    1
    90    95    96    1
    91   144   145    1
    92    96    98   ar
    93    56    62   am
    94    70    71    1
    95    70    69    2
    96   145   146    2
    97    69    68    1
    98    74    73    1
    99    74    77    1
   100    62    63    1
   101    77    78    1
   102    67    68    1
   103    67    66    1
   104    63    64    1
   105    63    66    1
   106   142   140   ar
   107   142   141   ar
   108   140   138   ar
   109    53    50    1
   110    64    65    2
   111   141   139   ar
   112    80    79   ar
   113    78    79    1
   114    51    52    2
   115    51    50    1
   116    43    41   ar
   117    43    44   ar
   118   138   137   ar
   119   138   136   ar
   120    34    32   ar
   121    50    49    1
   122    79    81   ar
   123   137   135   ar
   124    41    40   ar
   125   139   136   ar
   126    46    44   ar
   127    46    48   ar
   128    31    32    1
   129    31    30    1
   130    44    42   ar
   131   136   134   ar
   132    32    33   ar
   133   147   148    1
   134    49    37   am
   135   135   134   ar
   136    48    47   ar
   137    30    27    1
   138    40    42   ar
   139    40    39    1
   140    16    14   ar
   141   134   133    1
   142   129   130    1
   143    42    45   ar
   144    25    24    1
   145    29    28    2
   146   148   149    1
   147   148   151    1
   148    37    38    2
   149    37    36    1
   150    28    27    1
   151    39    36    1
   152    47    45   ar
   153    27    26    1
   154   149   150    2
   155   151   152    1
   156    14    13    1
   157    14    15   ar
   158   130   133    1
   159   130   131    1
   160   131   132    2
   161     8     6   am
   162    24    23    1
   163    36    35    1
   164    13    10    1
   165   153   152    1
   166     6     7    2
   167     6     5    1
   168   152   154    1
   169    23    22    1
   170     5     2    1
   171    10    11    1
   172    10     9    1
   173    12    11    2
   174    22    21    1
   175    11    17   am
   176    17    18    1
   177     2     3    1
   178     2     1    1
   179    21    18    1
   180    18    19    1
   181     3     4    2
   182    19    20    2
