@<TRIPOS>MOLECULE
tmp/5jorE00.pdb
 84 81 0 0 0
SMALL
GASTEIGER

@<TRIPOS>ATOM
      1  N        -52.2540   19.1500  -31.8990 N.3   117  ALA117     -0.1231
      2  CA       -51.6510   18.6210  -33.1100 C.3   117  ALA117      0.1679
      3  C        -51.0130   19.7460  -33.9250 C.2   117  ALA117      0.2434
      4  O        -51.4590   20.8940  -33.8670 O.2   117  ALA117     -0.2733
      5  CB       -52.6970   17.9010  -33.9540 C.3   117  ALA117      0.0304
      6  N        -49.9670   19.4420  -34.6900 N.am  118  PRO118     -0.2718
      7  CA       -49.3030   20.4900  -35.4710 C.3   118  PRO118      0.1535
      8  C        -50.1450   20.9540  -36.6460 C.2   118  PRO118      0.2599
      9  O        -50.9110   20.1910  -37.2390 O.2   118  PRO118     -0.2715
     10  CB       -48.0170   19.8090  -35.9540 C.3   118  PRO118      0.0310
     11  CG       -48.3690   18.3620  -36.0010 C.3   118  PRO118      0.0237
     12  CD       -49.2950   18.1390  -34.8350 C.3   118  PRO118      0.0939
     13  N        -49.9960   22.2350  -36.9720 N.am  119  THR119     -0.1937
     14  CA       -50.5260   22.7960  -38.2090 C.3   119  THR119      0.2028
     15  C        -49.4600   22.6190  -39.2820 C.2   119  THR119      0.2642
     16  O        -48.4010   23.2530  -39.2260 O.2   119  THR119     -0.2714
     17  CB       -50.8970   24.2650  -38.0300 C.3   119  THR119      0.1808
     18  OG1      -51.9090   24.3840  -37.0220 O.3   119  THR119     -0.2208
     19  CG2      -51.4150   24.8460  -39.3370 C.3   119  THR119      0.0379
     20  N        -49.7320   21.7520  -40.2520 N.am  120  VAL120     -0.1977
     21  CA       -48.7340   21.3140  -41.2200 C.3   120  VAL120      0.1596
     22  C        -48.9630   22.0350  -42.5400 C.2   120  VAL120      0.2287
     23  O        -50.0920   22.0850  -43.0450 O.2   120  VAL120     -0.2864
     24  CB       -48.7810   19.7870  -41.4050 C.3   120  VAL120      0.0276
     25  CG1      -47.6960   19.3340  -42.3690 C.3   120  VAL120      0.0022
     26  CG2      -48.6310   19.0930  -40.0570 C.3   120  VAL120      0.0022
     27  N        -46.3750   13.7270  -40.6220 N.3   201  ALA201     -0.1245
     28  CA       -46.0990   14.0490  -39.2300 C.3   201  ALA201      0.1562
     29  C        -46.7980   13.0450  -38.3260 C.2   201  ALA201      0.2260
     30  O        -48.0090   12.8330  -38.4470 O.2   201  ALA201     -0.2867
     31  CB       -46.5580   15.4680  -38.8920 C.3   201  ALA201      0.0290
     32  N        -47.7000   12.3070  -34.4470 N.3   203  HIS203     -0.1241
     33  CA       -47.8280   12.9640  -33.1550 C.3   203  HIS203      0.1621
     34  C        -48.8170   12.1830  -32.3030 C.2   203  HIS203      0.2264
     35  O        -49.7300   11.5370  -32.8240 O.2   203  HIS203     -0.2867
     36  CB       -48.2860   14.4210  -33.3160 C.3   203  HIS203      0.0745
     37  CG       -48.0600   15.2670  -32.1020 C.ar  203  HIS203      0.0817
     38  ND1      -49.0950   15.7880  -31.3550 N.ar  203  HIS203     -0.2268
     39  CD2      -46.9190   15.6920  -31.5110 C.ar  203  HIS203      0.1154
     40  CE1      -48.6000   16.4930  -30.3530 C.ar  203  HIS203      0.1986
     41  NE2      -47.2820   16.4510  -30.4250 N.ar  203  HIS203     -0.2212
     42  N        -51.2170   13.1270  -30.6060 N.3   205  THR205     -0.1203
     43  CA       -52.5900   13.6120  -30.6740 C.3   205  THR205      0.1994
     44  C        -53.4310   12.8820  -31.7120 C.2   205  THR205      0.2618
     45  O        -54.6410   13.1220  -31.7810 O.2   205  THR205     -0.2717
     46  CB       -52.6040   15.1130  -30.9730 C.3   205  THR205      0.1784
     47  OG1      -51.7430   15.3890  -32.0850 O.3   205  THR205     -0.2211
     48  CG2      -52.1360   15.9040  -29.7630 C.3   205  THR205      0.0376
     49  N        -52.8310   12.0070  -32.5160 N.am  206  SER206     -0.1951
     50  CA       -53.5660   11.2920  -33.5490 C.3   206  SER206      0.1924
     51  C        -52.9210    9.9340  -33.7750 C.2   206  SER206      0.2314
     52  O        -51.6930    9.8190  -33.8070 O.2   206  SER206     -0.2863
     53  CB       -53.6030   12.0910  -34.8570 C.3   206  SER206      0.2116
     54  OG       -54.3390   11.3990  -35.8510 O.3   206  SER206     -0.2180
     55  N        -53.3420    8.1880  -36.5770 N.3   208  SER208     -0.1203
     56  CA       -52.9170    8.2330  -37.9670 C.3   208  SER208      0.2005
     57  C        -52.0990    9.4920  -38.2280 C.2   208  SER208      0.2461
     58  O        -52.4150   10.5590  -37.6900 O.2   208  SER208     -0.2732
     59  CB       -54.1230    8.2060  -38.9060 C.3   208  SER208      0.2103
     60  OG       -54.9720    9.3170  -38.6750 O.3   208  SER208     -0.2182
     61  N        -51.0520    9.4020  -39.0430 N.am  209  PRO209     -0.2717
     62  CA       -50.1750   10.5610  -39.2380 C.3   209  PRO209      0.1535
     63  C        -50.8450   11.6570  -40.0520 C.2   209  PRO209      0.2598
     64  O        -51.7660   11.4140  -40.8360 O.2   209  PRO209     -0.2715
     65  CB       -48.9730    9.9720  -39.9840 C.3   209  PRO209      0.0310
     66  CG       -49.5450    8.8090  -40.7260 C.3   209  PRO209      0.0237
     67  CD       -50.6200    8.2400  -39.8370 C.3   209  PRO209      0.0939
     68  N        -50.3710   12.8810  -39.8440 N.am  210  ILE210     -0.1978
     69  CA       -50.8260   14.0250  -40.6260 C.3   210  ILE210      0.1596
     70  C        -50.0560   14.0440  -41.9390 C.2   210  ILE210      0.2287
     71  O        -48.8250   14.1470  -41.9450 O.2   210  ILE210     -0.2864
     72  CB       -50.6300   15.3380  -39.8550 C.3   210  ILE210      0.0276
     73  CG1      -51.3970   15.2960  -38.5330 C.3   210  ILE210      0.0022
     74  CG2      -51.0750   16.5140  -40.7040 C.3   210  ILE210      0.0022
     75  CD1      -51.0560   16.4290  -37.5930 C.3   210  ILE210      0.0001
     76  N        -49.3250   15.7430  -45.5620 N.3   212  LYS212     -0.1245
     77  CA       -49.3670   16.8760  -46.4760 C.3   212  LYS212      0.1561
     78  C        -48.5070   16.5570  -47.6890 C.2   212  LYS212      0.2260
     79  O        -47.3280   16.2140  -47.5460 O.2   212  LYS212     -0.2867
     80  CB       -48.8860   18.1620  -45.7990 C.3   212  LYS212      0.0271
     81  CG       -50.0140   19.0130  -45.2450 C.3   212  LYS212      0.0035
     82  CD       -51.0090   19.3640  -46.3410 C.3   212  LYS212      0.0206
     83  CE       -52.1850   20.1570  -45.7970 C.3   212  LYS212      0.1093
     84  NZ       -51.7530   21.4440  -45.1880 N.3   212  LYS212     -0.1314
@<TRIPOS>BOND
     1    78    79    2
     2    78    77    1
     3    77    80    1
     4    77    76    1
     5    82    83    1
     6    82    81    1
     7    80    81    1
     8    83    84    1
     9    23    22    2
    10    22    21    1
    11    25    24    1
    12    71    70    2
    13    70    69    1
    14    24    21    1
    15    24    26    1
    16    21    20    1
    17    64    63    2
    18    66    65    1
    19    66    67    1
    20    74    72    1
    21    69    72    1
    22    69    68    1
    23    27    28    1
    24    20    15   am
    25    63    68   am
    26    63    62    1
    27    65    62    1
    28    72    73    1
    29    67    61    1
    30    19    17    1
    31    15    16    2
    32    15    14    1
    33    62    61    1
    34    28    31    1
    35    28    29    1
    36    61    57   am
    37    59    60    1
    38    59    56    1
    39    73    75    1
    40    30    29    2
    41    57    56    1
    42    57    58    2
    43    14    17    1
    44    14    13    1
    45    17    18    1
    46    56    55    1
    47     9     8    2
    48    13     8   am
    49     8     7    1
    50    11    10    1
    51    11    12    1
    52    10     7    1
    53    54    53    1
    54     7     6    1
    55    53    50    1
    56    12     6    1
    57     6     3   am
    58    32    33    1
    59     5     2    1
    60     3     4    2
    61     3     2    1
    62    52    51    2
    63    51    50    1
    64    50    49    1
    65    36    33    1
    66    36    37    1
    67    33    34    1
    68     2     1    1
    69    35    34    2
    70    49    44   am
    71    37    39   ar
    72    37    38   ar
    73    47    46    1
    74    45    44    2
    75    44    43    1
    76    39    41   ar
    77    38    40   ar
    78    46    43    1
    79    46    48    1
    80    43    42    1
    81    41    40   ar
