@<TRIPOS>MOLECULE
tmp/5jorD00.pdb
 85 81 0 0 0
SMALL
GASTEIGER

@<TRIPOS>ATOM
      1  N        -17.0630   25.6630  -20.7130 N.3    38  LYS38      -0.1245
      2  CA       -17.4220   25.5810  -22.1230 C.3    38  LYS38       0.1561
      3  C        -18.8340   25.0240  -22.2570 C.2    38  LYS38       0.2260
      4  O        -19.1640   24.0070  -21.6360 O.2    38  LYS38      -0.2867
      5  CB       -16.4290   24.6950  -22.8770 C.3    38  LYS38       0.0271
      6  CG       -16.7440   24.4890  -24.3500 C.3    38  LYS38       0.0035
      7  CD       -15.7850   23.4840  -24.9610 C.3    38  LYS38       0.0206
      8  CE       -16.0390   23.2920  -26.4460 C.3    38  LYS38       0.1093
      9  NZ       -15.0870   22.3130  -27.0370 N.3    38  LYS38      -0.1314
     10  N        -19.0480   22.1520  -19.6900 N.3    46  GLU46      -0.1245
     11  CA       -17.7820   21.4440  -19.5410 C.3    46  GLU46       0.1567
     12  C        -16.7940   22.3480  -18.8220 C.2    46  GLU46       0.2260
     13  O        -16.5000   23.4500  -19.2940 O.2    46  GLU46      -0.2867
     14  CB       -17.2300   21.0100  -20.9030 C.3    46  GLU46       0.0388
     15  CG       -16.0270   20.0850  -20.8240 C.3    46  GLU46       0.1160
     16  CD       -15.6730   19.4780  -22.1700 C.2    46  GLU46       0.3649
     17  OE1      -16.3580   19.7910  -23.1660 O.co2  46  GLU46      -0.2457
     18  OE2      -14.7100   18.6830  -22.2300 O.co2  46  GLU46      -0.2457
     19  N         -7.9780   17.1200  -19.9630 N.3    63  ASN63      -0.1225
     20  CA        -8.4300   16.9750  -21.3400 C.3    63  ASN63       0.1785
     21  C         -8.1210   18.2210  -22.1610 C.2    63  ASN63       0.2597
     22  O         -7.9400   18.1320  -23.3810 O.2    63  ASN63      -0.2718
     23  CB        -9.9300   16.6780  -21.3710 C.3    63  ASN63       0.1169
     24  CG       -10.3830   16.1120  -22.6990 C.2    63  ASN63       0.2627
     25  OD1       -9.6370   15.3970  -23.3670 O.2    63  ASN63      -0.2716
     26  ND2      -11.6110   16.4290  -23.0900 N.am   63  ASN63      -0.0877
     27  N         -8.0430   19.3840  -21.5110 N.am   64  PHE64      -0.1962
     28  CA        -7.7730   20.6520  -22.1740 C.3    64  PHE64       0.1771
     29  C         -6.3140   21.0840  -22.0600 C.2    64  PHE64       0.2619
     30  O         -6.0060   22.2560  -22.3040 O.2    64  PHE64      -0.2715
     31  CB        -8.6780   21.7470  -21.6090 C.3    64  PHE64       0.0574
     32  CG       -10.0930   21.6830  -22.1000 C.ar   64  PHE64      -0.0200
     33  CD1      -11.0090   20.8370  -21.5010 C.ar   64  PHE64      -0.0042
     34  CD2      -10.5120   22.4780  -23.1520 C.ar   64  PHE64      -0.0042
     35  CE1      -12.3170   20.7790  -21.9470 C.ar   64  PHE64      -0.0003
     36  CE2      -11.8200   22.4240  -23.6010 C.ar   64  PHE64      -0.0003
     37  CZ       -12.7210   21.5730  -22.9980 C.ar   64  PHE64      -0.0000
     38  N         -5.4130   20.1710  -21.6970 N.am   65  ARG65      -0.1963
     39  CA        -3.9960   20.5080  -21.6230 C.3    65  ARG65       0.1729
     40  C         -3.4560   20.7740  -23.0240 C.2    65  ARG65       0.2617
     41  O         -3.5640   19.9220  -23.9130 O.2    65  ARG65      -0.2715
     42  CB        -3.2090   19.3880  -20.9520 C.3    65  ARG65       0.0348
     43  CG        -1.7190   19.6790  -20.8660 C.3    65  ARG65       0.0492
     44  CD        -0.9480   18.5270  -20.2500 C.3    65  ARG65       0.2205
     45  NE         0.4900   18.6750  -20.4600 N.pl3  65  ARG65      -0.0865
     46  CZ         1.3110   19.2970  -19.6200 C.cat  65  ARG65       0.5346
     47  NH1        0.8390   19.8290  -18.5000 N.pl3  65  ARG65       0.1354
     48  NH2        2.6060   19.3830  -19.8970 N.pl3  65  ARG65       0.1354
     49  N         -2.8670   21.9520  -23.2150 N.am   66  GLY66      -0.1940
     50  CA        -2.4310   22.3990  -24.5160 C.3    66  GLY66       0.2014
     51  C         -3.4810   23.1500  -25.3060 C.2    66  GLY66       0.2638
     52  O         -3.1290   23.9240  -26.1980 O.2    66  GLY66      -0.2714
     53  N         -4.7610   22.9400  -25.0030 N.am   67  LYS67      -0.1977
     54  CA        -5.8100   23.6650  -25.7100 C.3    67  LYS67       0.1596
     55  C         -6.0950   25.0110  -25.0530 C.2    67  LYS67       0.2287
     56  O         -6.2810   26.0150  -25.7480 O.2    67  LYS67      -0.2864
     57  CB        -7.0760   22.8090  -25.7760 C.3    67  LYS67       0.0298
     58  CG        -8.3060   23.5470  -26.2690 C.3    67  LYS67       0.0038
     59  CD        -8.1670   23.9910  -27.7210 C.3    67  LYS67       0.0206
     60  CE        -8.0230   22.8030  -28.6560 C.3    67  LYS67       0.1093
     61  NZ        -8.0120   23.2170  -30.0920 N.3    67  LYS67      -0.1314
     62  N        -10.1560   24.3750  -33.8080 N.3    87  THR87      -0.1218
     63  CA       -10.9270   23.6220  -34.7910 C.3    87  THR87       0.1862
     64  C        -12.3990   23.9980  -34.6530 C.2    87  THR87       0.2287
     65  O        -12.7880   24.7480  -33.7540 O.2    87  THR87      -0.2866
     66  CB       -10.7410   22.1110  -34.6150 C.3    87  THR87       0.1770
     67  OG1      -11.4760   21.6700  -33.4660 O.3    87  THR87      -0.2211
     68  CG2       -9.2720   21.7630  -34.4350 C.3    87  THR87       0.0375
     69  N        -14.7190   22.2720  -33.5410 N.3    89  GLU89      -0.1231
     70  CA       -15.2940   21.7850  -32.2920 C.3    89  GLU89       0.1699
     71  C        -15.0530   22.7390  -31.1310 C.2    89  GLU89       0.2592
     72  O        -15.7060   22.6080  -30.0910 O.2    89  GLU89      -0.2718
     73  CB       -14.7390   20.4040  -31.9530 C.3    89  GLU89       0.0402
     74  CG       -15.1930   19.3220  -32.9080 C.3    89  GLU89       0.1161
     75  CD       -15.0230   17.9350  -32.3310 C.2    89  GLU89       0.3649
     76  OE1      -14.0910   17.7330  -31.5240 O.co2  89  GLU89      -0.2457
     77  OE2      -15.8290   17.0490  -32.6790 O.co2  89  GLU89      -0.2457
     78  N        -14.1290   23.6870  -31.2790 N.am   90  ASP90      -0.1974
     79  CA       -13.9600   24.7290  -30.2770 C.3    90  ASP90       0.1709
     80  C        -15.0560   25.7840  -30.3400 C.2    90  ASP90       0.2293
     81  O        -15.1110   26.6490  -29.4590 O.2    90  ASP90      -0.2864
     82  CB       -12.5870   25.3870  -30.4360 C.3    90  ASP90       0.1436
     83  CG       -11.4490   24.4340  -30.1250 C.2    90  ASP90       0.3671
     84  OD1      -11.5440   23.7030  -29.1170 O.co2  90  ASP90      -0.2456
     85  OD2      -10.4650   24.4080  -30.8910 O.co2  90  ASP90      -0.2456
@<TRIPOS>BOND
     1    63    64    1
     2    63    66    1
     3    63    62    1
     4    64    65    2
     5    66    68    1
     6    66    67    1
     7    69    70    1
     8    74    75    1
     9    74    73    1
    10    77    75   ar
    11    75    76   ar
    12    70    73    1
    13    70    71    1
    14    78    71   am
    15    78    79    1
    16    71    72    2
    17    85    83   ar
    18    82    79    1
    19    82    83    1
    20    80    79    1
    21    80    81    2
    22    83    84   ar
    23    61    60    1
    24    60    59    1
    25    59    58    1
    26     9     8    1
    27     8     7    1
    28    58    57    1
    29    52    51    2
    30    57    54    1
    31    56    55    2
    32    54    55    1
    33    54    53    1
    34    51    53   am
    35    51    50    1
    36     7     6    1
    37    50    49    1
    38     6     5    1
    39    41    40    2
    40    36    34   ar
    41    36    37   ar
    42    22    21    2
    43    25    24    2
    44    49    40   am
    45    17    16   ar
    46    34    32   ar
    47    26    24   am
    48    40    39    1
    49    37    35   ar
    50     5     2    1
    51    24    23    1
    52    30    29    2
    53     3     2    1
    54     3     4    2
    55    18    16   ar
    56    28    29    1
    57    28    31    1
    58    28    27    1
    59    16    15    1
    60    21    27   am
    61    21    20    1
    62     2     1    1
    63    32    31    1
    64    32    33   ar
    65    29    38   am
    66    35    33   ar
    67    38    39    1
    68    39    42    1
    69    23    20    1
    70    20    19    1
    71    42    43    1
    72    14    15    1
    73    14    11    1
    74    43    44    1
    75    45    44    1
    76    45    46    2
    77    48    46    1
    78    10    11    1
    79    46    47    1
    80    11    12    1
    81    13    12    2
