@<TRIPOS>MOLECULE
tmp/5jovA01.pdb
 158 159 0 0 0
SMALL
GASTEIGER

@<TRIPOS>ATOM
      1  N         60.4400  103.8930  -12.6760 N.3   311  TRP311     -0.1241
      2  CA        59.5620  105.0730  -12.8540 C.3   311  TRP311      0.1605
      3  C         59.0920  105.7110  -11.5540 C.2   311  TRP311      0.2264
      4  O         58.4030  106.7540  -11.6110 O.2   311  TRP311     -0.2867
      5  CB        58.3140  104.7380  -13.7310 C.3   311  TRP311      0.0550
      6  CG        57.4810  103.6240  -13.2370 C.ar  311  TRP311      0.0003
      7  CD1       57.5800  102.3180  -13.6110 C.ar  311  TRP311      0.0946
      8  CD2       56.4460  103.6720  -12.2430 C.ar  311  TRP311      0.0152
      9  NE1       56.6640  101.5710  -12.9440 N.ar  311  TRP311     -0.2442
     10  CE2       55.9780  102.3600  -12.0750 C.ar  311  TRP311      0.0810
     11  CE3       55.8390  104.7000  -11.4920 C.ar  311  TRP311      0.0012
     12  CZ2       54.9090  102.0400  -11.2080 C.ar  311  TRP311      0.0191
     13  CZ3       54.8050  104.3600  -10.6110 C.ar  311  TRP311      0.0001
     14  CH2       54.3810  103.0530  -10.4720 C.ar  311  TRP311      0.0015
     15  N         46.2720   94.9100   -9.0950 N.3   408  GLU408     -0.1245
     16  CA        46.4920   95.7870  -10.2800 C.3   408  GLU408      0.1567
     17  C         46.6720   94.8160  -11.4640 C.2   408  GLU408      0.2260
     18  O         47.8000   94.3490  -11.7010 O.2   408  GLU408     -0.2867
     19  CB        47.7070   96.7080  -10.1100 C.3   408  GLU408      0.0388
     20  CG        47.8330   97.7480  -11.2060 C.3   408  GLU408      0.1160
     21  CD        48.3530   97.2570  -12.5600 C.2   408  GLU408      0.3649
     22  OE1       49.5000   96.7730  -12.6480 O.co2 408  GLU408     -0.2457
     23  OE2       47.6020   97.3770  -13.5700 O.co2 408  GLU408     -0.2457
     24  N         40.2690   97.8700   -9.8290 N.3   436  ASP436     -0.1225
     25  CA        41.2230   98.9220  -10.1390 C.3   436  ASP436      0.1805
     26  C         40.8710   99.5750  -11.4980 C.2   436  ASP436      0.2597
     27  O         39.7760   99.4040  -12.0630 O.2   436  ASP436     -0.2718
     28  CB        42.6170   98.2820  -10.1490 C.3   436  ASP436      0.1424
     29  CG        43.7690   99.2420   -9.9100 C.2   436  ASP436      0.3668
     30  OD1       43.6030  100.4820   -9.9050 O.co2 436  ASP436     -0.2456
     31  OD2       44.8880   98.6970   -9.6910 O.co2 436  ASP436     -0.2456
     32  N         41.7770  100.4180  -11.9520 N.am  437  TRP437     -0.1976
     33  CA        41.7150  101.1100  -13.2230 C.3   437  TRP437      0.1640
     34  C         41.5530  100.1810  -14.4100 C.2   437  TRP437      0.2290
     35  O         41.6350   98.9630  -14.2890 O.2   437  TRP437     -0.2864
     36  CB        43.0040  101.9430  -13.3500 C.3   437  TRP437      0.0576
     37  CG        44.1910  101.1720  -13.8650 C.ar  437  TRP437      0.0006
     38  CD1       44.8870  100.2530  -13.2130 C.ar  437  TRP437      0.0946
     39  CD2       44.7210  101.2040  -15.1960 C.ar  437  TRP437      0.0152
     40  NE1       45.8610   99.7240  -14.0090 N.ar  437  TRP437     -0.2442
     41  CE2       45.7650  100.2810  -15.2450 C.ar  437  TRP437      0.0810
     42  CE3       44.3850  101.9160  -16.3660 C.ar  437  TRP437      0.0012
     43  CZ2       46.5010  100.0400  -16.4030 C.ar  437  TRP437      0.0191
     44  CZ3       45.1120  101.6760  -17.5210 C.ar  437  TRP437      0.0001
     45  CH2       46.1590  100.7400  -17.5290 C.ar  437  TRP437      0.0015
     46  N         39.6350  108.3070  -10.6600 N.3   477  TRP477     -0.1241
     47  CA        40.7150  109.2680  -10.7380 C.3   477  TRP477      0.1605
     48  C         40.1480  110.6610  -10.9830 C.2   477  TRP477      0.2264
     49  O         39.0260  110.8150  -11.4860 O.2   477  TRP477     -0.2867
     50  CB        41.6320  108.9310  -11.9190 C.3   477  TRP477      0.0550
     51  CG        42.5190  107.6490  -11.7990 C.ar  477  TRP477      0.0003
     52  CD1       42.1360  106.3910  -11.4710 C.ar  477  TRP477      0.0946
     53  CD2       43.9270  107.5740  -12.0580 C.ar  477  TRP477      0.0152
     54  NE1       43.2150  105.5490  -11.4970 N.ar  477  TRP477     -0.2442
     55  CE2       44.3200  106.2330  -11.8740 C.ar  477  TRP477      0.0810
     56  CE3       44.8750  108.4900  -12.4840 C.ar  477  TRP477      0.0012
     57  CZ2       45.6040  105.8190  -12.0590 C.ar  477  TRP477      0.0191
     58  CZ3       46.1460  108.0750  -12.6740 C.ar  477  TRP477      0.0001
     59  CH2       46.5140  106.7530  -12.4550 C.ar  477  TRP477      0.0015
     60  N         50.2100  106.4690  -20.8170 N.3   508  TRP508     -0.1241
     61  CA        50.9130  105.2050  -21.1640 C.3   508  TRP508      0.1605
     62  C         50.0480  104.1590  -21.8250 C.2   508  TRP508      0.2264
     63  O         50.5450  103.0930  -22.1810 O.2   508  TRP508     -0.2867
     64  CB        51.4840  104.6020  -19.8810 C.3   508  TRP508      0.0550
     65  CG        50.4390  104.0470  -18.9530 C.ar  508  TRP508      0.0003
     66  CD1       49.9810  102.7710  -18.9350 C.ar  508  TRP508      0.0946
     67  CD2       49.7190  104.7540  -17.9060 C.ar  508  TRP508      0.0152
     68  NE1       49.0020  102.6300  -17.9570 N.ar  508  TRP508     -0.2442
     69  CE2       48.8280  103.8270  -17.3120 C.ar  508  TRP508      0.0810
     70  CE3       49.7370  106.0790  -17.4240 C.ar  508  TRP508      0.0012
     71  CZ2       47.9780  104.1700  -16.2310 C.ar  508  TRP508      0.0191
     72  CZ3       48.8800  106.4340  -16.3560 C.ar  508  TRP508      0.0001
     73  CH2       48.0190  105.4750  -15.7760 C.ar  508  TRP508      0.0015
     74  N         37.9810  104.5790   -4.3960 N.3   546  TRP546     -0.1241
     75  CA        39.4360  104.5110   -4.3110 C.3   546  TRP546      0.1605
     76  C         40.0360  105.5230   -5.2790 C.2   546  TRP546      0.2264
     77  O         40.0390  105.2850   -6.4860 O.2   546  TRP546     -0.2867
     78  CB        39.8830  103.0880   -4.6370 C.3   546  TRP546      0.0550
     79  CG        41.3540  102.8430   -4.5760 C.ar  546  TRP546      0.0003
     80  CD1       42.2530  103.4520   -3.7950 C.ar  546  TRP546      0.0946
     81  CD2       42.0540  101.8520   -5.3030 C.ar  546  TRP546      0.0152
     82  NE1       43.4950  102.9450   -4.0220 N.ar  546  TRP546     -0.2442
     83  CE2       43.4000  101.9540   -4.9460 C.ar  546  TRP546      0.0810
     84  CE3       41.6770  100.8850   -6.2200 C.ar  546  TRP546      0.0012
     85  CZ2       44.3530  101.1870   -5.5190 C.ar  546  TRP546      0.0191
     86  CZ3       42.6110  100.1230   -6.7760 C.ar  546  TRP546      0.0001
     87  CH2       43.9390  100.2500   -6.4410 C.ar  546  TRP546      0.0015
     88  N         42.9330  107.4550   -7.0290 N.3   548  ASP548     -0.1239
     89  CA        44.3380  107.4350   -7.3290 C.3   548  ASP548      0.1674
     90  C         44.8250  108.8330   -7.7920 C.2   548  ASP548      0.2266
     91  O         44.0480  109.6680   -8.2240 O.2   548  ASP548     -0.2867
     92  CB        44.6210  106.3950   -8.4010 C.3   548  ASP548      0.1410
     93  CG        45.9880  105.8010   -8.3130 C.2   548  ASP548      0.3668
     94  OD1       46.8890  106.2830   -7.5780 O.co2 548  ASP548     -0.2456
     95  OD2       46.1750  104.7830   -9.0620 O.co2 548  ASP548     -0.2456
     96  N         45.3770  108.3980   -2.4100 N.3   608  ARG608     -0.1245
     97  CA        46.8320  108.2040   -2.4080 C.3   608  ARG608      0.1563
     98  C         47.5860  109.3270   -1.7190 C.2   608  ARG608      0.2260
     99  O         48.6960  109.1310   -1.2390 O.2   608  ARG608     -0.2867
    100  CB        47.3920  108.0630   -3.8060 C.3   608  ARG608      0.0307
    101  CG        48.6700  107.2550   -3.7930 C.3   608  ARG608      0.0489
    102  CD        49.1380  106.8200   -5.1730 C.3   608  ARG608      0.2205
    103  NE        49.4610  107.9360   -6.0460 N.pl3 608  ARG608     -0.0865
    104  CZ        49.9100  107.8130   -7.3100 C.cat 608  ARG608      0.5346
    105  NH1       49.9810  106.6330   -7.9250 N.pl3 608  ARG608      0.1354
    106  NH2       50.2530  108.8810   -7.9780 N.pl3 608  ARG608      0.1354
    107  N         46.5550  105.5270    1.5970 N.3   622  TRP622     -0.1241
    108  CA        47.4710  104.3860    1.5020 C.3   622  TRP622      0.1605
    109  C         48.8090  104.8940    1.0180 C.2   622  TRP622      0.2264
    110  O         48.9020  105.9130    0.3410 O.2   622  TRP622     -0.2867
    111  CB        46.9710  103.1810    0.6840 C.3   622  TRP622      0.0550
    112  CG        47.3130  103.1580   -0.7510 C.ar  622  TRP622      0.0003
    113  CD1       48.2330  102.3400   -1.3400 C.ar  622  TRP622      0.0946
    114  CD2       46.6790  103.8620   -1.8230 C.ar  622  TRP622      0.0152
    115  NE1       48.2610  102.5320   -2.6970 N.ar  622  TRP622     -0.2442
    116  CE2       47.3230  103.4630   -3.0270 C.ar  622  TRP622      0.0810
    117  CE3       45.6400  104.7960   -1.8980 C.ar  622  TRP622      0.0012
    118  CZ2       46.9590  103.9610   -4.2650 C.ar  622  TRP622      0.0191
    119  CZ3       45.2960  105.3050   -3.1460 C.ar  622  TRP622      0.0001
    120  CH2       45.9720  104.8870   -4.3020 C.ar  622  TRP622      0.0015
    121  N         52.7530  103.6160   -4.3640 N.3   625  ASP625     -0.1239
    122  CA        53.4480  102.6100   -5.1930 C.3   625  ASP625      0.1674
    123  C         54.8610  102.2740   -4.6790 C.2   625  ASP625      0.2266
    124  O         55.8690  102.4690   -5.3710 O.2   625  ASP625     -0.2867
    125  CB        53.4710  103.0730   -6.6520 C.3   625  ASP625      0.1410
    126  CG        52.1010  103.2350   -7.2640 C.2   625  ASP625      0.3668
    127  OD1       51.0930  102.6710   -6.7450 O.co2 625  ASP625     -0.2456
    128  OD2       52.0300  103.9670   -8.3000 O.co2 625  ASP625     -0.2456
    129  N         53.8890   97.2690   -4.0010 N.3   658  PHE658     -0.1241
    130  CA        53.1850   97.5250   -5.2450 C.3   658  PHE658      0.1605
    131  C         53.9810   97.1030   -6.4750 C.2   658  PHE658      0.2264
    132  O         53.5280   96.2750   -7.2780 O.2   658  PHE658     -0.2867
    133  CB        52.7650   98.9920   -5.3910 C.3   658  PHE658      0.0534
    134  CG        52.1310   99.2730   -6.7040 C.ar  658  PHE658     -0.0203
    135  CD1       50.7790   98.9640   -6.9130 C.ar  658  PHE658     -0.0042
    136  CD2       52.8620   99.8350   -7.7340 C.ar  658  PHE658     -0.0042
    137  CE1       50.1760   99.1990   -8.1390 C.ar  658  PHE658     -0.0003
    138  CE2       52.2720  100.0930   -8.9510 C.ar  658  PHE658     -0.0003
    139  CZ        50.9300   99.7680   -9.1580 C.ar  658  PHE658     -0.0000
    140  N         47.4190   94.4290   -2.1300 N.3   704  HIS704     -0.1241
    141  CA        47.3260   94.9960   -3.4710 C.3   704  HIS704      0.1621
    142  C         48.6910   95.0110   -4.0930 C.2   704  HIS704      0.2264
    143  O         49.7140   95.0530   -3.3880 O.2   704  HIS704     -0.2867
    144  CB        46.8230   96.4680   -3.3700 C.3   704  HIS704      0.0745
    145  CG        46.7300   97.1750   -4.6870 C.ar  704  HIS704      0.0817
    146  ND1       45.9020   96.7420   -5.7050 N.ar  704  HIS704     -0.2268
    147  CD2       47.3850   98.2580   -5.1720 C.ar  704  HIS704      0.1154
    148  CE1       46.0680   97.5050   -6.7640 C.ar  704  HIS704      0.1986
    149  NE2       46.9700   98.4300   -6.4770 N.ar  704  HIS704     -0.2212
    150  N         51.0330   94.9840   -8.2350 N.3   706  GLN706     -0.1245
    151  CA        51.2240   94.4830   -9.5660 C.3   706  GLN706      0.1566
    152  C         51.5310   92.9730   -9.5450 C.2   706  GLN706      0.2260
    153  O         51.8850   92.4030   -8.5150 O.2   706  GLN706     -0.2867
    154  CB        52.3190   95.2850  -10.2740 C.3   706  GLN706      0.0367
    155  CG        51.9600   96.7530  -10.3780 C.3   706  GLN706      0.0905
    156  CD        52.8040   97.5640  -11.3350 C.2   706  GLN706      0.2608
    157  OE1       54.0020   97.6820  -11.1640 O.2   706  GLN706     -0.2717
    158  NE2       52.1620   98.0790  -12.4070 N.am  706  GLN706     -0.0878
@<TRIPOS>BOND
     1    63    62    2
     2    62    61    1
     3    61    60    1
     4    61    64    1
     5    64    65    1
     6    65    66   ar
     7    65    67   ar
     8    66    68   ar
     9    68    69   ar
    10    67    70   ar
    11    67    69   ar
    12    45    44   ar
    13    45    43   ar
    14    44    42   ar
    15    70    72   ar
    16    69    71   ar
    17    43    41   ar
    18    42    39   ar
    19    72    73   ar
    20    71    73   ar
    21    41    39   ar
    22    41    40   ar
    23    39    37   ar
    24    34    35    2
    25    34    33    1
    26    40    38   ar
    27    37    36    1
    28    37    38   ar
    29     5     6    1
    30     5     2    1
    31     7     6   ar
    32     7     9   ar
    33    23    21   ar
    34    36    33    1
    35     6     8   ar
    36    33    32    1
    37     9    10   ar
    38     2     1    1
    39     2     3    1
    40    58    56   ar
    41    58    59   ar
    42    22    21   ar
    43    21    20    1
    44    56    53   ar
    45    59    57   ar
    46   158   156   am
    47     8    10   ar
    48     8    11   ar
    49    10    12   ar
    50    27    26    2
    51    57    55   ar
    52    53    55   ar
    53    53    51   ar
    54    32    26   am
    55    50    51    1
    56    50    47    1
    57    55    54   ar
    58    51    52   ar
    59    18    17    2
    60     4     3    2
    61    26    25    1
    62    54    52   ar
    63    11    13   ar
    64    49    48    2
    65    17    16    1
    66   156   157    2
    67   156   155    1
    68    12    14   ar
    69    20    19    1
    70    48    47    1
    71    47    46    1
    72    13    14   ar
    73   155   154    1
    74    16    19    1
    75    16    15    1
    76   154   151    1
    77    28    25    1
    78    28    29    1
    79    25    24    1
    80    29    30   ar
    81    29    31   ar
    82   151   152    1
    83   151   150    1
    84   152   153    2
    85   139   138   ar
    86   139   137   ar
    87    95    93   ar
    88   138   136   ar
    89    92    93    1
    90    92    89    1
    91    93    94   ar
    92   128   126   ar
    93    91    90    2
    94   137   135   ar
    95   106   104    1
    96   105   104    1
    97    90    89    1
    98   136   134   ar
    99    89    88    1
   100   104   103    2
   101   132   131    2
   102   126   127   ar
   103   126   125    1
   104   135   134   ar
   105    86    87   ar
   106    86    84   ar
   107   148   149   ar
   108   148   146   ar
   109   134   133    1
   110   125   122    1
   111    77    76    2
   112   149   147   ar
   113   131   130    1
   114    87    85   ar
   115    84    81   ar
   116   103   102    1
   117   146   145   ar
   118    85    83   ar
   119   133   130    1
   120   124   123    2
   121    81    83   ar
   122    81    79   ar
   123    76    75    1
   124   130   129    1
   125   122   123    1
   126   122   121    1
   127   102   101    1
   128   147   145   ar
   129    83    82   ar
   130   145   144    1
   131    78    79    1
   132    78    75    1
   133    79    80   ar
   134    74    75    1
   135   120   118   ar
   136   120   119   ar
   137   118   116   ar
   138   142   141    1
   139   142   143    2
   140    82    80   ar
   141   100   101    1
   142   100    97    1
   143   141   144    1
   144   141   140    1
   145   119   117   ar
   146   116   115   ar
   147   116   114   ar
   148   115   113   ar
   149    96    97    1
   150    97    98    1
   151   117   114   ar
   152   114   112   ar
   153    98    99    2
   154   113   112   ar
   155   112   111    1
   156   110   109    2
   157   111   108    1
   158   109   108    1
   159   108   107    1
