@<TRIPOS>MOLECULE
tmp/5jovA00.pdb
 118 114 0 0 0
SMALL
GASTEIGER

@<TRIPOS>ATOM
      1  N         53.6530  110.5540   -5.1150 N.3   177  ASN177     -0.1240
      2  CA        53.4050  109.0780   -4.9880 C.3   177  ASN177      0.1653
      3  C         54.3160  108.4280   -3.9600 C.2   177  ASN177      0.2266
      4  O         55.5220  108.2900   -4.2010 O.2   177  ASN177     -0.2867
      5  CB        53.6500  108.4470   -6.3510 C.3   177  ASN177      0.1155
      6  CG        53.2170  107.0010   -6.4610 C.2   177  ASN177      0.2627
      7  OD1       52.8360  106.3260   -5.4790 O.2   177  ASN177     -0.2716
      8  ND2       53.2400  106.5180   -7.7230 N.am  177  ASN177     -0.0877
      9  N         60.4400  103.8930  -12.6760 N.3   311  TRP311     -0.1241
     10  CA        59.5620  105.0730  -12.8540 C.3   311  TRP311      0.1605
     11  C         59.0920  105.7110  -11.5540 C.2   311  TRP311      0.2264
     12  O         58.4030  106.7540  -11.6110 O.2   311  TRP311     -0.2867
     13  CB        58.3140  104.7380  -13.7310 C.3   311  TRP311      0.0550
     14  CG        57.4810  103.6240  -13.2370 C.ar  311  TRP311      0.0003
     15  CD1       57.5800  102.3180  -13.6110 C.ar  311  TRP311      0.0946
     16  CD2       56.4460  103.6720  -12.2430 C.ar  311  TRP311      0.0152
     17  NE1       56.6640  101.5710  -12.9440 N.ar  311  TRP311     -0.2442
     18  CE2       55.9780  102.3600  -12.0750 C.ar  311  TRP311      0.0810
     19  CE3       55.8390  104.7000  -11.4920 C.ar  311  TRP311      0.0012
     20  CZ2       54.9090  102.0400  -11.2080 C.ar  311  TRP311      0.0191
     21  CZ3       54.8050  104.3600  -10.6110 C.ar  311  TRP311      0.0001
     22  CH2       54.3810  103.0530  -10.4720 C.ar  311  TRP311      0.0015
     23  N         39.6350  108.3070  -10.6600 N.3   477  TRP477     -0.1241
     24  CA        40.7150  109.2680  -10.7380 C.3   477  TRP477      0.1605
     25  C         40.1480  110.6610  -10.9830 C.2   477  TRP477      0.2264
     26  O         39.0260  110.8150  -11.4860 O.2   477  TRP477     -0.2867
     27  CB        41.6320  108.9310  -11.9190 C.3   477  TRP477      0.0550
     28  CG        42.5190  107.6490  -11.7990 C.ar  477  TRP477      0.0003
     29  CD1       42.1360  106.3910  -11.4710 C.ar  477  TRP477      0.0946
     30  CD2       43.9270  107.5740  -12.0580 C.ar  477  TRP477      0.0152
     31  NE1       43.2150  105.5490  -11.4970 N.ar  477  TRP477     -0.2442
     32  CE2       44.3200  106.2330  -11.8740 C.ar  477  TRP477      0.0810
     33  CE3       44.8750  108.4900  -12.4840 C.ar  477  TRP477      0.0012
     34  CZ2       45.6040  105.8190  -12.0590 C.ar  477  TRP477      0.0191
     35  CZ3       46.1460  108.0750  -12.6740 C.ar  477  TRP477      0.0001
     36  CH2       46.5140  106.7530  -12.4550 C.ar  477  TRP477      0.0015
     37  N         50.2100  106.4690  -20.8170 N.3   508  TRP508     -0.1241
     38  CA        50.9130  105.2050  -21.1640 C.3   508  TRP508      0.1605
     39  C         50.0480  104.1590  -21.8250 C.2   508  TRP508      0.2264
     40  O         50.5450  103.0930  -22.1810 O.2   508  TRP508     -0.2867
     41  CB        51.4840  104.6020  -19.8810 C.3   508  TRP508      0.0550
     42  CG        50.4390  104.0470  -18.9530 C.ar  508  TRP508      0.0003
     43  CD1       49.9810  102.7710  -18.9350 C.ar  508  TRP508      0.0946
     44  CD2       49.7190  104.7540  -17.9060 C.ar  508  TRP508      0.0152
     45  NE1       49.0020  102.6300  -17.9570 N.ar  508  TRP508     -0.2442
     46  CE2       48.8280  103.8270  -17.3120 C.ar  508  TRP508      0.0810
     47  CE3       49.7370  106.0790  -17.4240 C.ar  508  TRP508      0.0012
     48  CZ2       47.9780  104.1700  -16.2310 C.ar  508  TRP508      0.0191
     49  CZ3       48.8800  106.4340  -16.3560 C.ar  508  TRP508      0.0001
     50  CH2       48.0190  105.4750  -15.7760 C.ar  508  TRP508      0.0015
     51  N         42.9330  107.4550   -7.0290 N.3   548  ASP548     -0.1225
     52  CA        44.3380  107.4350   -7.3290 C.3   548  ASP548      0.1805
     53  C         44.8250  108.8330   -7.7920 C.2   548  ASP548      0.2597
     54  O         44.0480  109.6680   -8.2240 O.2   548  ASP548     -0.2718
     55  CB        44.6210  106.3950   -8.4010 C.3   548  ASP548      0.1424
     56  CG        45.9880  105.8010   -8.3130 C.2   548  ASP548      0.3668
     57  OD1       46.8890  106.2830   -7.5780 O.co2 548  ASP548     -0.2456
     58  OD2       46.1750  104.7830   -9.0620 O.co2 548  ASP548     -0.2456
     59  N         46.1290  109.0470   -7.6790 N.am  549  ALA549     -0.1979
     60  CA        46.8370  110.1930   -8.2840 C.3   549  ALA549      0.1597
     61  C         46.2820  111.5250   -7.8040 C.2   549  ALA549      0.2287
     62  O         46.2440  112.5250   -8.5450 O.2   549  ALA549     -0.2864
     63  CB        46.7920  110.1120   -9.8260 C.3   549  ALA549      0.0319
     64  N         48.9460  113.7410   -9.4370 N.3   553  ASN553     -0.1240
     65  CA        50.0350  113.2560  -10.2430 C.3   553  ASN553      0.1653
     66  C         49.7180  113.3810  -11.7230 C.2   553  ASN553      0.2266
     67  O         49.2480  112.4370  -12.3640 O.2   553  ASN553     -0.2867
     68  CB        50.4550  111.8140   -9.8860 C.3   553  ASN553      0.1155
     69  CG        51.7290  111.4210  -10.5960 C.2   553  ASN553      0.2627
     70  OD1       52.7690  112.0410  -10.4260 O.2   553  ASN553     -0.2716
     71  ND2       51.6560  110.4530  -11.3870 N.am  553  ASN553     -0.0877
     72  N         54.5580  112.0570  -14.2470 N.3   556  ASP556     -0.1239
     73  CA        55.5710  111.4820  -13.3500 C.3   556  ASP556      0.1674
     74  C         56.8970  112.2070  -13.5270 C.2   556  ASP556      0.2266
     75  O         57.2940  112.5860  -14.6380 O.2   556  ASP556     -0.2867
     76  CB        55.8920  110.0040  -13.6810 C.3   556  ASP556      0.1410
     77  CG        54.7340  109.0540  -13.5280 C.2   556  ASP556      0.3668
     78  OD1       53.7180  109.4270  -12.9700 O.co2 556  ASP556     -0.2456
     79  OD2       54.8550  107.8780  -14.0010 O.co2 556  ASP556     -0.2456
     80  N         45.3770  108.3980   -2.4100 N.3   608  ARG608     -0.1245
     81  CA        46.8320  108.2040   -2.4080 C.3   608  ARG608      0.1563
     82  C         47.5860  109.3270   -1.7190 C.2   608  ARG608      0.2260
     83  O         48.6960  109.1310   -1.2390 O.2   608  ARG608     -0.2867
     84  CB        47.3920  108.0630   -3.8060 C.3   608  ARG608      0.0307
     85  CG        48.6700  107.2550   -3.7930 C.3   608  ARG608      0.0489
     86  CD        49.1380  106.8200   -5.1730 C.3   608  ARG608      0.2205
     87  NE        49.4610  107.9360   -6.0460 N.pl3 608  ARG608     -0.0865
     88  CZ        49.9100  107.8130   -7.3100 C.cat 608  ARG608      0.5346
     89  NH1       49.9810  106.6330   -7.9250 N.pl3 608  ARG608      0.1354
     90  NH2       50.2530  108.8810   -7.9780 N.pl3 608  ARG608      0.1354
     91  N         52.7530  103.6160   -4.3640 N.3   625  ASP625     -0.1239
     92  CA        53.4480  102.6100   -5.1930 C.3   625  ASP625      0.1674
     93  C         54.8610  102.2740   -4.6790 C.2   625  ASP625      0.2266
     94  O         55.8690  102.4690   -5.3710 O.2   625  ASP625     -0.2867
     95  CB        53.4710  103.0730   -6.6520 C.3   625  ASP625      0.1410
     96  CG        52.1010  103.2350   -7.2640 C.2   625  ASP625      0.3668
     97  OD1       51.0930  102.6710   -6.7450 O.co2 625  ASP625     -0.2456
     98  OD2       52.0300  103.9670   -8.3000 O.co2 625  ASP625     -0.2456
     99  N         53.8890   97.2690   -4.0010 N.3   658  PHE658     -0.1241
    100  CA        53.1850   97.5250   -5.2450 C.3   658  PHE658      0.1605
    101  C         53.9810   97.1030   -6.4750 C.2   658  PHE658      0.2264
    102  O         53.5280   96.2750   -7.2780 O.2   658  PHE658     -0.2867
    103  CB        52.7650   98.9920   -5.3910 C.3   658  PHE658      0.0534
    104  CG        52.1310   99.2730   -6.7040 C.ar  658  PHE658     -0.0203
    105  CD1       50.7790   98.9640   -6.9130 C.ar  658  PHE658     -0.0042
    106  CD2       52.8620   99.8350   -7.7340 C.ar  658  PHE658     -0.0042
    107  CE1       50.1760   99.1990   -8.1390 C.ar  658  PHE658     -0.0003
    108  CE2       52.2720  100.0930   -8.9510 C.ar  658  PHE658     -0.0003
    109  CZ        50.9300   99.7680   -9.1580 C.ar  658  PHE658     -0.0000
    110  N         51.0330   94.9840   -8.2350 N.3   706  GLN706     -0.1245
    111  CA        51.2240   94.4830   -9.5660 C.3   706  GLN706      0.1566
    112  C         51.5310   92.9730   -9.5450 C.2   706  GLN706      0.2260
    113  O         51.8850   92.4030   -8.5150 O.2   706  GLN706     -0.2867
    114  CB        52.3190   95.2850  -10.2740 C.3   706  GLN706      0.0367
    115  CG        51.9600   96.7530  -10.3780 C.3   706  GLN706      0.0905
    116  CD        52.8040   97.5640  -11.3350 C.2   706  GLN706      0.2608
    117  OE1       54.0020   97.6820  -11.1640 O.2   706  GLN706     -0.2717
    118  NE2       52.1620   98.0790  -12.4070 N.am  706  GLN706     -0.0878
@<TRIPOS>BOND
     1    40    39    2
     2    39    38    1
     3    38    37    1
     4    38    41    1
     5    41    42    1
     6    42    43   ar
     7    42    44   ar
     8    43    45   ar
     9    45    46   ar
    10    44    47   ar
    11    44    46   ar
    12    47    49   ar
    13    46    48   ar
    14    49    50   ar
    15    48    50   ar
    16    75    74    2
    17    72    73    1
    18    79    77   ar
    19    13    14    1
    20    13    10    1
    21    76    77    1
    22    76    73    1
    23    15    14   ar
    24    15    17   ar
    25    77    78   ar
    26    74    73    1
    27    14    16   ar
    28    17    18   ar
    29    10     9    1
    30    10    11    1
    31    35    33   ar
    32    35    36   ar
    33    33    30   ar
    34    36    34   ar
    35   118   116   am
    36    67    66    2
    37    16    18   ar
    38    16    19   ar
    39    18    20   ar
    40    34    32   ar
    41    30    32   ar
    42    30    28   ar
    43    27    28    1
    44    27    24    1
    45    32    31   ar
    46    28    29   ar
    47    66    65    1
    48    12    11    2
    49    31    29   ar
    50    19    21   ar
    51    26    25    2
    52    71    69   am
    53   116   117    2
    54   116   115    1
    55    20    22   ar
    56    25    24    1
    57    24    23    1
    58    21    22   ar
    59    69    70    2
    60    69    68    1
    61   115   114    1
    62   114   111    1
    63    65    68    1
    64    65    64    1
    65    63    60    1
    66   111   112    1
    67   111   110    1
    68   112   113    2
    69   109   108   ar
    70   109   107   ar
    71    58    56   ar
    72   108   106   ar
    73    62    61    2
    74    55    56    1
    75    55    52    1
    76    56    57   ar
    77    98    96   ar
    78    60    61    1
    79    60    59    1
    80    54    53    2
    81   107   105   ar
    82    90    88    1
    83    89    88    1
    84    53    59   am
    85    53    52    1
    86   106   104   ar
    87     8     6   am
    88    52    51    1
    89    88    87    2
    90   102   101    2
    91    96    97   ar
    92    96    95    1
    93   105   104   ar
    94   104   103    1
    95    95    92    1
    96   101   100    1
    97     6     5    1
    98     6     7    2
    99     5     2    1
   100    87    86    1
   101   103   100    1
   102    94    93    2
   103   100    99    1
   104    92    93    1
   105    92    91    1
   106    86    85    1
   107     1     2    1
   108     2     3    1
   109     4     3    2
   110    84    85    1
   111    84    81    1
   112    80    81    1
   113    81    82    1
   114    82    83    2
