@<TRIPOS>MOLECULE
tmp/5jowB00.pdb
 99 94 0 0 0
SMALL
GASTEIGER

@<TRIPOS>ATOM
      1  N        285.3770  193.3510  334.3700 N.3    16  ASP16      -0.1239
      2  CA       285.5930  192.3610  333.3140 C.3    16  ASP16       0.1674
      3  C        284.2960  191.8190  332.7040 C.2    16  ASP16       0.2266
      4  O        284.0940  190.5980  332.6370 O.2    16  ASP16      -0.2867
      5  CB       286.4700  191.2200  333.8440 C.3    16  ASP16       0.1410
      6  CG       287.7940  191.7140  334.4360 C.2    16  ASP16       0.3668
      7  OD1      288.3990  192.6300  333.8330 O.co2  16  ASP16      -0.2456
      8  OD2      288.2320  191.1740  335.5000 O.co2  16  ASP16      -0.2456
      9  N        286.5660  187.4770  342.0420 N.3    33  PHE33      -0.1241
     10  CA       287.7630  187.3880  342.8880 C.3    33  PHE33       0.1605
     11  C        287.5340  186.4700  344.0790 C.2    33  PHE33       0.2264
     12  O        287.2520  185.2850  343.8620 O.2    33  PHE33      -0.2867
     13  CB       288.3190  188.8020  343.1730 C.3    33  PHE33       0.0534
     14  CG       288.6200  189.5060  341.9010 C.ar   33  PHE33      -0.0203
     15  CD1      289.8080  189.2420  341.2100 C.ar   33  PHE33      -0.0042
     16  CD2      287.6340  190.2460  341.2660 C.ar   33  PHE33      -0.0042
     17  CE1      290.0120  189.7620  339.9470 C.ar   33  PHE33      -0.0003
     18  CE2      287.8510  190.7870  340.0080 C.ar   33  PHE33      -0.0003
     19  CZ       289.0250  190.5570  339.3490 C.ar   33  PHE33      -0.0000
     20  N        289.1440  185.4360  338.1790 N.3    75  PHE75      -0.1227
     21  CA       289.5220  186.5360  337.2960 C.3    75  PHE75       0.1736
     22  C        288.4770  186.6850  336.1510 C.2    75  PHE75       0.2595
     23  O        287.3790  186.1410  336.2640 O.2    75  PHE75      -0.2718
     24  CB       290.9590  186.3220  336.8020 C.3    75  PHE75       0.0547
     25  CG       292.0340  186.7870  337.7560 C.ar   75  PHE75      -0.0202
     26  CD1      291.8030  186.9740  339.1290 C.ar   75  PHE75      -0.0042
     27  CD2      293.3130  187.0330  337.2790 C.ar   75  PHE75      -0.0042
     28  CE1      292.8200  187.4090  339.9840 C.ar   75  PHE75      -0.0003
     29  CE2      294.3260  187.4630  338.1340 C.ar   75  PHE75      -0.0003
     30  CZ       294.0730  187.6710  339.4830 C.ar   75  PHE75      -0.0000
     31  N        288.7840  187.4340  335.0860 N.am   76  ALA76      -0.1980
     32  CA       287.8000  187.7190  334.0290 C.3    76  ALA76       0.1597
     33  C        287.1170  186.4470  333.5090 C.2    76  ALA76       0.2287
     34  O        287.8100  185.4540  333.1810 O.2    76  ALA76      -0.2864
     35  CB       288.4700  188.4050  332.8660 C.3    76  ALA76       0.0319
     36  N        295.5520  183.6120  331.7410 N.3   121  ILE121     -0.1231
     37  CA       294.2540  184.0570  332.2610 C.3   121  ILE121      0.1692
     38  C        293.3850  184.5780  331.1040 C.2   121  ILE121      0.2592
     39  O        293.7610  184.4730  329.9090 O.2   121  ILE121     -0.2718
     40  CB       294.4390  185.1140  333.3770 C.3   121  ILE121      0.0266
     41  CG1      295.1320  186.3680  332.8410 C.3   121  ILE121      0.0019
     42  CG2      295.2330  184.5110  334.5410 C.3   121  ILE121      0.0020
     43  CD1      295.1180  187.5330  333.7970 C.3   121  ILE121      0.0001
     44  N        292.2150  185.0880  331.4510 N.am  122  ASP122     -0.1974
     45  CA       291.2670  185.6840  330.4940 C.3   122  ASP122      0.1709
     46  C        290.9270  184.7670  329.3200 C.2   122  ASP122      0.2293
     47  O        291.0210  185.1610  328.1630 O.2   122  ASP122     -0.2864
     48  CB       291.7940  187.0320  330.0110 C.3   122  ASP122      0.1436
     49  CG       291.9300  188.0500  331.1320 C.2   122  ASP122      0.3671
     50  OD1      291.7390  187.6940  332.3150 O.co2 122  ASP122     -0.2456
     51  OD2      292.2470  189.2210  330.8260 O.co2 122  ASP122     -0.2456
     52  N        295.7940  191.4300  327.4880 N.3   171  GLU171     -0.1245
     53  CA       294.8690  190.5180  328.1380 C.3   171  GLU171      0.1567
     54  C        293.4610  190.6720  327.5460 C.2   171  GLU171      0.2260
     55  O        293.2730  191.3770  326.5530 O.2   171  GLU171     -0.2867
     56  CB       294.9120  190.7180  329.6680 C.3   171  GLU171      0.0388
     57  CG       294.3600  192.0380  330.1740 C.3   171  GLU171      0.1160
     58  CD       294.6510  192.2930  331.6740 C.2   171  GLU171      0.3649
     59  OE1      295.2570  191.4480  332.3740 O.co2 171  GLU171     -0.2457
     60  OE2      294.2870  193.3720  332.1780 O.co2 171  GLU171     -0.2457
     61  N        294.9200  197.7730  334.0790 N.3   191  THR191     -0.1218
     62  CA       293.5300  198.1140  334.4510 C.3   191  THR191      0.1862
     63  C        293.4280  199.3830  335.3230 C.2   191  THR191      0.2287
     64  O        292.4410  199.5850  336.0120 O.2   191  THR191     -0.2866
     65  CB       292.7930  196.8870  335.0490 C.3   191  THR191      0.1770
     66  OG1      291.3590  197.1260  335.1060 O.3   191  THR191     -0.2211
     67  CG2      293.3590  196.5360  336.4200 C.3   191  THR191      0.0375
     68  N        288.8600  196.2750  328.7830 N.3   235  HIS235     -0.1241
     69  CA       288.2660  194.9400  328.9370 C.3   235  HIS235      0.1621
     70  C        286.8640  194.8510  328.3440 C.2   235  HIS235      0.2264
     71  O        285.8900  194.5610  329.0390 O.2   235  HIS235     -0.2867
     72  CB       288.2940  194.4260  330.3790 C.3   235  HIS235      0.0745
     73  CG       288.5070  192.9510  330.4500 C.ar  235  HIS235      0.0817
     74  ND1      289.7190  192.3990  330.7720 N.ar  235  HIS235     -0.2268
     75  CD2      287.6880  191.9200  330.1480 C.ar  235  HIS235      0.1154
     76  CE1      289.6270  191.0790  330.7150 C.ar  235  HIS235      0.1986
     77  NE2      288.4050  190.7630  330.3230 N.ar  235  HIS235     -0.2212
     78  N        285.7360  198.4830  339.8180 N.3   265  ARG265     -0.1245
     79  CA       285.5340  198.6520  338.4020 C.3   265  ARG265      0.1563
     80  C        284.1130  198.1860  338.0950 C.2   265  ARG265      0.2260
     81  O        283.6740  197.1130  338.5550 O.2   265  ARG265     -0.2867
     82  CB       286.5800  197.8490  337.6450 C.3   265  ARG265      0.0307
     83  CG       287.9960  198.3890  337.8500 C.3   265  ARG265      0.0489
     84  CD       289.1000  197.4250  337.4700 C.3   265  ARG265      0.2205
     85  NE       288.9720  196.1490  338.1350 N.pl3 265  ARG265     -0.0865
     86  CZ       289.4550  194.9910  337.6910 C.cat 265  ARG265      0.5346
     87  NH1      290.1540  194.9100  336.5460 N.pl3 265  ARG265      0.1354
     88  NH2      289.2070  193.8800  338.4110 N.pl3 265  ARG265      0.1354
     89  N        291.7340  193.9590  343.1270 N.3   473  PHE473     -0.1241
     90  CA       290.9120  194.0260  341.9170 C.3   473  PHE473      0.1605
     91  C        289.4090  194.2230  342.1750 C.2   473  PHE473      0.2264
     92  O        288.5810  194.0040  341.2820 O.2   473  PHE473     -0.2867
     93  CB       291.1220  192.7420  341.1150 C.3   473  PHE473      0.0534
     94  CG       292.4920  192.6060  340.5240 C.ar  473  PHE473     -0.0203
     95  CD1      292.9830  193.5630  339.6430 C.ar  473  PHE473     -0.0042
     96  CD2      293.2660  191.4850  340.7950 C.ar  473  PHE473     -0.0042
     97  CE1      294.2440  193.4210  339.0800 C.ar  473  PHE473     -0.0003
     98  CE2      294.5220  191.3280  340.2170 C.ar  473  PHE473     -0.0003
     99  CZ       295.0070  192.3040  339.3610 C.ar  473  PHE473     -0.0000
@<TRIPOS>BOND
     1    55    54    2
     2    52    53    1
     3    54    53    1
     4    53    56    1
     5    47    46    2
     6    70    69    1
     7    70    71    2
     8    68    69    1
     9    69    72    1
    10    46    45    1
    11    56    57    1
    12    39    38    2
    13    48    45    1
    14    48    49    1
    15    75    77   ar
    16    75    73   ar
    17    57    58    1
    18    77    76   ar
    19    72    73    1
    20    73    74   ar
    21    45    44    1
    22    76    74   ar
    23    51    49   ar
    24    38    44   am
    25    38    37    1
    26    49    50   ar
    27    58    60   ar
    28    58    59   ar
    29    36    37    1
    30    37    40    1
    31     4     3    2
    32     3     2    1
    33    41    40    1
    34    41    43    1
    35    35    32    1
    36    34    33    2
    37     2     5    1
    38     2     1    1
    39    40    42    1
    40    33    32    1
    41     7     6   ar
    42     5     6    1
    43    32    31    1
    44    61    62    1
    45     6     8   ar
    46    62    65    1
    47    62    63    1
    48    65    66    1
    49    65    67    1
    50    31    22   am
    51    63    64    2
    52    22    23    2
    53    22    21    1
    54    87    86    1
    55    24    21    1
    56    24    25    1
    57    27    25   ar
    58    27    29   ar
    59    21    20    1
    60    84    83    1
    61    84    85    1
    62    82    83    1
    63    82    79    1
    64    86    85    2
    65    86    88    1
    66    25    26   ar
    67    80    79    1
    68    80    81    2
    69    29    30   ar
    70    79    78    1
    71    97    99   ar
    72    97    95   ar
    73    26    28   ar
    74    19    17   ar
    75    19    18   ar
    76    99    98   ar
    77    30    28   ar
    78    95    94   ar
    79    17    15   ar
    80    18    16   ar
    81    98    96   ar
    82    94    96   ar
    83    94    93    1
    84    93    90    1
    85    15    14   ar
    86    16    14   ar
    87    92    91    2
    88    14    13    1
    89    90    91    1
    90    90    89    1
    91     9    10    1
    92    10    13    1
    93    10    11    1
    94    12    11    2
