@<TRIPOS>MOLECULE
tmp/5joxA00.pdb
 99 94 0 0 0
SMALL
GASTEIGER

@<TRIPOS>ATOM
      1  N        311.9350  217.6850  333.7510 N.3    15  ASP15      -0.1239
      2  CA       312.0070  218.6500  332.6680 C.3    15  ASP15       0.1674
      3  C        313.4110  219.2150  332.5020 C.2    15  ASP15       0.2266
      4  O        313.5780  220.4310  332.4720 O.2    15  ASP15      -0.2867
      5  CB       311.0200  219.7940  332.9530 C.3    15  ASP15       0.1410
      6  CG       309.5760  219.3180  333.0920 C.2    15  ASP15       0.3668
      7  OD1      309.1560  218.4020  332.3180 O.co2  15  ASP15      -0.2456
      8  OD2      308.8580  219.8840  333.9510 O.co2  15  ASP15      -0.2456
      9  N        308.3210  223.4880  340.7350 N.3    32  PHE32      -0.1241
     10  CA       306.9430  223.5590  341.2000 C.3    32  PHE32       0.1605
     11  C        306.7690  224.4400  342.4520 C.2    32  PHE32       0.2264
     12  O        307.0560  225.6390  342.3540 O.2    32  PHE32      -0.2867
     13  CB       306.3770  222.1420  341.2750 C.3    32  PHE32       0.0534
     14  CG       306.5270  221.4380  339.9780 C.ar   32  PHE32      -0.0203
     15  CD1      305.5760  221.6050  338.9790 C.ar   32  PHE32      -0.0042
     16  CD2      307.6730  220.7200  339.7000 C.ar   32  PHE32      -0.0042
     17  CE1      305.7470  221.0280  337.7280 C.ar   32  PHE32      -0.0003
     18  CE2      307.8560  220.1500  338.4560 C.ar   32  PHE32      -0.0003
     19  CZ       306.9050  220.3010  337.4690 C.ar   32  PHE32      -0.0000
     20  N        306.9860  225.4740  336.2620 N.3    74  PHE74      -0.1227
     21  CA       306.9460  224.3540  335.2910 C.3    74  PHE74       0.1736
     22  C        308.3020  224.2470  334.5440 C.2    74  PHE74       0.2595
     23  O        309.3120  224.7980  335.0270 O.2    74  PHE74      -0.2718
     24  CB       305.7320  224.5520  334.3800 C.3    74  PHE74       0.0547
     25  CG       304.4330  224.0120  334.9480 C.ar   74  PHE74      -0.0202
     26  CD1      304.1960  223.9300  336.3290 C.ar   74  PHE74      -0.0042
     27  CD2      303.4350  223.5860  334.0890 C.ar   74  PHE74      -0.0042
     28  CE1      303.0040  223.4140  336.8130 C.ar   74  PHE74      -0.0003
     29  CE2      302.2390  223.0600  334.5760 C.ar   74  PHE74      -0.0003
     30  CZ       302.0250  222.9870  335.9380 C.ar   74  PHE74      -0.0000
     31  N        308.3620  223.5100  333.4170 N.am   75  ALA75      -0.1980
     32  CA       309.6310  223.2570  332.7110 C.3    75  ALA75       0.1597
     33  C        310.4330  224.5180  332.4510 C.2    75  ALA75       0.2287
     34  O        309.8840  225.4900  331.9350 O.2    75  ALA75      -0.2864
     35  CB       309.4030  222.5810  331.3800 C.3    75  ALA75       0.0319
     36  N        302.9390  227.2680  327.9370 N.3   120  ILE120     -0.1231
     37  CA       304.0280  226.8520  328.8200 C.3   120  ILE120      0.1692
     38  C        305.2530  226.3660  328.0290 C.2   120  ILE120      0.2592
     39  O        305.2820  226.4370  326.7720 O.2   120  ILE120     -0.2718
     40  CB       303.5440  225.8000  329.8530 C.3   120  ILE120      0.0266
     41  CG1      303.0980  224.5120  329.1700 C.3   120  ILE120      0.0019
     42  CG2      302.4230  226.3830  330.6950 C.3   120  ILE120      0.0020
     43  CD1      302.8230  223.4020  330.1580 C.3   120  ILE120      0.0001
     44  N        306.2640  225.9110  328.7610 N.am  121  ASP121     -0.1974
     45  CA       307.4860  225.3510  328.1900 C.3   121  ASP121      0.1709
     46  C        308.1420  226.2990  327.1990 C.2   121  ASP121      0.2293
     47  O        308.4450  225.9070  326.0770 O.2   121  ASP121     -0.2864
     48  CB       307.2210  224.0100  327.5050 C.3   121  ASP121      0.1436
     49  CG       306.7030  222.9560  328.4540 C.2   121  ASP121      0.3671
     50  OD1      306.6620  223.1930  329.6720 O.co2 121  ASP121     -0.2456
     51  OD2      306.3240  221.8810  327.9480 O.co2 121  ASP121     -0.2456
     52  N        304.2800  219.5430  323.5910 N.3   170  GLU170     -0.1245
     53  CA       304.9130  220.4520  324.5550 C.3   170  GLU170      0.1567
     54  C        306.4500  220.3230  324.5360 C.2   170  GLU170      0.2260
     55  O        306.9960  219.6250  323.6880 O.2   170  GLU170     -0.2867
     56  CB       304.3250  220.1640  325.9410 C.3   170  GLU170      0.0388
     57  CG       304.6520  218.7730  326.4790 C.3   170  GLU170      0.1160
     58  CD       303.7600  218.3270  327.6320 C.2   170  GLU170      0.3649
     59  OE1      302.8300  219.0750  328.0390 O.co2 170  GLU170     -0.2457
     60  OE2      303.9820  217.2020  328.1310 O.co2 170  GLU170     -0.2457
     61  N        303.3210  213.3940  330.2070 N.3   190  THR190     -0.1218
     62  CA       304.4950  213.0080  331.0320 C.3   190  THR190      0.1862
     63  C        304.3360  211.7410  331.9040 C.2   190  THR190      0.2287
     64  O        305.1210  211.5530  332.8410 O.2   190  THR190     -0.2866
     65  CB       304.9540  214.1760  331.9350 C.3   190  THR190      0.1770
     66  OG1      306.2390  213.8730  332.5000 O.3   190  THR190     -0.2211
     67  CG2      303.9560  214.4230  333.0490 C.3   190  THR190      0.0375
     68  N        310.4330  214.8130  327.3230 N.3   234  HIS234     -0.1241
     69  CA       310.8710  216.1560  327.6650 C.3   234  HIS234      0.1621
     70  C        312.3850  216.3080  327.5690 C.2   234  HIS234      0.2264
     71  O        313.0620  216.6360  328.5570 O.2   234  HIS234     -0.2867
     72  CB       310.3350  216.6140  329.0240 C.3   234  HIS234      0.0745
     73  CG       310.1380  218.0950  329.0670 C.ar  234  HIS234      0.0817
     74  ND1      308.8950  218.6840  329.0360 N.ar  234  HIS234     -0.2268
     75  CD2      311.0380  219.1020  329.0140 C.ar  234  HIS234      0.1154
     76  CE1      309.0430  219.9990  328.9840 C.ar  234  HIS234      0.1986
     77  NE2      310.3300  220.2760  328.9580 N.ar  234  HIS234     -0.2212
     78  N        310.0320  212.5760  338.7840 N.3   264  ARG264     -0.1245
     79  CA       310.6420  212.3860  337.4890 C.3   264  ARG264      0.1563
     80  C        312.0910  212.8850  337.6100 C.2   264  ARG264      0.2260
     81  O        312.3400  213.9820  338.1180 O.2   264  ARG264     -0.2867
     82  CB       309.8490  213.1210  336.4290 C.3   264  ARG264      0.0307
     83  CG       308.4240  212.6140  336.3330 C.3   264  ARG264      0.0489
     84  CD       307.5710  213.5820  335.5570 C.3   264  ARG264      0.2205
     85  NE       307.4210  214.8330  336.2960 N.pl3 264  ARG264     -0.0865
     86  CZ       307.0620  216.0040  335.7550 C.cat 264  ARG264      0.5346
     87  NH1      306.8390  216.1400  334.4360 N.pl3 264  ARG264      0.1354
     88  NH2      306.9700  217.0680  336.5360 N.pl3 264  ARG264      0.1354
     89  N        303.2540  216.9800  340.2180 N.3   472  PHE472     -0.1241
     90  CA       304.3710  216.8650  339.3060 C.3   472  PHE472      0.1605
     91  C        305.7280  216.6910  339.9860 C.2   472  PHE472      0.2264
     92  O        306.7650  216.9710  339.3720 O.2   472  PHE472     -0.2867
     93  CB       304.3950  218.1470  338.4740 C.3   472  PHE472      0.0534
     94  CG       303.2580  218.2790  337.5190 C.ar  472  PHE472     -0.0203
     95  CD1      303.0410  217.3080  336.5440 C.ar  472  PHE472     -0.0042
     96  CD2      302.4240  219.4010  337.5530 C.ar  472  PHE472     -0.0042
     97  CE1      302.0020  217.4360  335.6370 C.ar  472  PHE472     -0.0003
     98  CE2      301.3800  219.5340  336.6440 C.ar  472  PHE472     -0.0003
     99  CZ       301.1720  218.5510  335.6830 C.ar  472  PHE472     -0.0000
@<TRIPOS>BOND
     1    52    53    1
     2    55    54    2
     3    54    53    1
     4    53    56    1
     5    56    57    1
     6    47    46    2
     7    57    58    1
     8    39    38    2
     9    46    45    1
    10    68    69    1
    11    48    45    1
    12    48    49    1
    13    70    69    1
    14    70    71    2
    15    58    59   ar
    16    58    60   ar
    17    69    72    1
    18    36    37    1
    19    51    49   ar
    20    38    44   am
    21    38    37    1
    22    45    44    1
    23    49    50   ar
    24    37    40    1
    25    77    76   ar
    26    77    75   ar
    27    76    74   ar
    28    75    73   ar
    29    72    73    1
    30    74    73   ar
    31    41    40    1
    32    41    43    1
    33    40    42    1
    34    61    62    1
    35    62    63    1
    36    62    65    1
    37    35    32    1
    38    63    64    2
    39    65    66    1
    40    65    67    1
    41    34    33    2
    42     7     6   ar
    43    33    32    1
    44     4     3    2
    45     3     2    1
    46     2     5    1
    47     2     1    1
    48    32    31    1
    49     5     6    1
    50     6     8   ar
    51    31    22   am
    52    27    29   ar
    53    27    25   ar
    54    24    25    1
    55    24    21    1
    56    87    86    1
    57    22    23    2
    58    22    21    1
    59    29    30   ar
    60    25    26   ar
    61    21    20    1
    62    84    85    1
    63    84    83    1
    64    97    99   ar
    65    97    95   ar
    66    99    98   ar
    67    86    85    2
    68    86    88    1
    69    30    28   ar
    70    26    28   ar
    71    83    82    1
    72    82    79    1
    73    95    94   ar
    74    98    96   ar
    75    19    17   ar
    76    19    18   ar
    77    79    80    1
    78    79    78    1
    79    94    96   ar
    80    94    93    1
    81    80    81    2
    82    17    15   ar
    83    18    16   ar
    84    93    90    1
    85    15    14   ar
    86    90    91    1
    87    90    89    1
    88    92    91    2
    89    16    14   ar
    90    14    13    1
    91     9    10    1
    92    10    13    1
    93    10    11    1
    94    12    11    2
