@<TRIPOS>MOLECULE
tmp/5joyA01.pdb
 93 89 0 0 0
SMALL
GASTEIGER

@<TRIPOS>ATOM
      1  N        306.4350  225.2290  335.6280 N.3    74  PHE74      -0.1241
      2  CA       306.3500  224.0970  334.6780 C.3    74  PHE74       0.1605
      3  C        307.6870  224.0160  333.9030 C.2    74  PHE74       0.2264
      4  O        308.7060  224.5380  334.3770 O.2    74  PHE74      -0.2867
      5  CB       305.1260  224.2970  333.7860 C.3    74  PHE74       0.0534
      6  CG       303.8030  223.8880  334.4060 C.ar   74  PHE74      -0.0203
      7  CD1      303.6420  223.6370  335.7790 C.ar   74  PHE74      -0.0042
      8  CD2      302.6840  223.7780  333.5850 C.ar   74  PHE74      -0.0042
      9  CE1      302.4080  223.2640  336.2920 C.ar   74  PHE74      -0.0003
     10  CE2      301.4490  223.4000  334.0980 C.ar   74  PHE74      -0.0003
     11  CZ       301.3090  223.1510  335.4490 C.ar   74  PHE74      -0.0000
     12  N        302.2890  227.1380  327.2380 N.3   120  ILE120     -0.1245
     13  CA       303.3380  226.7650  328.1780 C.3   120  ILE120      0.1561
     14  C        304.5550  226.2210  327.4190 C.2   120  ILE120      0.2260
     15  O        304.5960  226.2880  326.1810 O.2   120  ILE120     -0.2867
     16  CB       302.8140  225.7460  329.2190 C.3   120  ILE120      0.0252
     17  CG1      302.4020  224.4350  328.5430 C.3   120  ILE120      0.0019
     18  CG2      301.6640  226.3610  329.9900 C.3   120  ILE120      0.0019
     19  CD1      302.3910  223.2340  329.4820 C.3   120  ILE120      0.0001
     20  N        298.3140  213.1830  321.7450 N.3   167  ARG167     -0.1231
     21  CA       297.7410  214.1370  322.7140 C.3   167  ARG167      0.1694
     22  C        298.7870  215.0650  323.3040 C.2   167  ARG167      0.2592
     23  O        299.9630  214.7160  323.3840 O.2   167  ARG167     -0.2718
     24  CB       297.0140  213.4210  323.8530 C.3   167  ARG167      0.0321
     25  CG       297.9240  212.5740  324.7410 C.3   167  ARG167      0.0489
     26  CD       297.2520  212.0520  326.0010 C.3   167  ARG167      0.2205
     27  NE       295.9660  211.4340  325.6980 N.pl3 167  ARG167     -0.0865
     28  CZ       294.9620  211.2760  326.5570 C.cat 167  ARG167      0.5346
     29  NH1      295.0460  211.6970  327.8220 N.pl3 167  ARG167      0.1354
     30  NH2      293.8370  210.7260  326.1290 N.pl3 167  ARG167      0.1354
     31  N        298.3330  216.2430  323.7240 N.am  168  TYR168     -0.1976
     32  CA       299.1210  217.1660  324.5290 C.3   168  TYR168      0.1639
     33  C        300.5070  217.5020  323.9560 C.2   168  TYR168      0.2290
     34  O        301.5310  217.3610  324.6350 O.2   168  TYR168     -0.2864
     35  CB       299.2320  216.6480  325.9810 C.3   168  TYR168      0.0560
     36  CG       297.9120  216.5120  326.7040 C.ar  168  TYR168     -0.0198
     37  CD1      296.9560  217.5370  326.6700 C.ar  168  TYR168     -0.0009
     38  CD2      297.6330  215.3900  327.4760 C.ar  168  TYR168     -0.0009
     39  CE1      295.7590  217.4230  327.3380 C.ar  168  TYR168      0.0417
     40  CE2      296.4310  215.2650  328.1600 C.ar  168  TYR168      0.0417
     41  CZ       295.4960  216.2760  328.0830 C.ar  168  TYR168      0.1957
     42  OH       294.3070  216.1590  328.7490 O.3   168  TYR168     -0.2866
     43  N        303.5920  219.3220  323.4090 N.3   170  GLU170     -0.1245
     44  CA       304.2680  220.2250  324.3320 C.3   170  GLU170      0.1567
     45  C        305.7900  220.1080  324.1760 C.2   170  GLU170      0.2260
     46  O        306.2660  219.4400  323.2710 O.2   170  GLU170     -0.2867
     47  CB       303.7860  219.9410  325.7840 C.3   170  GLU170      0.0388
     48  CG       304.2380  218.6090  326.3700 C.3   170  GLU170      0.1160
     49  CD       303.5320  218.2160  327.6840 C.2   170  GLU170      0.3649
     50  OE1      302.9540  219.1010  328.3610 O.co2 170  GLU170     -0.2457
     51  OE2      303.5700  217.0000  328.0540 O.co2 170  GLU170     -0.2457
     52  N        301.0650  212.6870  326.3900 N.3   189  GLY189     -0.1210
     53  CA       300.9910  212.9110  327.8240 C.3   189  GLY189      0.1956
     54  C        302.2060  212.3690  328.5750 C.2   189  GLY189      0.2613
     55  O        302.9720  211.5640  328.0510 O.2   189  GLY189     -0.2717
     56  N        302.3630  212.7990  329.8230 N.am  190  THR190     -0.1938
     57  CA       303.5540  212.5050  330.6100 C.3   190  THR190      0.2028
     58  C        303.4300  211.2450  331.4830 C.2   190  THR190      0.2642
     59  O        304.2010  211.0920  332.4260 O.2   190  THR190     -0.2714
     60  CB       303.9690  213.7370  331.4700 C.3   190  THR190      0.1808
     61  OG1      305.2920  213.5400  331.9950 O.3   190  THR190     -0.2208
     62  CG2      302.9920  214.0050  332.5990 C.3   190  THR190      0.0379
     63  N        302.4730  210.3680  331.1790 N.am  191  GLU191     -0.1976
     64  CA       302.3500  209.0470  331.8110 C.3   191  GLU191      0.1602
     65  C        302.8480  207.9590  330.8100 C.2   191  GLU191      0.2287
     66  O        303.8170  208.2080  330.0850 O.2   191  GLU191     -0.2864
     67  CB       300.9130  208.8120  332.3000 C.3   191  GLU191      0.0415
     68  CG       300.3330  209.9760  333.1220 C.3   191  GLU191      0.1163
     69  CD       299.7740  211.1110  332.2570 C.2   191  GLU191      0.3649
     70  OE1      299.3690  210.8800  331.0950 O.co2 191  GLU191     -0.2457
     71  OE2      299.7580  212.2590  332.7300 O.co2 191  GLU191     -0.2457
     72  N        309.3250  212.3190  338.1400 N.3   264  ARG264     -0.1245
     73  CA       309.9340  212.1090  336.8570 C.3   264  ARG264      0.1563
     74  C        311.3870  212.6080  336.9970 C.2   264  ARG264      0.2260
     75  O        311.6460  213.7090  337.5400 O.2   264  ARG264     -0.2867
     76  CB       309.1310  212.8290  335.7780 C.3   264  ARG264      0.0307
     77  CG       307.6800  212.3620  335.7280 C.3   264  ARG264      0.0489
     78  CD       306.8050  213.3190  334.9640 C.3   264  ARG264      0.2205
     79  NE       306.6660  214.6100  335.6660 N.pl3 264  ARG264     -0.0865
     80  CZ       306.2920  215.7470  335.0830 C.cat 264  ARG264      0.5346
     81  NH1      306.0580  215.8100  333.7700 N.pl3 264  ARG264      0.1354
     82  NH2      306.1870  216.8570  335.8060 N.pl3 264  ARG264      0.1354
     83  N        302.6060  216.6460  339.5020 N.3   472  PHE472     -0.1241
     84  CA       303.7260  216.6150  338.5720 C.3   472  PHE472      0.1605
     85  C        305.0760  216.4230  339.2480 C.2   472  PHE472      0.2264
     86  O        306.1100  216.6930  338.6370 O.2   472  PHE472     -0.2867
     87  CB       303.7280  217.9420  337.7940 C.3   472  PHE472      0.0534
     88  CG       302.6380  218.0630  336.7750 C.ar  472  PHE472     -0.0203
     89  CD1      302.4900  217.1000  335.7620 C.ar  472  PHE472     -0.0042
     90  CD2      301.7850  219.1680  336.7770 C.ar  472  PHE472     -0.0042
     91  CE1      301.4940  217.2280  334.8060 C.ar  472  PHE472     -0.0003
     92  CE2      300.7940  219.2910  335.8200 C.ar  472  PHE472     -0.0003
     93  CZ       300.6440  218.3230  334.8340 C.ar  472  PHE472     -0.0000
@<TRIPOS>BOND
     1    20    21    1
     2    21    22    1
     3    21    24    1
     4    46    45    2
     5    22    23    2
     6    22    31   am
     7    43    44    1
     8    31    32    1
     9    24    25    1
    10    33    32    1
    11    33    34    2
    12    45    44    1
    13    44    47    1
    14    32    35    1
    15    25    26    1
    16    27    26    1
    17    27    28    2
    18    47    48    1
    19    35    36    1
    20    30    28    1
    21    15    14    2
    22    48    49    1
    23    52    53    1
    24    28    29    1
    25    37    36   ar
    26    37    39   ar
    27    36    38   ar
    28    12    13    1
    29    39    41   ar
    30    14    13    1
    31    38    40   ar
    32    49    51   ar
    33    49    50   ar
    34    53    54    1
    35    55    54    2
    36    41    40   ar
    37    41    42    1
    38    13    16    1
    39    17    16    1
    40    17    19    1
    41    54    56   am
    42    16    18    1
    43    56    57    1
    44    66    65    2
    45    57    60    1
    46    57    58    1
    47    65    64    1
    48    70    69   ar
    49    63    58   am
    50    63    64    1
    51    60    61    1
    52    60    62    1
    53    58    59    2
    54    64    67    1
    55    69    71   ar
    56    69    68    1
    57    67    68    1
    58     8    10   ar
    59     8     6   ar
    60    81    80    1
    61     5     6    1
    62     5     2    1
    63     3     4    2
    64     3     2    1
    65    10    11   ar
    66     6     7   ar
    67     2     1    1
    68    91    93   ar
    69    91    89   ar
    70    93    92   ar
    71    78    79    1
    72    78    77    1
    73    80    79    2
    74    80    82    1
    75    11     9   ar
    76    77    76    1
    77    89    88   ar
    78    76    73    1
    79     7     9   ar
    80    92    90   ar
    81    88    90   ar
    82    88    87    1
    83    73    74    1
    84    73    72    1
    85    74    75    2
    86    87    84    1
    87    84    85    1
    88    84    83    1
    89    86    85    2
