@<TRIPOS>MOLECULE
tmp/5jp0A00.pdb
 151 147 0 0 0
SMALL
GASTEIGER

@<TRIPOS>ATOM
      1  N         49.1720   15.2160   26.5000 N.3    69  LEU69      -0.1231
      2  CA        50.5530   15.4360   26.9740 C.3    69  LEU69       0.1693
      3  C         51.4870   14.2340   26.6990 C.2    69  LEU69       0.2592
      4  O         51.0370   13.1640   26.2970 O.2    69  LEU69      -0.2718
      5  CB        50.5730   15.7520   28.4680 C.3    69  LEU69       0.0284
      6  CG        50.5020   14.5360   29.4210 C.3    69  LEU69       0.0019
      7  CD1       51.3600   14.7480   30.6610 C.3    69  LEU69       0.0001
      8  CD2       49.0720   14.1930   29.8020 C.3    69  LEU69       0.0001
      9  N         52.7730   14.4610   26.9680 N.am   70  ASN70      -0.1974
     10  CA        53.8420   13.4580   27.0310 C.3    70  ASN70       0.1688
     11  C         54.4470   13.1040   25.6730 C.2    70  ASN70       0.2292
     12  O         53.9310   13.5000   24.6150 O.2    70  ASN70      -0.2864
     13  CB        53.3900   12.1900   27.7600 C.3    70  ASN70       0.1181
     14  CG        54.4100   11.6900   28.7760 C.2    70  ASN70       0.2629
     15  OD1       55.5800   12.0800   28.7810 O.2    70  ASN70      -0.2716
     16  ND2       53.9510   10.8170   29.6530 N.am   70  ASN70      -0.0877
     17  N         57.0680   17.9180   28.9550 N.3   106  ASP106     -0.1239
     18  CA        58.1810   18.1360   29.8730 C.3   106  ASP106      0.1674
     19  C         59.5030   18.4360   29.1340 C.2   106  ASP106      0.2266
     20  O         60.3930   17.5790   29.0670 O.2   106  ASP106     -0.2867
     21  CB        58.3460   16.8990   30.7610 C.3   106  ASP106      0.1410
     22  CG        57.1770   16.7220   31.7220 C.2   106  ASP106      0.3668
     23  OD1       57.0750   17.5170   32.6800 O.co2 106  ASP106     -0.2456
     24  OD2       56.3540   15.8120   31.5090 O.co2 106  ASP106     -0.2456
     25  N         56.1000   22.0670   30.5840 N.3   155  PHE155     -0.1241
     26  CA        55.9080   21.8540   32.0210 C.3   155  PHE155      0.1605
     27  C         57.2160   22.2230   32.7410 C.2   155  PHE155      0.2264
     28  O         57.9600   21.3610   33.2210 O.2   155  PHE155     -0.2867
     29  CB        55.4850   20.4160   32.3210 C.3   155  PHE155      0.0534
     30  CG        54.1560   20.0060   31.7290 C.ar  155  PHE155     -0.0203
     31  CD1       53.0600   20.8710   31.7080 C.ar  155  PHE155     -0.0042
     32  CD2       53.9790   18.7040   31.2320 C.ar  155  PHE155     -0.0042
     33  CE1       51.8360   20.4630   31.1740 C.ar  155  PHE155     -0.0003
     34  CE2       52.7590   18.2940   30.6990 C.ar  155  PHE155     -0.0003
     35  CZ        51.6880   19.1710   30.6650 C.ar  155  PHE155     -0.0000
     36  N         64.3980   14.5730   43.4890 N.3   169  ARG169     -0.1245
     37  CA        64.1590   15.7140   42.5990 C.3   169  ARG169      0.1563
     38  C         64.8890   17.0000   43.0350 C.2   169  ARG169      0.2260
     39  O         64.5480   18.1020   42.5830 O.2   169  ARG169     -0.2867
     40  CB        62.6540   15.9360   42.4760 C.3   169  ARG169      0.0307
     41  CG        61.8540   14.6350   42.3530 C.3   169  ARG169      0.0489
     42  CD        60.4290   14.8320   41.8480 C.3   169  ARG169      0.2205
     43  NE        60.3880   15.4270   40.5130 N.pl3 169  ARG169     -0.0865
     44  CZ        59.2740   15.6070   39.7990 C.cat 169  ARG169      0.5346
     45  NH1       59.3390   16.1650   38.5980 N.pl3 169  ARG169      0.1354
     46  NH2       58.0880   15.2130   40.2660 N.pl3 169  ARG169      0.1354
     47  N         56.1980   24.6250   38.6530 N.3   210  LYS210     -0.1231
     48  CA        56.0770   23.3410   39.3590 C.3   210  LYS210      0.1693
     49  C         56.9350   23.3230   40.6370 C.2   210  LYS210      0.2592
     50  O         57.9980   23.9420   40.6480 O.2   210  LYS210     -0.2718
     51  CB        56.5720   22.1980   38.4610 C.3   210  LYS210      0.0285
     52  CG        56.0470   22.2200   37.0480 C.3   210  LYS210      0.0035
     53  CD        56.1450   20.8490   36.3800 C.3   210  LYS210      0.0206
     54  CE        57.5840   20.4190   36.2280 C.3   210  LYS210      0.1093
     55  NZ        57.7020   19.2790   35.2980 N.3   210  LYS210     -0.1314
     56  N         56.5270   22.6490   41.7200 N.am  211  HIS211     -0.1976
     57  CA        55.2470   21.9620   41.9110 C.3   211  HIS211      0.1656
     58  C         54.6160   22.6210   43.1470 C.2   211  HIS211      0.2291
     59  O         55.0700   22.3850   44.2660 O.2   211  HIS211     -0.2864
     60  CB        55.4530   20.4610   42.1590 C.3   211  HIS211      0.0771
     61  CG        56.2220   19.7630   41.0910 C.ar  211  HIS211      0.0820
     62  ND1       57.5890   19.8820   40.9560 N.ar  211  HIS211     -0.2267
     63  CD2       55.8160   18.9240   40.1040 C.ar  211  HIS211      0.1154
     64  CE1       57.9880   19.1710   39.9130 C.ar  211  HIS211      0.1986
     65  NE2       56.9310   18.5800   39.3800 N.ar  211  HIS211     -0.2212
     66  N         57.0100   12.2310   47.2940 N.3   224  ARG224     -0.1245
     67  CA        55.5470   12.1220   47.4740 C.3   224  ARG224      0.1563
     68  C         55.1490   11.4750   48.8080 C.2   224  ARG224      0.2260
     69  O         54.1830   10.7060   48.8880 O.2   224  ARG224     -0.2867
     70  CB        54.8990   11.3900   46.2650 C.3   224  ARG224      0.0307
     71  CG        55.0170   12.1580   44.9580 C.3   224  ARG224      0.0489
     72  CD        54.5450   11.2780   43.8090 C.3   224  ARG224      0.2205
     73  NE        54.1140   12.0120   42.6190 N.pl3 224  ARG224     -0.0865
     74  CZ        54.8740   12.3510   41.5630 C.cat 224  ARG224      0.5346
     75  NH1       56.1750   12.0850   41.5050 N.pl3 224  ARG224      0.1354
     76  NH2       54.3090   12.9870   40.5420 N.pl3 224  ARG224      0.1354
     77  N         51.4430   23.9340   38.0060 N.3   254  MET254     -0.1245
     78  CA        51.1600   22.5260   38.3150 C.3   254  MET254      0.1570
     79  C         51.2730   22.3040   39.8170 C.2   254  MET254      0.2261
     80  O         52.2000   22.8070   40.4550 O.2   254  MET254     -0.2867
     81  CB        52.1190   21.5950   37.5750 C.3   254  MET254      0.0387
     82  CG        51.7040   20.1470   37.6190 C.3   254  MET254      0.0595
     83  SD        52.8790   19.0510   36.8150 S.3   254  MET254     -0.1393
     84  CE        52.6390   19.5220   35.1010 C.3   254  MET254      0.0692
     85  N         49.2120   17.4670   38.6850 N.3   289  ASP289     -0.1225
     86  CA        50.2690   16.5440   38.3290 C.3   289  ASP289      0.1805
     87  C         49.6240   15.1660   38.0340 C.2   289  ASP289      0.2597
     88  O         48.3930   14.9950   38.0680 O.2   289  ASP289     -0.2718
     89  CB        51.3210   16.5150   39.4550 C.3   289  ASP289      0.1424
     90  CG        52.6930   16.0750   38.9880 C.2   289  ASP289      0.3668
     91  OD1       52.7470   15.4480   37.9250 O.co2 289  ASP289     -0.2456
     92  OD2       53.7110   16.3430   39.6730 O.co2 289  ASP289     -0.2456
     93  N         50.4710   14.1960   37.7210 N.am  290  TRP290     -0.1976
     94  CA        50.0820   12.9520   37.0710 C.3   290  TRP290      0.1640
     95  C         49.2280   12.0520   37.9840 C.2   290  TRP290      0.2290
     96  O         49.6910   11.6090   39.0280 O.2   290  TRP290     -0.2864
     97  CB        51.3840   12.2610   36.6350 C.3   290  TRP290      0.0576
     98  CG        51.2990   10.9460   35.9600 C.ar  290  TRP290      0.0006
     99  CD1       51.1960    9.7170   36.5640 C.ar  290  TRP290      0.0946
    100  CD2       51.3920   10.6950   34.5510 C.ar  290  TRP290      0.0152
    101  NE1       51.1930    8.7260   35.6110 N.ar  290  TRP290     -0.2442
    102  CE2       51.3040    9.2960   34.3690 C.ar  290  TRP290      0.0810
    103  CE3       51.5090   11.5200   33.4170 C.ar  290  TRP290      0.0012
    104  CZ2       51.3360    8.7040   33.1030 C.ar  290  TRP290      0.0191
    105  CZ3       51.5380   10.9340   32.1620 C.ar  290  TRP290      0.0001
    106  CH2       51.4640    9.5330   32.0160 C.ar  290  TRP290      0.0015
    107  N         45.1730   16.1170   34.8050 N.3   322  MET322     -0.1245
    108  CA        46.0860   15.1880   34.1450 C.3   322  MET322      0.1570
    109  C         45.6930   13.7870   34.6240 C.2   322  MET322      0.2261
    110  O         46.2530   13.2530   35.5750 O.2   322  MET322     -0.2867
    111  CB        47.5210   15.5460   34.4860 C.3   322  MET322      0.0387
    112  CG        48.5730   14.7910   33.6980 C.3   322  MET322      0.0595
    113  SD        50.2650   15.2170   34.2060 S.3   322  MET322     -0.1393
    114  CE        50.4500   16.9350   33.7540 C.3   322  MET322      0.0692
    115  N         64.9060   13.3690   32.8880 N.3   429  TRP429     -0.1241
    116  CA        64.3040   14.3070   31.9340 C.3   429  TRP429      0.1605
    117  C         65.2790   14.5760   30.7780 C.2   429  TRP429      0.2264
    118  O         65.5510   15.7390   30.4200 O.2   429  TRP429     -0.2867
    119  CB        63.8800   15.6200   32.6230 C.3   429  TRP429      0.0550
    120  CG        62.8440   15.4600   33.6950 C.ar  429  TRP429      0.0003
    121  CD1       62.9910   15.7160   35.0370 C.ar  429  TRP429      0.0946
    122  CD2       61.4960   15.0180   33.5180 C.ar  429  TRP429      0.0152
    123  NE1       61.8120   15.4600   35.7010 N.ar  429  TRP429     -0.2442
    124  CE2       60.8750   15.0370   34.7950 C.ar  429  TRP429      0.0810
    125  CE3       60.7430   14.6190   32.4050 C.ar  429  TRP429      0.0012
    126  CZ2       59.5460   14.6350   34.9940 C.ar  429  TRP429      0.0191
    127  CZ3       59.4100   14.2180   32.6030 C.ar  429  TRP429      0.0001
    128  CH2       58.8270   14.2390   33.8940 C.ar  429  TRP429      0.0015
    129  N         62.4570    9.5190   30.3420 N.3   433  TRP433     -0.1241
    130  CA        62.0940   10.0730   31.6710 C.3   433  TRP433      0.1605
    131  C         63.2090    9.8210   32.6880 C.2   433  TRP433      0.2264
    132  O         63.6850   10.7490   33.3460 O.2   433  TRP433     -0.2867
    133  CB        60.7610    9.4710   32.1000 C.3   433  TRP433      0.0550
    134  CG        60.2630    9.7610   33.4830 C.ar  433  TRP433      0.0003
    135  CD1       60.1940   10.9620   34.1100 C.ar  433  TRP433      0.0946
    136  CD2       59.7070    8.7930   34.3890 C.ar  433  TRP433      0.0152
    137  NE1       59.6490   10.8110   35.3640 N.ar  433  TRP433     -0.2442
    138  CE2       59.3400    9.4880   35.5630 C.ar  433  TRP433      0.0810
    139  CE3       59.4830    7.3940   34.3150 C.ar  433  TRP433      0.0012
    140  CZ2       58.7530    8.8450   36.6640 C.ar  433  TRP433      0.0191
    141  CZ3       58.9060    6.7430   35.4170 C.ar  433  TRP433      0.0001
    142  CH2       58.5410    7.4800   36.5770 C.ar  433  TRP433      0.0015
    143  N         62.2990   11.1730   39.7650 N.3   509  GLU509     -0.1245
    144  CA        61.1600   10.9740   40.6620 C.3   509  GLU509      0.1567
    145  C         61.2780    9.7280   41.5580 C.2   509  GLU509      0.2260
    146  O         62.3870    9.3680   41.9970 O.2   509  GLU509     -0.2867
    147  CB        59.8500   10.9670   39.8810 C.3   509  GLU509      0.0388
    148  CG        59.6550   12.1760   39.0050 C.3   509  GLU509      0.1160
    149  CD        58.2970   12.2030   38.3630 C.2   509  GLU509      0.3649
    150  OE1       57.2920   11.8990   39.0400 O.co2 509  GLU509     -0.2457
    151  OE2       58.2340   12.5120   37.1540 O.co2 509  GLU509     -0.2457
@<TRIPOS>BOND
     1    12    11    2
     2    11    10    1
     3     4     3    2
     4     1     2    1
     5     3     9   am
     6     3     2    1
     7     9    10    1
     8     2     5    1
     9    10    13    1
    10    13    14    1
    11     5     6    1
    12    14    15    2
    13    14    16   am
    14    17    18    1
    15    20    19    2
    16    19    18    1
    17     6     8    1
    18     6     7    1
    19    18    21    1
    20   129   130    1
    21   118   117    2
    22    25    26    1
    23    35    34   ar
    24    35    33   ar
    25    34    32   ar
    26    21    22    1
    27   117   116    1
    28    33    31   ar
    29    32    30   ar
    30    24    22   ar
    31   130   133    1
    32   130   131    1
    33    31    30   ar
    34    22    23   ar
    35    30    29    1
    36   116   119    1
    37   116   115    1
    38   106   105   ar
    39   106   104   ar
    40    26    29    1
    41    26    27    1
    42   133   134    1
    43   105   103   ar
    44   125   127   ar
    45   125   122   ar
    46   127   128   ar
    47   119   120    1
    48   131   132    2
    49    27    28    2
    50   104   102   ar
    51   103   100   ar
    52   134   135   ar
    53   134   136   ar
    54   122   120   ar
    55   122   124   ar
    56   120   121   ar
    57   112   113    1
    58   112   111    1
    59   114   113    1
    60   128   126   ar
    61   135   137   ar
    62   108   111    1
    63   108   109    1
    64   108   107    1
    65   139   136   ar
    66   139   141   ar
    67   102   100   ar
    68   102   101   ar
    69   136   138   ar
    70   100    98   ar
    71   109   110    2
    72   124   126   ar
    73   124   123   ar
    74   121   123   ar
    75    84    83    1
    76    55    54    1
    77   137   138   ar
    78   141   142   ar
    79   138   140   ar
    80   101    99   ar
    81    98    99   ar
    82    98    97    1
    83    54    53    1
    84    53    52    1
    85   142   140   ar
    86    97    94    1
    87    83    82    1
    88    52    51    1
    89    94    93    1
    90    94    95    1
    91   151   149   ar
    92    81    82    1
    93    81    78    1
    94    93    87   am
    95    91    90   ar
    96    95    96    2
    97    77    78    1
    98    87    88    2
    99    87    86    1
   100    78    79    1
   101    86    85    1
   102    86    89    1
   103   149   148    1
   104   149   150   ar
   105    51    48    1
   106    45    44    1
   107    47    48    1
   108    90    89    1
   109    90    92   ar
   110   148   147    1
   111    48    49    1
   112    65    64   ar
   113    65    63   ar
   114   143   144    1
   115    44    46    1
   116    44    43    2
   117    79    80    2
   118   147   144    1
   119    64    62   ar
   120    63    61   ar
   121    43    42    1
   122    76    74    1
   123    49    50    2
   124    49    56   am
   125   144   145    1
   126    62    61   ar
   127    61    60    1
   128    75    74    1
   129   145   146    2
   130    74    73    2
   131    56    57    1
   132    42    41    1
   133    57    60    1
   134    57    58    1
   135    41    40    1
   136    40    37    1
   137    39    38    2
   138    37    38    1
   139    37    36    1
   140    73    72    1
   141    58    59    2
   142    72    71    1
   143    71    70    1
   144    70    67    1
   145    66    67    1
   146    67    68    1
   147    68    69    2
