@<TRIPOS>MOLECULE
tmp/5jp4A00.pdb
 110 106 0 0 0
SMALL
GASTEIGER

@<TRIPOS>ATOM
      1  N          6.9320   18.8290  121.8790 N.3    35  TYR35      -0.1241
      2  CA         6.4810   19.3200  123.1700 C.3    35  TYR35       0.1605
      3  C          7.6530   19.9560  123.9010 C.2    35  TYR35       0.2264
      4  O          8.8190   19.6090  123.6720 O.2    35  TYR35      -0.2867
      5  CB         5.9110   18.1870  124.0390 C.3    35  TYR35       0.0534
      6  CG         4.8070   17.3970  123.3870 C.ar   35  TYR35      -0.0201
      7  CD1        5.0850   16.4950  122.3610 C.ar   35  TYR35      -0.0009
      8  CD2        3.4850   17.5360  123.8040 C.ar   35  TYR35      -0.0009
      9  CE1        4.0790   15.7670  121.7590 C.ar   35  TYR35       0.0417
     10  CE2        2.4770   16.8220  123.2100 C.ar   35  TYR35       0.0417
     11  CZ         2.7790   15.9260  122.1880 C.ar   35  TYR35       0.1957
     12  OH         1.7740   15.1900  121.5920 O.3    35  TYR35      -0.2866
     13  N          8.9270   21.2230  127.9490 N.3    37  PHE37      -0.1241
     14  CA         8.6610   21.0960  129.3800 C.3    37  PHE37       0.1605
     15  C          8.8450   22.4480  130.0490 C.2    37  PHE37       0.2264
     16  O          9.9470   23.0050  130.0450 O.2    37  PHE37      -0.2867
     17  CB         9.5610   20.0450  130.0270 C.3    37  PHE37       0.0534
     18  CG         9.2480   19.7870  131.4770 C.ar   37  PHE37      -0.0203
     19  CD1        8.0940   19.1070  131.8370 C.ar   37  PHE37      -0.0042
     20  CD2       10.1140   20.1970  132.4700 C.ar   37  PHE37      -0.0042
     21  CE1        7.7970   18.8700  133.1680 C.ar   37  PHE37      -0.0003
     22  CE2        9.8310   19.9570  133.8030 C.ar   37  PHE37      -0.0003
     23  CZ         8.6640   19.2900  134.1510 C.ar   37  PHE37      -0.0000
     24  N          6.3070   22.8690  135.9480 N.3    42  GLN42      -0.1231
     25  CA         6.3050   21.4040  136.0020 C.3    42  GLN42       0.1698
     26  C          5.2440   20.8000  135.0930 C.2    42  GLN42       0.2592
     27  O          4.6500   19.7690  135.4160 O.2    42  GLN42      -0.2718
     28  CB         6.1150   20.8920  137.4310 C.3    42  GLN42       0.0381
     29  CG         7.2960   21.1380  138.3180 C.3    42  GLN42       0.0905
     30  CD         8.5600   20.5580  137.7390 C.2    42  GLN42       0.2608
     31  OE1        9.4830   21.2920  137.4050 O.2    42  GLN42      -0.2717
     32  NE2        8.6050   19.2370  137.6040 N.am   42  GLN42      -0.0878
     33  N          4.9860   21.4360  133.9560 N.am   43  LYS43      -0.1966
     34  CA         3.9820   20.9530  133.0260 C.3    43  LYS43       0.1728
     35  C          4.5860   20.8950  131.6350 C.2    43  LYS43       0.2616
     36  O          5.3830   21.7620  131.2550 O.2    43  LYS43      -0.2715
     37  CB         2.7300   21.8440  133.0250 C.3    43  LYS43       0.0311
     38  CG         1.8540   21.7400  134.2690 C.3    43  LYS43       0.0038
     39  CD         1.3020   20.3260  134.4240 C.3    43  LYS43       0.0206
     40  CE        -0.0540   20.2970  135.1350 C.3    43  LYS43       0.1093
     41  NZ        -0.0010   20.8340  136.5310 N.3    43  LYS43      -0.1314
     42  N          4.2280   19.8520  130.8940 N.am   44  TRP44      -0.1974
     43  CA         4.5120   19.8160  129.4700 C.3    44  TRP44       0.1640
     44  C          3.5360   20.7210  128.7380 C.2    44  TRP44       0.2290
     45  O          2.3730   20.8480  129.1300 O.2    44  TRP44      -0.2864
     46  CB         4.4010   18.3920  128.9270 C.3    44  TRP44       0.0576
     47  CG         5.5590   17.5060  129.2690 C.ar   44  TRP44       0.0006
     48  CD1        5.6190   16.5830  130.2730 C.ar   44  TRP44       0.0946
     49  CD2        6.8180   17.4470  128.5930 C.ar   44  TRP44       0.0152
     50  NE1        6.8470   15.9620  130.2730 N.ar   44  TRP44      -0.2442
     51  CE2        7.5980   16.4680  129.2470 C.ar   44  TRP44       0.0810
     52  CE3        7.3670   18.1350  127.4960 C.ar   44  TRP44       0.0012
     53  CZ2        8.9000   16.1530  128.8440 C.ar   44  TRP44       0.0191
     54  CZ3        8.6480   17.8270  127.0980 C.ar   44  TRP44       0.0001
     55  CH2        9.4060   16.8330  127.7690 C.ar   44  TRP44       0.0015
     56  N         11.5340    7.4680  126.4350 N.3    89  VAL89      -0.1231
     57  CA        10.7240    7.2930  127.6360 C.3    89  VAL89       0.1692
     58  C          9.2780    7.1300  127.1930 C.2    89  VAL89       0.2592
     59  O          8.6900    8.0630  126.6340 O.2    89  VAL89      -0.2718
     60  CB        10.8740    8.4810  128.6020 C.3    89  VAL89       0.0266
     61  CG1       10.2310    8.1650  129.9280 C.3    89  VAL89       0.0020
     62  CG2       12.3420    8.8350  128.7970 C.3    89  VAL89       0.0020
     63  N          8.7120    5.9480  127.4200 N.am   90  ASP90      -0.1974
     64  CA         7.3110    5.6690  127.0810 C.3    90  ASP90       0.1709
     65  C          7.1820    5.7610  125.5680 C.2    90  ASP90       0.2293
     66  O          7.9370    5.0670  124.8660 O.2    90  ASP90      -0.2864
     67  CB         6.3920    6.6060  127.8680 C.3    90  ASP90       0.1436
     68  CG         4.9640    6.1090  127.9320 C.2    90  ASP90       0.3671
     69  OD1        4.6490    5.0970  127.2660 O.co2  90  ASP90      -0.2456
     70  OD2        4.1460    6.7620  128.6120 O.co2  90  ASP90      -0.2456
     71  N          7.8030    8.5250  123.8090 N.3    92  TYR92      -0.1241
     72  CA         8.3730    9.8240  123.4760 C.3    92  TYR92       0.1605
     73  C          9.8950    9.7570  123.4610 C.2    92  TYR92       0.2264
     74  O         10.5080    9.0080  124.2260 O.2    92  TYR92      -0.2867
     75  CB         7.8950   10.8880  124.4910 C.3    92  TYR92       0.0534
     76  CG         6.3900   10.9430  124.5810 C.ar   92  TYR92      -0.0201
     77  CD1        5.6540   11.6630  123.6520 C.ar   92  TYR92      -0.0009
     78  CD2        5.7030   10.2150  125.5550 C.ar   92  TYR92      -0.0009
     79  CE1        4.2920   11.6940  123.7010 C.ar   92  TYR92       0.0417
     80  CE2        4.3190   10.2420  125.6170 C.ar   92  TYR92       0.0417
     81  CZ         3.6280   10.9880  124.6840 C.ar   92  TYR92       0.1957
     82  OH         2.2630   11.0210  124.7220 O.3    92  TYR92      -0.2866
     83  N         12.7640   12.0560  124.5990 N.3    94  ILE94      -0.1245
     84  CA        13.0000   13.1970  125.4740 C.3    94  ILE94       0.1561
     85  C         14.4280   13.6710  125.2510 C.2    94  ILE94       0.2260
     86  O         15.3840   12.8870  125.3540 O.2    94  ILE94      -0.2867
     87  CB        12.7490   12.8410  126.9510 C.3    94  ILE94       0.0252
     88  CG1       11.2920   13.1060  127.3320 C.3    94  ILE94       0.0019
     89  CG2       13.5990   13.7040  127.8740 C.3    94  ILE94       0.0019
     90  CD1       10.3110   12.2350  126.6790 C.3    94  ILE94       0.0001
     91  N         18.4080   22.0130  132.3910 N.3   100  GLN100     -0.1245
     92  CA        16.9650   21.8670  132.6150 C.3   100  GLN100      0.1566
     93  C         16.1340   22.3770  131.4380 C.2   100  GLN100      0.2260
     94  O         15.0570   22.9540  131.6230 O.2   100  GLN100     -0.2867
     95  CB        16.5410   22.5970  133.8860 C.3   100  GLN100      0.0367
     96  CG        17.3980   22.3260  135.0850 C.3   100  GLN100      0.0905
     97  CD        16.5990   22.3490  136.3670 C.2   100  GLN100      0.2608
     98  OE1       15.6980   23.1780  136.5350 O.2   100  GLN100     -0.2717
     99  NE2       16.9320   21.4500  137.2900 N.am  100  GLN100     -0.0878
    100  N         14.2360   20.9890  128.2990 N.3   102  VAL102     -0.1245
    101  CA        13.7590   19.6730  127.8780 C.3   102  VAL102      0.1561
    102  C         12.6860   19.8570  126.8160 C.2   102  VAL102      0.2260
    103  O         11.7310   20.6190  127.0220 O.2   102  VAL102     -0.2867
    104  CB        13.1900   18.8590  129.0610 C.3   102  VAL102      0.0252
    105  CG1       12.8540   17.4160  128.6150 C.3   102  VAL102      0.0019
    106  CG2       14.1460   18.8460  130.2160 C.3   102  VAL102      0.0019
    107  N         10.3050   17.2800  124.0200 N.3   104  GLY104     -0.1225
    108  CA         9.8550   15.9120  123.7970 C.3   104  GLY104      0.1811
    109  C          9.2820   15.7880  122.4080 C.2   104  GLY104      0.2280
    110  O          8.6540   16.7180  121.8920 O.2   104  GLY104     -0.2866
@<TRIPOS>BOND
     1    12    11    1
     2     9    11   ar
     3     9     7   ar
     4     1     2    1
     5   110   109    2
     6    11    10   ar
     7     7     6   ar
     8   109   108    1
     9     2     3    1
    10     2     5    1
    11    10     8   ar
    12     6     8   ar
    13     6     5    1
    14    73    72    1
    15    73    74    2
    16    72    71    1
    17    72    75    1
    18    77    79   ar
    19    77    76   ar
    20     4     3    2
    21    79    81   ar
    22   108   107    1
    23    75    76    1
    24    76    78   ar
    25    83    84    1
    26    81    82    1
    27    81    80   ar
    28    66    65    2
    29    85    86    2
    30    85    84    1
    31    84    87    1
    32    78    80   ar
    33    65    64    1
    34    56    57    1
    35    59    58    2
    36    90    88    1
    37   102   103    2
    38   102   101    1
    39    87    88    1
    40    87    89    1
    41    64    63    1
    42    64    67    1
    43    54    52   ar
    44    54    55   ar
    45    58    63   am
    46    58    57    1
    47    69    68   ar
    48    52    49   ar
    49    57    60    1
    50    55    53   ar
    51    67    68    1
    52   101   100    1
    53   101   104    1
    54    68    70   ar
    55    13    14    1
    56    49    51   ar
    57    49    47   ar
    58    60    62    1
    59    60    61    1
    60   105   104    1
    61    44    45    2
    62    44    43    1
    63    53    51   ar
    64    46    47    1
    65    46    43    1
    66   104   106    1
    67    51    50   ar
    68    47    48   ar
    69    14    17    1
    70    14    15    1
    71    43    42    1
    72    17    18    1
    73    16    15    2
    74    48    50   ar
    75    42    35   am
    76    36    35    2
    77    93    94    2
    78    93    92    1
    79    18    19   ar
    80    18    20   ar
    81    35    34    1
    82    19    21   ar
    83    91    92    1
    84    20    22   ar
    85    92    95    1
    86    37    34    1
    87    37    38    1
    88    34    33    1
    89    21    23   ar
    90    22    23   ar
    91    95    96    1
    92    33    26   am
    93    38    39    1
    94    39    40    1
    95    96    97    1
    96    26    27    2
    97    26    25    1
    98    40    41    1
    99    24    25    1
   100    25    28    1
   101    97    98    2
   102    97    99   am
   103    31    30    2
   104    28    29    1
   105    32    30   am
   106    30    29    1
