@<TRIPOS>MOLECULE
tmp/5jp9B00.pdb
 170 162 0 0 0
SMALL
GASTEIGER

@<TRIPOS>ATOM
      1  N         54.6050    2.1390  109.1010 N.3    26  PRO26      -0.2102
      2  CA        54.6870    2.8300  110.3950 C.3    26  PRO26       0.1504
      3  C         53.4730    2.5020  111.2480 C.2    26  PRO26       0.2575
      4  O         52.3420    2.4740  110.7570 O.2    26  PRO26      -0.2718
      5  CB        54.7160    4.3130  110.0080 C.3    26  PRO26       0.0282
      6  CG        55.0440    4.3430  108.5470 C.3    26  PRO26       0.0208
      7  CD        54.5010    3.0790  107.9750 C.3    26  PRO26       0.0893
      8  N         53.7240    2.1890  112.5210 N.am   27  ARG27      -0.1980
      9  CA        52.6750    1.7710  113.4500 C.3    27  ARG27       0.1597
     10  C         51.7830    0.6910  112.8360 C.2    27  ARG27       0.2287
     11  O         50.5870    0.6130  113.1240 O.2    27  ARG27      -0.2864
     12  CB        51.8470    2.9750  113.9170 C.3    27  ARG27       0.0334
     13  CG        52.7070    4.0560  114.5810 C.3    27  ARG27       0.0492
     14  CD        51.8990    5.0750  115.3920 C.3    27  ARG27       0.2205
     15  NE        50.9960    5.8610  114.5540 N.pl3  27  ARG27      -0.0865
     16  CZ        49.6730    5.8960  114.7000 C.cat  27  ARG27       0.5346
     17  NH1       49.0820    5.2120  115.6750 N.pl3  27  ARG27       0.1354
     18  NH2       48.9400    6.6440  113.8910 N.pl3  27  ARG27       0.1354
     19  N         50.8560    0.3250  109.6360 N.3    29  GLN29      -0.1245
     20  CA        49.9680    0.7660  108.5590 C.3    29  GLN29       0.1566
     21  C         50.7260    0.7740  107.2330 C.2    29  GLN29       0.2260
     22  O         51.4820    1.7130  106.9480 O.2    29  GLN29      -0.2867
     23  CB        49.3860    2.1450  108.8660 C.3    29  GLN29       0.0367
     24  CG        47.9200    2.1190  109.2570 C.3    29  GLN29       0.0905
     25  CD        47.2610    3.4790  109.0970 C.2    29  GLN29       0.2608
     26  OE1       47.5920    4.4250  109.8130 O.2    29  GLN29      -0.2717
     27  NE2       46.3290    3.5840  108.1500 N.am   29  GLN29      -0.0878
     28  N         36.5530   22.0130  109.6340 N.3    64  GLU64      -0.1245
     29  CA        37.8630   21.8330  110.2430 C.3    64  GLU64       0.1567
     30  C         38.5830   23.1680  110.3980 C.2    64  GLU64       0.2260
     31  O         39.1930   23.4410  111.4390 O.2    64  GLU64      -0.2867
     32  CB        38.7050   20.8670  109.4080 C.3    64  GLU64       0.0388
     33  CG        40.0380   20.5050  110.0800 C.3    64  GLU64       0.1160
     34  CD        41.0180   19.8720  109.1120 C.2    64  GLU64       0.3649
     35  OE1       41.6300   20.6260  108.3240 O.co2  64  GLU64      -0.2457
     36  OE2       41.1950   18.6320  109.1420 O.co2  64  GLU64      -0.2457
     37  N         39.4870   24.9860  114.0370 N.3    68  TYR68      -0.1241
     38  CA        40.7710   25.5750  114.4250 C.3    68  TYR68       0.1605
     39  C         40.6020   27.0050  114.9360 C.2    68  TYR68       0.2264
     40  O         41.1470   27.3710  115.9860 O.2    68  TYR68      -0.2867
     41  CB        41.7560   25.5720  113.2470 C.3    68  TYR68       0.0534
     42  CG        42.1850   24.2130  112.7440 C.ar   68  TYR68      -0.0201
     43  CD1       41.9500   23.0570  113.4810 C.ar   68  TYR68      -0.0009
     44  CD2       42.8520   24.0940  111.5380 C.ar   68  TYR68      -0.0009
     45  CE1       42.3510   21.8110  113.0110 C.ar   68  TYR68       0.0417
     46  CE2       43.2560   22.8650  111.0590 C.ar   68  TYR68       0.0417
     47  CZ        43.0060   21.7260  111.7940 C.ar   68  TYR68       0.1957
     48  OH        43.4170   20.5100  111.2940 O.3    68  TYR68      -0.2866
     49  N         40.8980    8.6870  116.6820 N.3    88  TYR88      -0.1241
     50  CA        42.0810    9.3310  117.2320 C.3    88  TYR88       0.1605
     51  C         41.8340    9.9810  118.5900 C.2    88  TYR88       0.2264
     52  O         42.7050   10.7010  119.0860 O.2    88  TYR88      -0.2867
     53  CB        42.6110   10.3530  116.2290 C.3    88  TYR88       0.0534
     54  CG        42.7360    9.7220  114.8680 C.ar   88  TYR88      -0.0201
     55  CD1       43.7220    8.7710  114.6140 C.ar   88  TYR88      -0.0009
     56  CD2       41.8520   10.0410  113.8440 C.ar   88  TYR88      -0.0009
     57  CE1       43.8310    8.1600  113.3710 C.ar   88  TYR88       0.0417
     58  CE2       41.9570    9.4350  112.5890 C.ar   88  TYR88       0.0417
     59  CZ        42.9480    8.4960  112.3670 C.ar   88  TYR88       0.1957
     60  OH        43.0650    7.8960  111.1380 O.3    88  TYR88      -0.2866
     61  N         46.8950   15.6780  119.1060 N.3    97  GLY97      -0.1210
     62  CA        47.6770   16.1770  117.9870 C.3    97  GLY97       0.1956
     63  C         46.8500   16.5840  116.7840 C.2    97  GLY97       0.2612
     64  O         47.3290   17.3600  115.9470 O.2    97  GLY97      -0.2717
     65  N         45.6260   16.0670  116.6650 N.am   98  THR98      -0.1952
     66  CA        44.7430   16.4670  115.5790 C.3    98  THR98       0.1897
     67  C         44.1490   17.8490  115.8110 C.2    98  THR98       0.2313
     68  O         43.7980   18.5330  114.8410 O.2    98  THR98      -0.2863
     69  CB        43.6270   15.4190  115.4150 C.3    98  THR98       0.1794
     70  OG1       44.2090   14.1650  115.0540 O.3    98  THR98      -0.2208
     71  CG2       42.6220   15.8060  114.3350 C.3    98  THR98       0.0378
     72  N         44.4950   21.3010  116.1110 N.3   100  TYR100     -0.1241
     73  CA        45.4200   22.4190  115.9360 C.3   100  TYR100      0.1605
     74  C         44.9060   23.7050  116.5760 C.2   100  TYR100      0.2264
     75  O         45.6940   24.6340  116.7900 O.2   100  TYR100     -0.2867
     76  CB        45.6930   22.6810  114.4510 C.3   100  TYR100      0.0534
     77  CG        46.4040   21.5610  113.7200 C.ar  100  TYR100     -0.0201
     78  CD1       47.1060   20.5850  114.4100 C.ar  100  TYR100     -0.0009
     79  CD2       46.3590   21.4710  112.3280 C.ar  100  TYR100     -0.0009
     80  CE1       47.7530   19.5490  113.7440 C.ar  100  TYR100      0.0417
     81  CE2       47.0010   20.4390  111.6470 C.ar  100  TYR100      0.0417
     82  CZ        47.6960   19.4800  112.3640 C.ar  100  TYR100      0.1957
     83  OH        48.3320   18.4490  111.7120 O.3   100  TYR100     -0.2866
     84  N         47.5540    9.9500  118.8720 N.3   148  ASP148     -0.1225
     85  CA        47.2440   11.2100  118.1650 C.3   148  ASP148      0.1805
     86  C         48.3740   12.2120  118.4330 C.2   148  ASP148      0.2597
     87  O         48.2690   13.0880  119.2900 O.2   148  ASP148     -0.2718
     88  CB        45.8920   11.7740  118.6070 C.3   148  ASP148      0.1424
     89  CG        45.3960   12.8700  117.6990 C.2   148  ASP148      0.3668
     90  OD1       45.7250   12.8200  116.4940 O.co2 148  ASP148     -0.2456
     91  OD2       44.6780   13.7720  118.1800 O.co2 148  ASP148     -0.2456
     92  N         49.4670   12.0620  117.6820 N.am  149  VAL149     -0.1980
     93  CA        50.6460   12.9280  117.7650 C.3   149  VAL149      0.1595
     94  C         50.5940   13.9270  116.6110 C.2   149  VAL149      0.2287
     95  O         50.4350   13.5260  115.4520 O.2   149  VAL149     -0.2864
     96  CB        51.9410   12.0940  117.7000 C.3   149  VAL149      0.0276
     97  CG1       53.1780   13.0000  117.6390 C.3   149  VAL149      0.0022
     98  CG2       52.0180   11.1000  118.8740 C.3   149  VAL149      0.0022
     99  N         51.1370   15.9720  113.5000 N.3   151  CYS151     -0.1235
    100  CA        51.9880   15.7590  112.3340 C.3   151  CYS151      0.1677
    101  C         52.3960   17.0590  111.6500 C.2   151  CYS151      0.2270
    102  O         53.2870   17.0420  110.7890 O.2   151  CYS151     -0.2867
    103  CB        51.3080   14.7860  111.3530 C.3   151  CYS151      0.0956
    104  SG        49.8830   15.4340  110.4970 S.3   151  CYS151     -0.0801
    105  N         55.9120   16.9420  109.5110 N.3   171  ARG171     -0.1231
    106  CA        56.7570   15.7550  109.5870 C.3   171  ARG171      0.1694
    107  C         56.2010   14.6050  108.7640 C.2   171  ARG171      0.2592
    108  O         56.9650   13.7190  108.3640 O.2   171  ARG171     -0.2718
    109  CB        56.9250   15.3070  111.0470 C.3   171  ARG171      0.0321
    110  CG        55.6190   14.8640  111.6880 C.3   171  ARG171      0.0489
    111  CD        55.8140   14.1920  113.0400 C.3   171  ARG171      0.2205
    112  NE        54.5250   13.7950  113.6150 N.pl3 171  ARG171     -0.0865
    113  CZ        53.8510   12.6960  113.2800 C.cat 171  ARG171      0.5346
    114  NH1       54.3390   11.8540  112.3770 N.pl3 171  ARG171      0.1354
    115  NH2       52.6850   12.4290  113.8530 N.pl3 171  ARG171      0.1354
    116  N         54.8970   14.6040  108.5030 N.am  172  ALA172     -0.1966
    117  CA        54.2480   13.5360  107.7580 C.3   172  ALA172      0.1728
    118  C         52.9190   14.0610  107.2550 C.2   172  ALA172      0.2616
    119  O         52.3100   14.9320  107.8850 O.2   172  ALA172     -0.2715
    120  CB        54.0220   12.2800  108.6090 C.3   172  ALA172      0.0334
    121  N         52.4770   13.5310  106.1120 N.am  173  ASN173     -0.1958
    122  CA        51.2160   13.9760  105.5300 C.3   173  ASN173      0.1819
    123  C         50.6450   12.8280  104.7200 C.2   173  ASN173      0.2621
    124  O         51.3320   12.2580  103.8680 O.2   173  ASN173     -0.2715
    125  CB        51.4210   15.2200  104.6580 C.3   173  ASN173      0.1195
    126  CG        50.1370   16.0490  104.4360 C.2   173  ASN173      0.2630
    127  OD1       50.1290   16.8960  103.5680 O.2   173  ASN173     -0.2716
    128  ND2       49.0840   15.8350  105.2410 N.am  173  ASN173     -0.0877
    129  N         49.4040   12.4780  105.0160 N.am  174  ASP174     -0.1971
    130  CA        48.6560   11.5270  104.2110 C.3   174  ASP174      0.1709
    131  C         48.2810   12.2120  102.9010 C.2   174  ASP174      0.2293
    132  O         47.4710   13.1450  102.8870 O.2   174  ASP174     -0.2864
    133  CB        47.4320   11.0670  105.0030 C.3   174  ASP174      0.1436
    134  CG        46.3340   10.4520  104.1380 C.2   174  ASP174      0.3671
    135  OD1       46.5970    9.9300  103.0380 O.co2 174  ASP174     -0.2456
    136  OD2       45.1760   10.5080  104.5850 O.co2 174  ASP174     -0.2456
    137  N         44.5620   13.4840  104.2380 N.3   178  GLY178     -0.1225
    138  CA        44.9780   14.6040  105.0670 C.3   178  GLY178      0.1811
    139  C         45.4140   15.8140  104.2650 C.2   178  GLY178      0.2280
    140  O         45.0800   16.9510  104.6100 O.2   178  GLY178     -0.2866
    141  N         44.3350   19.5470  105.1040 N.3   182  ASP182     -0.1239
    142  CA        45.4300   20.3420  105.6590 C.3   182  ASP182      0.1674
    143  C         45.7450   21.5420  104.7750 C.2   182  ASP182      0.2266
    144  O         45.8510   22.6710  105.2590 O.2   182  ASP182     -0.2867
    145  CB        46.6770   19.4720  105.8440 C.3   182  ASP182      0.1410
    146  CG        46.4940   18.4130  106.9170 C.2   182  ASP182      0.3668
    147  OD1       45.7530   18.6470  107.8980 O.co2 182  ASP182     -0.2456
    148  OD2       47.0920   17.3290  106.7590 O.co2 182  ASP182     -0.2456
    149  N         52.7350   10.0930  101.9890 N.3   212  HIS212     -0.1241
    150  CA        52.4430    8.6700  101.8520 C.3   212  HIS212      0.1621
    151  C         50.9920    8.4440  101.4540 C.2   212  HIS212      0.2264
    152  O         50.1260    9.3040  101.6430 O.2   212  HIS212     -0.2867
    153  CB        52.7340    7.9080  103.1560 C.3   212  HIS212      0.0745
    154  CG        52.1060    8.5300  104.3670 C.ar  212  HIS212      0.0817
    155  ND1       52.7850    9.3990  105.1950 N.ar  212  HIS212     -0.2268
    156  CD2       50.8550    8.4220  104.8800 C.ar  212  HIS212      0.1154
    157  CE1       51.9810    9.7980  106.1660 C.ar  212  HIS212      0.1986
    158  NE2       50.8020    9.2250  105.9950 N.ar  212  HIS212     -0.2212
    159  N         48.2750    5.3330  102.2110 N.3   214  TYR214     -0.1241
    160  CA        47.9860    4.0670  102.8750 C.3   214  TYR214      0.1605
    161  C         47.4420    3.0640  101.8660 C.2   214  TYR214      0.2264
    162  O         46.6300    3.4120  101.0010 O.2   214  TYR214     -0.2867
    163  CB        46.9790    4.2700  104.0160 C.3   214  TYR214      0.0534
    164  CG        47.4190    5.3260  105.0010 C.ar  214  TYR214     -0.0201
    165  CD1       48.6000    5.1760  105.7210 C.ar  214  TYR214     -0.0009
    166  CD2       46.6680    6.4760  105.2090 C.ar  214  TYR214     -0.0009
    167  CE1       49.0260    6.1410  106.6160 C.ar  214  TYR214      0.0417
    168  CE2       47.0930    7.4590  106.1120 C.ar  214  TYR214      0.0417
    169  CZ        48.2720    7.2830  106.8050 C.ar  214  TYR214      0.1957
    170  OH        48.7090    8.2350  107.7020 O.3   214  TYR214     -0.2866
@<TRIPOS>BOND
     1   162   161    2
     2   151   152    2
     3   151   150    1
     4   150   149    1
     5   150   153    1
     6   161   160    1
     7   159   160    1
     8   160   163    1
     9   132   131    2
    10   131   130    1
    11   135   134   ar
    12   153   154    1
    13   127   126    2
    14   124   123    2
    15   163   164    1
    16   134   136   ar
    17   134   133    1
    18   130   133    1
    19   130   129    1
    20   137   138    1
    21   139   140    2
    22   139   138    1
    23   154   156   ar
    24   154   155   ar
    25   126   125    1
    26   126   128   am
    27   125   122    1
    28   123   129   am
    29   123   122    1
    30   143   144    2
    31   143   142    1
    32   156   158   ar
    33   164   166   ar
    34   164   165   ar
    35   141   142    1
    36   155   157   ar
    37   166   168   ar
    38   122   121    1
    39   142   145    1
    40   165   167   ar
    41   145   146    1
    42   158   157   ar
    43   168   169   ar
    44   121   118   am
    45   167   169   ar
    46   148   146   ar
    47   169   170    1
    48   146   147   ar
    49    22    21    2
    50    21    20    1
    51   118   117    1
    52   118   119    2
    53   117   116    1
    54   117   120    1
    55     7     6    1
    56     7     1    1
    57    27    25   am
    58    35    34   ar
    59   108   107    2
    60   116   107   am
    61     6     5    1
    62    20    23    1
    63    20    19    1
    64   107   106    1
    65    23    24    1
    66    25    24    1
    67    25    26    2
    68     1     2    1
    69    34    36   ar
    70    34    33    1
    71    32    33    1
    72    32    29    1
    73   105   106    1
    74   106   109    1
    75    28    29    1
    76     5     2    1
    77    29    30    1
    78     2     3    1
    79    30    31    2
    80   104   103    1
    81     4     3    2
    82   102   101    2
    83   109   110    1
    84    46    44   ar
    85    46    47   ar
    86    60    59    1
    87     3     8   am
    88    48    47    1
    89   103   100    1
    90    44    42   ar
    91    81    79   ar
    92    81    82   ar
    93   101   100    1
    94   110   111    1
    95    83    82    1
    96    47    45   ar
    97    79    77   ar
    98   100    99    1
    99    82    80   ar
   100    59    58   ar
   101    59    57   ar
   102   114   113    1
   103     8     9    1
   104    58    56   ar
   105    42    41    1
   106    42    43   ar
   107    10    11    2
   108    10     9    1
   109    45    43   ar
   110   111   112    1
   111    41    38    1
   112   113   112    2
   113   113   115    1
   114    57    55   ar
   115     9    12    1
   116    77    78   ar
   117    77    76    1
   118    80    78   ar
   119    56    54   ar
   120    18    16    1
   121    12    13    1
   122    37    38    1
   123    71    69    1
   124    38    39    1
   125    76    73    1
   126    15    16    2
   127    15    14    1
   128    13    14    1
   129    55    54   ar
   130    16    17    1
   131    68    67    2
   132    54    53    1
   133    39    40    2
   134    70    69    1
   135    69    66    1
   136    95    94    2
   137    66    67    1
   138    66    65    1
   139    73    72    1
   140    73    74    1
   141    64    63    2
   142    53    50    1
   143    90    89   ar
   144    74    75    2
   145    94    93    1
   146    65    63   am
   147    49    50    1
   148    63    62    1
   149    50    51    1
   150    97    96    1
   151    92    93    1
   152    92    86   am
   153    89    91   ar
   154    89    88    1
   155    96    93    1
   156    96    98    1
   157    62    61    1
   158    85    86    1
   159    85    88    1
   160    85    84    1
   161    86    87    2
   162    51    52    2
