@<TRIPOS>MOLECULE
tmp/5jpeA00.pdb
 140 136 0 0 0
SMALL
GASTEIGER

@<TRIPOS>ATOM
      1  N        121.4490   58.9880   16.5070 N.3    61  ASP61      -0.1239
      2  CA       121.2750   59.3290   17.9190 C.3    61  ASP61       0.1674
      3  C        121.7380   58.2310   18.8620 C.2    61  ASP61       0.2266
      4  O        121.5350   57.0480   18.6050 O.2    61  ASP61      -0.2867
      5  CB       119.8140   59.6430   18.2330 C.3    61  ASP61       0.1410
      6  CG       119.3240   60.9000   17.5590 C.2    61  ASP61       0.3668
      7  OD1      119.8410   61.2590   16.4820 O.co2  61  ASP61      -0.2456
      8  OD2      118.4320   61.5460   18.1360 O.co2  61  ASP61      -0.2456
      9  N        121.7930   59.3040   22.5120 N.3    63  HIS63      -0.1241
     10  CA       121.0080   59.8040   23.6440 C.3    63  HIS63       0.1621
     11  C        121.3130   59.1390   24.9840 C.2    63  HIS63       0.2264
     12  O        120.4220   58.5690   25.6100 O.2    63  HIS63      -0.2867
     13  CB       119.5110   59.6550   23.3530 C.3    63  HIS63       0.0745
     14  CG       118.9420   60.7530   22.5080 C.ar   63  HIS63       0.0817
     15  ND1      118.8830   62.0640   22.9310 N.ar   63  HIS63      -0.2268
     16  CD2      118.3930   60.7330   21.2700 C.ar   63  HIS63       0.1154
     17  CE1      118.3280   62.8050   21.9880 C.ar   63  HIS63       0.1986
     18  NE2      118.0220   62.0210   20.9700 N.ar   63  HIS63      -0.2212
     19  N        123.1800   64.4650   18.9460 N.3    89  ASP89      -0.1239
     20  CA       122.2490   64.0090   19.9800 C.3    89  ASP89       0.1674
     21  C        122.8670   62.9150   20.8440 C.2    89  ASP89       0.2266
     22  O        122.4360   61.7610   20.8220 O.2    89  ASP89      -0.2867
     23  CB       120.9350   63.5340   19.3590 C.3    89  ASP89       0.1410
     24  CG       120.0190   64.6850   19.0030 C.2    89  ASP89       0.3668
     25  OD1      120.4870   65.8430   19.0380 O.co2  89  ASP89      -0.2456
     26  OD2      118.8370   64.4380   18.6910 O.co2  89  ASP89      -0.2456
     27  N        117.6070   62.1260   27.8220 N.3    93  ARG93      -0.1245
     28  CA       116.7460   60.9390   27.7800 C.3    93  ARG93       0.1563
     29  C        117.3840   59.6940   28.4000 C.2    93  ARG93       0.2260
     30  O        116.8010   59.0820   29.2920 O.2    93  ARG93      -0.2867
     31  CB       116.3020   60.6430   26.3420 C.3    93  ARG93       0.0307
     32  CG       115.7010   61.8450   25.6260 C.3    93  ARG93       0.0489
     33  CD       114.3680   61.5010   24.9890 C.3    93  ARG93       0.2205
     34  NE       113.8500   62.5910   24.1670 N.pl3  93  ARG93      -0.0865
     35  CZ       112.7090   63.2310   24.4080 C.cat  93  ARG93       0.5346
     36  NH1      111.9660   62.8930   25.4530 N.pl3  93  ARG93       0.1354
     37  NH2      112.3100   64.2080   23.6070 N.pl3  93  ARG93       0.1354
     38  N        120.4140   68.6070   17.6150 N.3   121  ASN121     -0.1225
     39  CA       119.5440   69.6240   18.1900 C.3   121  ASN121      0.1785
     40  C        119.5550   69.6020   19.7170 C.2   121  ASN121      0.2597
     41  O        119.2380   70.6000   20.3630 O.2   121  ASN121     -0.2718
     42  CB       118.1140   69.4540   17.6720 C.3   121  ASN121      0.1169
     43  CG       117.4560   68.1850   18.1790 C.2   121  ASN121      0.2627
     44  OD1      118.0190   67.0950   18.0770 O.2   121  ASN121     -0.2716
     45  ND2      116.2590   68.3220   18.7330 N.am  121  ASN121     -0.0877
     46  N        119.9380   68.4660   20.2910 N.am  122  HIS122     -0.1975
     47  CA       119.9630   68.3220   21.7420 C.3   122  HIS122      0.1656
     48  C        121.2220   68.9200   22.3700 C.2   122  HIS122      0.2291
     49  O        121.2540   69.1780   23.5720 O.2   122  HIS122     -0.2864
     50  CB       119.8340   66.8480   22.1330 C.3   122  HIS122      0.0771
     51  CG       118.4200   66.3570   22.1780 C.ar  122  HIS122      0.0820
     52  ND1      117.7930   66.0000   23.3500 N.ar  122  HIS122     -0.2267
     53  CD2      117.5120   66.1650   21.1890 C.ar  122  HIS122      0.1154
     54  CE1      116.5560   65.6090   23.0840 C.ar  122  HIS122      0.1986
     55  NE2      116.3630   65.6990   21.7860 N.ar  122  HIS122     -0.2212
     56  N        117.6890   72.6530   25.2960 N.3   127  VAL127     -0.1245
     57  CA       117.1550   71.2970   25.2840 C.3   127  VAL127      0.1561
     58  C        117.6720   70.4600   26.4560 C.2   127  VAL127      0.2260
     59  O        116.9200   69.6820   27.0450 O.2   127  VAL127     -0.2867
     60  CB       117.4850   70.5850   23.9510 C.3   127  VAL127      0.0252
     61  CG1      116.9870   69.1500   23.9680 C.3   127  VAL127      0.0019
     62  CG2      116.8720   71.3460   22.7830 C.3   127  VAL127      0.0019
     63  N        115.4810   67.7810   29.1250 N.3   131  TYR131     -0.1241
     64  CA       115.4340   66.3260   29.0040 C.3   131  TYR131      0.1605
     65  C        116.5350   65.5560   29.7340 C.2   131  TYR131      0.2264
     66  O        116.8710   64.4390   29.3400 O.2   131  TYR131     -0.2867
     67  CB       115.4370   65.9370   27.5260 C.3   131  TYR131      0.0534
     68  CG       114.1440   66.2900   26.8310 C.ar  131  TYR131     -0.0201
     69  CD1      112.9670   65.6140   27.1290 C.ar  131  TYR131     -0.0009
     70  CD2      114.0950   67.3040   25.8830 C.ar  131  TYR131     -0.0009
     71  CE1      111.7780   65.9370   26.5020 C.ar  131  TYR131      0.0417
     72  CE2      112.9110   67.6320   25.2490 C.ar  131  TYR131      0.0417
     73  CZ       111.7570   66.9450   25.5620 C.ar  131  TYR131      0.1957
     74  OH       110.5780   67.2690   24.9320 O.3   131  TYR131     -0.2866
     75  N        116.8970   70.9300   13.0090 N.3   203  TRP203     -0.1241
     76  CA       115.5060   70.6760   13.3850 C.3   203  TRP203      0.1605
     77  C        114.5530   70.2950   12.2500 C.2   203  TRP203      0.2264
     78  O        113.4290   69.8690   12.5090 O.2   203  TRP203     -0.2867
     79  CB       114.9370   71.9060   14.0940 C.3   203  TRP203      0.0550
     80  CG       115.3750   72.0500   15.5140 C.ar  203  TRP203      0.0003
     81  CD1      116.4170   72.7980   15.9810 C.ar  203  TRP203      0.0946
     82  CD2      114.7750   71.4380   16.6600 C.ar  203  TRP203      0.0152
     83  NE1      116.5040   72.6870   17.3480 N.ar  203  TRP203     -0.2442
     84  CE2      115.5050   71.8550   17.7900 C.ar  203  TRP203      0.0810
     85  CE3      113.6910   70.5720   16.8420 C.ar  203  TRP203      0.0012
     86  CZ2      115.1910   71.4400   19.0810 C.ar  203  TRP203      0.0191
     87  CZ3      113.3770   70.1610   18.1250 C.ar  203  TRP203      0.0001
     88  CH2      114.1230   70.5960   19.2270 C.ar  203  TRP203      0.0015
     89  N        106.1410   69.8240   14.3800 N.3   218  ARG218     -0.1245
     90  CA       106.7860   69.3850   15.6130 C.3   218  ARG218      0.1563
     91  C        107.1230   70.5970   16.4760 C.2   218  ARG218      0.2260
     92  O        107.4410   70.4610   17.6570 O.2   218  ARG218     -0.2867
     93  CB       108.0530   68.5790   15.3200 C.3   218  ARG218      0.0307
     94  CG       107.8110   67.1690   14.8080 C.3   218  ARG218      0.0489
     95  CD       109.0020   66.2680   15.1090 C.3   218  ARG218      0.2205
     96  NE       109.0840   65.9200   16.5240 N.pl3 218  ARG218     -0.0865
     97  CZ       108.6790   64.7610   17.0350 C.cat 218  ARG218      0.5346
     98  NH1      108.1620   63.8280   16.2470 N.pl3 218  ARG218      0.1354
     99  NH2      108.7930   64.5340   18.3370 N.pl3 218  ARG218      0.1354
    100  N        117.7840   62.3820   13.7710 N.3   245  HIS245     -0.1226
    101  CA       116.7580   63.2880   14.2920 C.3   245  HIS245      0.1752
    102  C        115.3630   62.6570   14.3990 C.2   245  HIS245      0.2595
    103  O        114.3940   63.3370   14.7360 O.2   245  HIS245     -0.2718
    104  CB       116.6930   64.5610   13.4370 C.3   245  HIS245      0.0759
    105  CG       115.9280   65.6780   14.0700 C.ar  245  HIS245      0.0818
    106  ND1      116.2900   66.2400   15.2780 N.ar  245  HIS245     -0.2268
    107  CD2      114.8100   66.3330   13.6740 C.ar  245  HIS245      0.1154
    108  CE1      115.4320   67.1940   15.5920 C.ar  245  HIS245      0.1986
    109  NE2      114.5260   67.2710   14.6350 N.ar  245  HIS245     -0.2212
    110  N        115.2530   61.3620   14.1240 N.am  246  MET246     -0.1979
    111  CA       113.9610   60.6910   14.2430 C.3   246  MET246      0.1605
    112  C        114.0900   59.1970   14.5140 C.2   246  MET246      0.2287
    113  O        114.8040   58.4860   13.8050 O.2   246  MET246     -0.2864
    114  CB       113.1300   60.9040   12.9770 C.3   246  MET246      0.0413
    115  CG       111.7730   60.2210   13.0230 C.3   246  MET246      0.0598
    116  SD       110.8510   60.3500   11.4810 S.3   246  MET246     -0.1393
    117  CE       111.9890   59.5850   10.3310 C.3   246  MET246      0.0692
    118  N        119.2710   55.9820   13.0980 N.3   264  PHE264     -0.1241
    119  CA       118.9620   56.1510   14.5130 C.3   264  PHE264      0.1605
    120  C        119.5840   54.9990   15.2860 C.2   264  PHE264      0.2264
    121  O        119.3820   53.8340   14.9440 O.2   264  PHE264     -0.2867
    122  CB       117.4480   56.2030   14.7280 C.3   264  PHE264      0.0534
    123  CG       117.0350   56.7860   16.0510 C.ar  264  PHE264     -0.0203
    124  CD1      116.9290   58.1580   16.2150 C.ar  264  PHE264     -0.0042
    125  CD2      116.7320   55.9630   17.1240 C.ar  264  PHE264     -0.0042
    126  CE1      116.5400   58.6990   17.4270 C.ar  264  PHE264     -0.0003
    127  CE2      116.3430   56.4980   18.3380 C.ar  264  PHE264     -0.0003
    128  CZ       116.2490   57.8680   18.4890 C.ar  264  PHE264     -0.0000
    129  N        114.1990   53.3960   22.0650 N.3   269  TYR269     -0.1241
    130  CA       114.2470   54.8130   22.4130 C.3   269  TYR269      0.1605
    131  C        113.1950   55.1690   23.4590 C.2   269  TYR269      0.2264
    132  O        112.0400   54.7520   23.3540 O.2   269  TYR269     -0.2867
    133  CB       114.0560   55.6600   21.1520 C.3   269  TYR269      0.0534
    134  CG       114.2520   57.1480   21.3410 C.ar  269  TYR269     -0.0201
    135  CD1      115.3660   57.6450   22.0050 C.ar  269  TYR269     -0.0009
    136  CD2      113.3310   58.0560   20.8350 C.ar  269  TYR269     -0.0009
    137  CE1      115.5510   59.0060   22.1690 C.ar  269  TYR269      0.0417
    138  CE2      113.5080   59.4170   20.9950 C.ar  269  TYR269      0.0417
    139  CZ       114.6190   59.8870   21.6620 C.ar  269  TYR269      0.1957
    140  OH       114.7960   61.2430   21.8200 O.3   269  TYR269     -0.2866
@<TRIPOS>BOND
     1   117   116    1
     2   116   115    1
     3    77    78    2
     4    77    76    1
     5   114   115    1
     6   114   111    1
     7    75    76    1
     8   118   119    1
     9    76    79    1
    10   104   105    1
    11   104   101    1
    12   107   105   ar
    13   107   109   ar
    14   100   101    1
    15   113   112    2
    16   105   106   ar
    17    79    80    1
    18   110   111    1
    19   110   102   am
    20   111   112    1
    21   101   102    1
    22    89    90    1
    23   102   103    2
    24   119   122    1
    25   119   120    1
    26   109   108   ar
    27   122   123    1
    28    94    95    1
    29    94    93    1
    30   121   120    2
    31    95    96    1
    32   106   108   ar
    33    93    90    1
    34    80    81   ar
    35    80    82   ar
    36    90    91    1
    37    81    83   ar
    38   123   124   ar
    39   123   125   ar
    40   124   126   ar
    41    98    97    1
    42    91    92    2
    43     7     6   ar
    44     1     2    1
    45    96    97    2
    46    82    85   ar
    47    82    84   ar
    48    85    87   ar
    49    97    99    1
    50   125   127   ar
    51    83    84   ar
    52   126   128   ar
    53     6     8   ar
    54     6     5    1
    55    38    39    1
    56    42    43    1
    57    42    39    1
    58    84    86   ar
    59     2     5    1
    60     2     3    1
    61    44    43    2
    62    87    88   ar
    63    43    45   am
    64    39    40    1
    65   127   128   ar
    66     4     3    2
    67    26    24   ar
    68    19    20    1
    69    24    25   ar
    70    24    23    1
    71    86    88   ar
    72    23    20    1
    73    40    46   am
    74    40    41    2
    75    20    21    1
    76    46    47    1
    77    22    21    2
    78   136   138   ar
    79   136   134   ar
    80    18    16   ar
    81    18    17   ar
    82   138   139   ar
    83   133   134    1
    84   133   130    1
    85    53    55   ar
    86    53    51   ar
    87    16    14   ar
    88   134   135   ar
    89   139   140    1
    90   139   137   ar
    91    47    50    1
    92    47    48    1
    93    55    54   ar
    94    17    15   ar
    95   135   137   ar
    96   129   130    1
    97    50    51    1
    98    51    52   ar
    99    48    49    2
   100   130   131    1
   101    14    15   ar
   102    14    13    1
   103     9    10    1
   104    62    60    1
   105    54    52   ar
   106    13    10    1
   107   132   131    2
   108    37    35    1
   109    10    11    1
   110    60    61    1
   111    60    57    1
   112    34    35    2
   113    34    33    1
   114    35    36    1
   115    74    73    1
   116    11    12    2
   117    33    32    1
   118    72    73   ar
   119    72    70   ar
   120    57    56    1
   121    57    58    1
   122    73    71   ar
   123    32    31    1
   124    70    68   ar
   125    31    28    1
   126    58    59    2
   127    71    69   ar
   128    68    69   ar
   129    68    67    1
   130    67    64    1
   131    28    27    1
   132    28    29    1
   133    29    30    2
   134    64    63    1
   135    64    65    1
   136    66    65    2
