@<TRIPOS>MOLECULE
tmp/5jpfA02.pdb
 80 77 0 0 0
SMALL
GASTEIGER

@<TRIPOS>ATOM
      1  N        158.9140  -10.0100   10.3550 N.3   121  CYS121     -0.1235
      2  CA       159.0100   -9.3620    9.0550 C.3   121  CYS121      0.1677
      3  C        159.1240   -7.8580    9.2550 C.2   121  CYS121      0.2270
      4  O        158.8590   -7.3310   10.3390 O.2   121  CYS121     -0.2867
      5  CB       157.8190   -9.7040    8.1550 C.3   121  CYS121      0.0956
      6  SG       156.2800   -8.9080    8.6160 S.3   121  CYS121     -0.0801
      7  N        157.5500   -5.0780    8.1010 N.3   123  ASN123     -0.1225
      8  CA       156.4390   -4.1620    8.3480 C.3   123  ASN123      0.1785
      9  C        155.8300   -4.3520    9.7320 C.2   123  ASN123      0.2597
     10  O        155.3910   -3.3740   10.3490 O.2   123  ASN123     -0.2718
     11  CB       155.3690   -4.3260    7.2690 C.3   123  ASN123      0.1169
     12  CG       155.7840   -3.7170    5.9420 C.2   123  ASN123      0.2627
     13  OD1      156.5280   -2.7390    5.9020 O.2   123  ASN123     -0.2716
     14  ND2      155.3010   -4.2960    4.8480 N.am  123  ASN123     -0.0877
     15  N        155.7810   -5.5870   10.2350 N.am  124  VAL124     -0.1980
     16  CA       155.1560   -5.8100   11.5350 C.3   124  VAL124      0.1595
     17  C        156.0610   -5.3270   12.6610 C.2   124  VAL124      0.2287
     18  O        155.5770   -4.8170   13.6810 O.2   124  VAL124     -0.2864
     19  CB       154.7740   -7.2930   11.6970 C.3   124  VAL124      0.0276
     20  CG1      154.2070   -7.5540   13.0890 C.3   124  VAL124      0.0022
     21  CG2      153.7580   -7.6870   10.6390 C.3   124  VAL124      0.0022
     22  N        160.3430  -11.6540    1.6320 N.3   188  ASP188     -0.1225
     23  CA       159.4440  -10.9380    2.5180 C.3   188  ASP188      0.1805
     24  C        158.1190  -11.6940    2.6150 C.2   188  ASP188      0.2598
     25  O        157.8890  -12.6860    1.9190 O.2   188  ASP188     -0.2718
     26  CB       159.2240   -9.5110    2.0180 C.3   188  ASP188      0.1424
     27  CG       158.9780   -8.5290    3.1480 C.2   188  ASP188      0.3668
     28  OD1      158.5180   -8.9590    4.2300 O.co2 188  ASP188     -0.2456
     29  OD2      159.2460   -7.3230    2.9540 O.co2 188  ASP188     -0.2456
     30  N        157.2410  -11.2240    3.4970 N.am  189  VAL189     -0.1966
     31  CA       155.9260  -11.8260    3.6900 C.3   189  VAL189      0.1712
     32  C        154.9080  -10.9700    2.9330 C.2   189  VAL189      0.2458
     33  O        154.6930   -9.8080    3.3130 O.2   189  VAL189     -0.2730
     34  CB       155.5590  -11.9410    5.1750 C.3   189  VAL189      0.0289
     35  CG1      154.1610  -12.5230    5.3280 C.3   189  VAL189      0.0023
     36  CG2      156.5730  -12.8020    5.9060 C.3   189  VAL189      0.0023
     37  N        154.2770  -11.4880    1.8850 N.am  190  PRO190     -0.2716
     38  CA       153.2830  -10.6950    1.1540 C.3   190  PRO190      0.1536
     39  C        152.0060  -10.5350    1.9640 C.2   190  PRO190      0.2598
     40  O        151.7770  -11.2110    2.9680 O.2   190  PRO190     -0.2715
     41  CB       153.0320  -11.5110   -0.1210 C.3   190  PRO190      0.0310
     42  CG       154.1100  -12.5610   -0.1520 C.3   190  PRO190      0.0237
     43  CD       154.4900  -12.8060    1.2700 C.3   190  PRO190      0.0939
     44  N        151.1610   -9.6110    1.4990 N.am  191  ASP191     -0.1972
     45  CA       149.8470   -9.3870    2.0940 C.3   191  ASP191      0.1709
     46  C        148.9020  -10.5590    1.8900 C.2   191  ASP191      0.2293
     47  O        147.8570  -10.6130    2.5460 O.2   191  ASP191     -0.2864
     48  CB       149.2020   -8.1310    1.5000 C.3   191  ASP191      0.1436
     49  CG       150.0650   -6.8980    1.6560 C.2   191  ASP191      0.3671
     50  OD1      151.2960   -7.0410    1.8160 O.co2 191  ASP191     -0.2456
     51  OD2      149.5060   -5.7810    1.6110 O.co2 191  ASP191     -0.2456
     52  N        151.5850  -15.9840    3.5230 N.3   196  ASN196     -0.1240
     53  CA       150.8250  -15.1460    4.4470 C.3   196  ASN196      0.1653
     54  C        149.8660  -15.9810    5.2890 C.2   196  ASN196      0.2266
     55  O        149.7670  -15.7920    6.5070 O.2   196  ASN196     -0.2867
     56  CB       150.0650  -14.0670    3.6720 C.3   196  ASN196      0.1155
     57  CG       149.1620  -13.2330    4.5640 C.2   196  ASN196      0.2627
     58  OD1      148.0260  -13.6160    4.8490 O.2   196  ASN196     -0.2716
     59  ND2      149.6610  -12.0810    5.0040 N.am  196  ASN196     -0.0877
     60  N        149.4950  -16.3990    9.4810 N.3   200  TRP200     -0.1241
     61  CA       148.4710  -15.4890    9.9780 C.3   200  TRP200      0.1605
     62  C        147.1290  -16.1290   10.3130 C.2   200  TRP200      0.2264
     63  O        146.3390  -15.4980   11.0230 O.2   200  TRP200     -0.2867
     64  CB       148.2140  -14.3620    8.9620 C.3   200  TRP200      0.0550
     65  CG       149.2300  -13.2480    8.9700 C.ar  200  TRP200      0.0003
     66  CD1      150.3320  -13.1360    8.1710 C.ar  200  TRP200      0.0946
     67  CD2      149.2180  -12.0780    9.8010 C.ar  200  TRP200      0.0152
     68  NE1      151.0100  -11.9760    8.4590 N.ar  200  TRP200     -0.2442
     69  CE2      150.3460  -11.3090    9.4540 C.ar  200  TRP200      0.0810
     70  CE3      148.3660  -11.6100   10.8050 C.ar  200  TRP200      0.0012
     71  CZ2      150.6450  -10.0960   10.0770 C.ar  200  TRP200      0.0191
     72  CZ3      148.6620  -10.4040   11.4190 C.ar  200  TRP200      0.0001
     73  CH2      149.7920   -9.6630   11.0540 C.ar  200  TRP200      0.0015
     74  N        143.6030   -9.7800    8.0260 N.3   217  VAL217     -0.1245
     75  CA       144.3510  -10.3980    6.9390 C.3   217  VAL217      0.1561
     76  C        144.2320  -11.9070    7.0890 C.2   217  VAL217      0.2260
     77  O        143.9910  -12.4200    8.1860 O.2   217  VAL217     -0.2867
     78  CB       145.8280   -9.9260    6.9390 C.3   217  VAL217      0.0252
     79  CG1      146.6330  -10.6550    8.0040 C.3   217  VAL217      0.0019
     80  CG2      146.4500  -10.0870    5.5610 C.3   217  VAL217      0.0019
@<TRIPOS>BOND
     1    42    41    1
     2    42    43    1
     3    41    38    1
     4    38    37    1
     5    38    39    1
     6    43    37    1
     7    44    39   am
     8    44    45    1
     9    48    49    1
    10    48    45    1
    11    51    49   ar
    12    22    23    1
    13    49    50   ar
    14    37    32   am
    15    46    45    1
    16    46    47    2
    17    25    24    2
    18    39    40    2
    19    26    23    1
    20    26    27    1
    21    23    24    1
    22    24    30   am
    23    32    33    2
    24    32    31    1
    25    29    27   ar
    26    27    28   ar
    27    30    31    1
    28    52    53    1
    29    56    53    1
    30    56    57    1
    31    31    34    1
    32    53    54    1
    33    57    58    2
    34    57    59   am
    35    14    12   am
    36    34    35    1
    37    34    36    1
    38    54    55    2
    39    80    78    1
    40    13    12    2
    41    12    11    1
    42    78    75    1
    43    78    79    1
    44    75    76    1
    45    75    74    1
    46    76    77    2
    47    11     8    1
    48     7     8    1
    49     5     6    1
    50     5     2    1
    51    66    68   ar
    52    66    65   ar
    53     8     9    1
    54    68    69   ar
    55    64    65    1
    56    64    61    1
    57    65    67   ar
    58     2     3    1
    59     2     1    1
    60     3     4    2
    61    69    67   ar
    62    69    71   ar
    63    60    61    1
    64     9    15   am
    65     9    10    2
    66    67    70   ar
    67    61    62    1
    68    71    73   ar
    69    15    16    1
    70    62    63    2
    71    21    19    1
    72    70    72   ar
    73    73    72   ar
    74    16    19    1
    75    16    17    1
    76    19    20    1
    77    17    18    2
