@<TRIPOS>MOLECULE
tmp/5jpgB00.pdb
 107 99 0 0 0
SMALL
GASTEIGER

@<TRIPOS>ATOM
      1  N          0.5370  -24.2460    4.1860 N.3    33  ARG33      -0.1245
      2  CA        -0.5480  -23.9720    5.1270 C.3    33  ARG33       0.1563
      3  C         -0.4290  -24.9110    6.3190 C.2    33  ARG33       0.2260
      4  O          0.1150  -26.0090    6.2120 O.2    33  ARG33      -0.2867
      5  CB        -1.9370  -24.1760    4.4980 C.3    33  ARG33       0.0307
      6  CG        -2.2490  -23.3590    3.2760 C.3    33  ARG33       0.0489
      7  CD        -3.7150  -23.4900    2.8790 C.3    33  ARG33       0.2205
      8  NE        -4.0040  -22.6000    1.7580 N.pl3  33  ARG33      -0.0865
      9  CZ        -5.2020  -22.4170    1.2260 C.cat  33  ARG33       0.5346
     10  NH1       -6.2570  -23.0560    1.7160 N.pl3  33  ARG33       0.1354
     11  NH2       -5.3370  -21.5860    0.1980 N.pl3  33  ARG33       0.1354
     12  N         -3.1210  -25.8060   10.0550 N.3    35  GLN35      -0.1245
     13  CA        -4.3710  -25.4290   10.6860 C.3    35  GLN35       0.1566
     14  C         -4.4610  -26.0070   12.0870 C.2    35  GLN35       0.2260
     15  O         -3.9310  -27.0820   12.3760 O.2    35  GLN35      -0.2867
     16  CB        -5.5850  -25.8600    9.8490 C.3    35  GLN35       0.0367
     17  CG        -5.7580  -27.3600    9.6600 C.3    35  GLN35       0.0905
     18  CD        -6.8560  -27.6710    8.6640 C.2    35  GLN35       0.2608
     19  OE1       -8.0200  -27.8440    9.0340 O.2    35  GLN35      -0.2717
     20  NE2       -6.4910  -27.7270    7.3770 N.am   35  GLN35      -0.0878
     21  N        -11.5350  -22.7390   13.6770 N.3    47  HIS47      -0.1241
     22  CA       -10.5600  -23.1660   12.6840 C.3    47  HIS47       0.1621
     23  C         -9.5960  -21.9980   12.5100 C.2    47  HIS47       0.2264
     24  O        -10.0280  -20.8930   12.1600 O.2    47  HIS47      -0.2867
     25  CB       -11.3020  -23.5270   11.3790 C.3    47  HIS47       0.0745
     26  CG       -10.4310  -23.7110   10.1750 C.ar   47  HIS47       0.0817
     27  ND1       -9.7010  -24.8580    9.9480 N.ar   47  HIS47      -0.2268
     28  CD2      -10.2380  -22.9230    9.0890 C.ar   47  HIS47       0.1154
     29  CE1       -9.0660  -24.7520    8.7950 C.ar   47  HIS47       0.1986
     30  NE2       -9.3740  -23.5870    8.2540 N.ar   47  HIS47      -0.2212
     31  N         -6.1940  -20.9740   10.5370 N.3    49  ASN49      -0.1240
     32  CA        -5.5370  -21.4910    9.3310 C.3    49  ASN49       0.1653
     33  C         -4.5400  -20.4760    8.7770 C.2    49  ASN49       0.2266
     34  O         -4.8870  -19.6480    7.9220 O.2    49  ASN49      -0.2867
     35  CB        -6.6030  -21.8700    8.3030 C.3    49  ASN49       0.1155
     36  CG        -6.0430  -22.4880    7.0280 C.2    49  ASN49       0.2627
     37  OD1       -6.6600  -22.3690    5.9660 O.2    49  ASN49      -0.2716
     38  ND2       -4.8960  -23.1550    7.1200 N.am   49  ASN49      -0.0877
     39  N         -2.0140  -19.3530    6.1990 N.3    51  ARG51      -0.1245
     40  CA        -1.7910  -19.6760    4.7910 C.3    51  ARG51       0.1563
     41  C         -0.5990  -18.8680    4.2840 C.2    51  ARG51       0.2260
     42  O         -0.7060  -17.6500    4.0910 O.2    51  ARG51      -0.2867
     43  CB        -3.0460  -19.3710    3.9660 C.3    51  ARG51       0.0307
     44  CG        -4.3120  -20.0710    4.4720 C.3    51  ARG51       0.0489
     45  CD        -5.4660  -19.8670    3.4920 C.3    51  ARG51       0.2205
     46  NE        -6.6580  -20.5960    3.9090 N.pl3  51  ARG51      -0.0865
     47  CZ        -7.8310  -20.5010    3.2890 C.cat  51  ARG51       0.5346
     48  NH1       -7.9560  -19.7010    2.2350 N.pl3  51  ARG51       0.1354
     49  NH2       -8.8700  -21.2070    3.7100 N.pl3  51  ARG51       0.1354
     50  N         -1.1920  -17.5080    0.6310 N.3    54  GLU54      -0.1245
     51  CA        -1.9690  -16.2760    0.5400 C.3    54  GLU54       0.1567
     52  C         -1.4730  -15.1840    1.4730 C.2    54  GLU54       0.2260
     53  O         -1.9860  -14.0610    1.4080 O.2    54  GLU54      -0.2867
     54  CB        -3.4510  -16.5470    0.8350 C.3    54  GLU54       0.0388
     55  CG        -4.1500  -17.3890   -0.2320 C.3    54  GLU54       0.1160
     56  CD        -5.6490  -17.4900   -0.0170 C.2    54  GLU54       0.3649
     57  OE1       -6.0870  -17.7120    1.1360 O.co2  54  GLU54      -0.2457
     58  OE2       -6.3980  -17.3300   -1.0080 O.co2  54  GLU54      -0.2457
     59  N         -6.6150  -17.3060    8.1520 N.3    58  VAL58      -0.1245
     60  CA        -8.0590  -17.4330    8.0100 C.3    58  VAL58       0.1561
     61  C         -8.6330  -18.0570    9.2800 C.2    58  VAL58       0.2260
     62  O         -8.0660  -19.0100    9.8230 O.2    58  VAL58      -0.2867
     63  CB        -8.3990  -18.2540    6.7530 C.3    58  VAL58       0.0252
     64  CG1       -9.9000  -18.4880    6.6060 C.3    58  VAL58       0.0019
     65  CG2       -7.8570  -17.5290    5.5140 C.3    58  VAL58       0.0019
     66  N        -12.4530  -19.5070   10.9400 N.3    60  ASN60      -0.1240
     67  CA       -13.8040  -19.8730   10.5240 C.3    60  ASN60       0.1653
     68  C        -14.3620  -20.9320   11.4620 C.2    60  ASN60       0.2266
     69  O        -13.6930  -21.4060   12.3870 O.2    60  ASN60      -0.2867
     70  CB       -13.8280  -20.3710    9.0690 C.3    60  ASN60       0.1155
     71  CG       -15.1730  -20.1150    8.3770 C.2    60  ASN60       0.2627
     72  OD1      -16.1740  -19.7760    9.0170 O.2    60  ASN60      -0.2716
     73  ND2      -15.1860  -20.2500    7.0610 N.am   60  ASN60      -0.0877
     74  N        -18.7970  -24.5550    5.9910 N.3    67  TRP67      -0.1241
     75  CA       -17.9910  -23.4310    6.4580 C.3    67  TRP67       0.1605
     76  C        -18.8120  -22.1460    6.4670 C.2    67  TRP67       0.2264
     77  O        -19.5280  -21.8470    5.5060 O.2    67  TRP67      -0.2867
     78  CB       -16.7710  -23.2480    5.5520 C.3    67  TRP67       0.0550
     79  CG       -15.7310  -24.3030    5.7310 C.ar   67  TRP67       0.0003
     80  CD1      -15.3660  -25.2680    4.8360 C.ar   67  TRP67       0.0946
     81  CD2      -14.9180  -24.5000    6.8930 C.ar   67  TRP67       0.0152
     82  NE1      -14.3610  -26.0520    5.3720 N.ar   67  TRP67      -0.2442
     83  CE2      -14.0660  -25.5910    6.6300 C.ar   67  TRP67       0.0810
     84  CE3      -14.8070  -23.8370    8.1180 C.ar   67  TRP67       0.0012
     85  CZ2      -13.1390  -26.0570    7.5610 C.ar   67  TRP67       0.0191
     86  CZ3      -13.8790  -24.3050    9.0490 C.ar   67  TRP67       0.0001
     87  CH2      -13.0580  -25.4000    8.7610 C.ar   67  TRP67       0.0015
     88  N        -15.6620  -16.3170    6.5050 N.3    70  GLU70      -0.1245
     89  CA       -14.2890  -16.2950    6.9770 C.3    70  GLU70       0.1567
     90  C        -13.9610  -14.9450    7.5980 C.2    70  GLU70       0.2260
     91  O        -14.4830  -13.9060    7.1860 O.2    70  GLU70      -0.2867
     92  CB       -13.3170  -16.5870    5.8220 C.3    70  GLU70       0.0388
     93  CG       -13.3520  -18.0430    5.3650 C.3    70  GLU70       0.1160
     94  CD       -12.6180  -18.2670    4.0670 C.2    70  GLU70       0.3649
     95  OE1      -12.2030  -17.2560    3.4700 O.co2  70  GLU70      -0.2457
     96  OE2      -12.4750  -19.4380    3.6430 O.co2  70  GLU70      -0.2457
     97  N        -10.4930  -12.6910    8.1980 N.3    72  ARG72      -0.1245
     98  CA        -9.0920  -12.6180    7.8120 C.3    72  ARG72       0.1563
     99  C         -8.3450  -11.4140    8.3620 C.2    72  ARG72       0.2260
    100  O         -7.1330  -11.3300    8.1560 O.2    72  ARG72      -0.2867
    101  CB        -8.9500  -12.6210    6.2820 C.3    72  ARG72       0.0307
    102  CG        -9.5110  -13.8470    5.5980 C.3    72  ARG72       0.0489
    103  CD        -9.2080  -13.8220    4.0760 C.3    72  ARG72       0.2205
    104  NE        -9.7050  -15.0270    3.4150 N.pl3  72  ARG72      -0.0865
    105  CZ        -8.9930  -15.8080    2.6050 C.cat  72  ARG72       0.5346
    106  NH1       -7.7330  -15.5090    2.3050 N.pl3  72  ARG72       0.1354
    107  NH2       -9.5540  -16.8930    2.0860 N.pl3  72  ARG72       0.1354
@<TRIPOS>BOND
     1    58    56   ar
     2    55    56    1
     3    55    54    1
     4    56    57   ar
     5    11     9    1
     6    51    50    1
     7    51    54    1
     8    51    52    1
     9     9    10    1
    10     9     8    2
    11    53    52    2
    12     8     7    1
    13   107   105    1
    14    48    47    1
    15   106   105    1
    16   105   104    2
    17     7     6    1
    18     6     5    1
    19    47    49    1
    20    47    46    2
    21   104   103    1
    22    95    94   ar
    23    45    46    1
    24    45    44    1
    25    96    94   ar
    26    43    44    1
    27    43    40    1
    28    94    93    1
    29   103   102    1
    30    42    41    2
    31     1     2    1
    32    41    40    1
    33     5     2    1
    34    40    39    1
    35    80    82   ar
    36    80    79   ar
    37     2     3    1
    38    93    92    1
    39    82    83   ar
    40    77    76    2
    41    65    63    1
    42    78    79    1
    43    78    75    1
    44   102   101    1
    45    79    81   ar
    46    92    89    1
    47    37    36    2
    48    74    75    1
    49     4     3    2
    50   101    98    1
    51    75    76    1
    52    88    89    1
    53    64    63    1
    54    83    81   ar
    55    83    85   ar
    56    63    60    1
    57    81    84   ar
    58    89    90    1
    59    36    38   am
    60    36    35    1
    61    73    71   am
    62    91    90    2
    63    20    18   am
    64    85    87   ar
    65    98    97    1
    66    98    99    1
    67    34    33    2
    68    60    59    1
    69    60    61    1
    70    84    86   ar
    71   100    99    2
    72    30    29   ar
    73    30    28   ar
    74    35    32    1
    75    71    72    2
    76    71    70    1
    77    18    19    2
    78    18    17    1
    79    87    86   ar
    80    33    32    1
    81    29    27   ar
    82    70    67    1
    83    28    26   ar
    84    61    62    2
    85    32    31    1
    86    17    16    1
    87    16    13    1
    88    27    26   ar
    89    12    13    1
    90    26    25    1
    91    67    66    1
    92    67    68    1
    93    13    14    1
    94    25    22    1
    95    68    69    2
    96    14    15    2
    97    24    23    2
    98    23    22    1
    99    22    21    1
