@<TRIPOS>MOLECULE
tmp/5jphB01.pdb
 192 189 0 0 0
SMALL
GASTEIGER

@<TRIPOS>ATOM
      1  N         -2.9680   36.6940   89.6230 N.3    22  VAL22      -0.1231
      2  CA        -3.0690   35.3030   90.0680 C.3    22  VAL22       0.1692
      3  C         -2.1460   34.3730   89.2920 C.2    22  VAL22       0.2592
      4  O         -1.3200   33.6900   89.8820 O.2    22  VAL22      -0.2718
      5  CB        -4.5270   34.8210   90.0360 C.3    22  VAL22       0.0266
      6  CG1       -4.6380   33.3350   90.3440 C.3    22  VAL22       0.0020
      7  CG2       -5.3410   35.6180   91.0230 C.3    22  VAL22       0.0020
      8  N         -2.3250   34.2910   87.9770 N.am   23  PHE23      -0.1976
      9  CA        -1.5490   33.3220   87.2060 C.3    23  PHE23       0.1639
     10  C         -0.0780   33.7200   87.0450 C.2    23  PHE23       0.2290
     11  O          0.7980   32.8690   87.1330 O.2    23  PHE23      -0.2864
     12  CB        -2.2230   33.0430   85.8610 C.3    23  PHE23       0.0560
     13  CG        -3.5590   32.3860   86.0210 C.ar   23  PHE23      -0.0200
     14  CD1       -3.6500   31.1660   86.6590 C.ar   23  PHE23      -0.0042
     15  CD2       -4.7160   33.0080   85.6110 C.ar   23  PHE23      -0.0042
     16  CE1       -4.8720   30.5390   86.8340 C.ar   23  PHE23      -0.0003
     17  CE2       -5.9470   32.3930   85.7870 C.ar   23  PHE23      -0.0003
     18  CZ        -6.0190   31.1580   86.4050 C.ar   23  PHE23      -0.0000
     19  N          1.4410   35.3690   91.1290 N.3    26  GLU26      -0.1231
     20  CA         1.3320   34.3660   92.1890 C.3    26  GLU26       0.1699
     21  C          1.8130   32.9970   91.7190 C.2    26  GLU26       0.2592
     22  O          2.6290   32.3610   92.3850 O.2    26  GLU26      -0.2718
     23  CB        -0.0880   34.3270   92.7430 C.3    26  GLU26       0.0402
     24  CG        -0.3660   33.2360   93.7640 C.3    26  GLU26       0.1161
     25  CD        -1.8300   33.1720   94.1970 C.2    26  GLU26       0.3649
     26  OE1       -2.6260   34.0480   93.7960 O.co2  26  GLU26      -0.2457
     27  OE2       -2.1870   32.2000   94.9160 O.co2  26  GLU26      -0.2457
     28  N          1.3270   32.5500   90.5600 N.am   27  GLN27      -0.1979
     29  CA         1.6180   31.1650   90.1050 C.3    27  GLN27       0.1601
     30  C          2.7810   31.0090   89.1220 C.2    27  GLN27       0.2287
     31  O          3.1870   29.9000   88.8210 O.2    27  GLN27      -0.2864
     32  CB         0.3780   30.5030   89.5430 C.3    27  GLN27       0.0394
     33  CG        -0.7410   30.3640   90.5570 C.3    27  GLN27       0.0908
     34  CD        -1.8890   29.5230   90.0740 C.2    27  GLN27       0.2608
     35  OE1       -2.0640   29.3090   88.8770 O.2    27  GLN27      -0.2717
     36  NE2       -2.6820   29.0360   91.0030 N.am   27  GLN27      -0.0878
     37  N         -8.8910   30.1010   82.7450 N.3    71  ARG71      -0.1231
     38  CA        -8.5510   31.3430   83.4980 C.3    71  ARG71       0.1694
     39  C         -9.4000   31.5500   84.7580 C.2    71  ARG71       0.2592
     40  O         -9.6700   32.6610   85.1420 O.2    71  ARG71      -0.2718
     41  CB        -8.6010   32.5730   82.6010 C.3    71  ARG71       0.0321
     42  CG        -7.7250   32.5100   81.3690 C.3    71  ARG71       0.0489
     43  CD        -6.2580   32.3670   81.6930 C.3    71  ARG71       0.2205
     44  NE        -5.4500   32.6730   80.5150 N.pl3  71  ARG71      -0.0865
     45  CZ        -5.4110   31.9370   79.4140 C.cat  71  ARG71       0.5346
     46  NH1       -6.0680   30.7960   79.3380 N.pl3  71  ARG71       0.1354
     47  NH2       -4.7080   32.3530   78.3750 N.pl3  71  ARG71       0.1354
     48  N         -9.7430   30.4600   85.4320 N.am   72  VAL72      -0.1966
     49  CA       -10.5960   30.5340   86.6320 C.3    72  VAL72       0.1727
     50  C         -9.7480   31.0930   87.7840 C.2    72  VAL72       0.2616
     51  O         -8.7830   30.4450   88.2290 O.2    72  VAL72      -0.2715
     52  CB       -11.1480   29.1450   87.0120 C.3    72  VAL72       0.0290
     53  CG1      -11.9060   29.2020   88.3220 C.3    72  VAL72       0.0023
     54  CG2      -12.0460   28.6160   85.9110 C.3    72  VAL72       0.0023
     55  N        -10.1160   32.2630   88.2830 N.am   73  ALA73      -0.1963
     56  CA        -9.2980   32.9270   89.2880 C.3    73  ALA73       0.1728
     57  C        -10.0950   33.8240   90.1940 C.2    73  ALA73       0.2616
     58  O        -10.9030   34.6140   89.7320 O.2    73  ALA73      -0.2715
     59  CB        -8.1920   33.7280   88.6350 C.3    73  ALA73       0.0334
     60  N         -9.7810   33.7300   91.4800 N.am   74  VAL74      -0.1977
     61  CA       -10.2990   34.6260   92.5000 C.3    74  VAL74       0.1596
     62  C         -9.0630   35.2770   93.1560 C.2    74  VAL74       0.2287
     63  O         -8.1230   34.5860   93.5230 O.2    74  VAL74      -0.2864
     64  CB       -11.1480   33.8690   93.5360 C.3    74  VAL74       0.0276
     65  CG1      -11.5300   34.7860   94.6800 C.3    74  VAL74       0.0022
     66  CG2      -12.3850   33.2570   92.8900 C.3    74  VAL74       0.0022
     67  N         -9.8710   37.4420   98.4390 N.3    77  HIS77      -0.1226
     68  CA       -11.2930   37.0870   98.4400 C.3    77  HIS77       0.1752
     69  C        -11.5830   35.5980   98.3870 C.2    77  HIS77       0.2596
     70  O        -12.7420   35.1910   98.1770 O.2    77  HIS77      -0.2718
     71  CB       -11.9990   37.8030   97.2840 C.3    77  HIS77       0.0759
     72  CG       -12.1930   39.2670   97.5420 C.ar   77  HIS77       0.0818
     73  ND1      -11.1430   40.1510   97.6140 N.ar   77  HIS77      -0.2268
     74  CD2      -13.3110   39.9900   97.7520 C.ar   77  HIS77       0.1154
     75  CE1      -11.6070   41.3640   97.8660 C.ar   77  HIS77       0.1986
     76  NE2      -12.9220   41.2920   97.9500 N.ar   77  HIS77      -0.2212
     77  N        -10.5430   34.7810   98.5700 N.am   78  ARG78      -0.1966
     78  CA       -10.7120   33.3220   98.5790 C.3    78  ARG78       0.1729
     79  C        -11.2920   32.8090   99.8990 C.2    78  ARG78       0.2617
     80  O        -11.2650   33.5000  100.9230 O.2    78  ARG78      -0.2715
     81  CB        -9.3960   32.6130   98.2940 C.3    78  ARG78       0.0348
     82  CG        -8.8970   32.8700   96.9000 C.3    78  ARG78       0.0492
     83  CD        -7.5840   32.1870   96.6020 C.3    78  ARG78       0.2205
     84  NE        -7.0280   32.7630   95.3810 N.pl3  78  ARG78      -0.0865
     85  CZ        -5.7450   32.8220   95.0630 C.cat  78  ARG78       0.5346
     86  NH1       -4.8340   32.1890   95.7950 N.pl3  78  ARG78       0.1354
     87  NH2       -5.3770   33.4900   93.9840 N.pl3  78  ARG78       0.1354
     88  N        -11.8510   31.6120   99.8430 N.am   79  GLY79      -0.1940
     89  CA       -12.3570   30.9300  101.0320 C.3    79  GLY79       0.2014
     90  C        -13.6490   31.4730  101.6030 C.2    79  GLY79       0.2639
     91  O        -13.9510   31.2260  102.7680 O.2    79  GLY79      -0.2714
     92  N        -14.3990   32.2170  100.7840 N.am   80  GLN80      -0.1963
     93  CA       -15.6790   32.7770  101.2040 C.3    80  GLN80       0.1733
     94  C        -16.7910   32.5030  100.2020 C.2    80  GLN80       0.2616
     95  O        -17.8330   33.1540  100.2290 O.2    80  GLN80      -0.2715
     96  CB       -15.5420   34.2550  101.5310 C.3    80  GLN80       0.0408
     97  CG       -14.9850   35.1050  100.4410 C.3    80  GLN80       0.0908
     98  CD       -14.9080   36.5710  100.8370 C.2    80  GLN80       0.2608
     99  OE1      -15.1220   36.9640  101.9760 O.2    80  GLN80      -0.2717
    100  NE2      -14.6180   37.3860   99.8580 N.am   80  GLN80      -0.0878
    101  N        -16.6010   31.4830   99.3690 N.am   81  GLY81      -0.1955
    102  CA       -17.6460   31.0300   98.4410 C.3    81  GLY81       0.1869
    103  C        -17.6730   31.6950   97.0740 C.2    81  GLY81       0.2309
    104  O        -18.5010   31.3430   96.2440 O.2    81  GLY81      -0.2863
    105  N        -15.3910   31.5750   94.5740 N.3    82  GLY82      -0.1210
    106  CA       -15.0490   30.6360   93.5010 C.3    82  GLY82       0.1956
    107  C        -16.2160   29.7460   93.1020 C.2    82  GLY82       0.2611
    108  O        -16.4820   29.4980   91.9250 O.2    82  GLY82      -0.2717
    109  N        -16.9500   29.2690   94.1000 N.am   83  ARG83      -0.1979
    110  CA       -18.1330   28.4530   93.8270 C.3    83  ARG83       0.1597
    111  C        -19.1700   29.2660   93.0410 C.2    83  ARG83       0.2287
    112  O        -19.7550   28.7880   92.0430 O.2    83  ARG83      -0.2864
    113  CB       -18.7120   27.9240   95.1270 C.3    83  ARG83       0.0334
    114  CG       -19.9080   27.0140   94.9500 C.3    83  ARG83       0.0492
    115  CD       -20.2450   26.2930   96.2660 C.3    83  ARG83       0.2205
    116  NE       -19.0850   25.5660   96.8280 N.pl3  83  ARG83      -0.0865
    117  CZ       -18.6530   24.3670   96.4100 C.cat  83  ARG83       0.5346
    118  NH1      -19.2850   23.7170   95.4350 N.pl3  83  ARG83       0.1354
    119  NH2      -17.5930   23.8090   96.9890 N.pl3  83  ARG83       0.1354
    120  N         -8.9550   21.9970   81.8060 N.3   101  ASN101     -0.1225
    121  CA        -7.6870   21.4300   82.2730 C.3   101  ASN101      0.1785
    122  C         -7.4630   21.9950   83.6570 C.2   101  ASN101      0.2597
    123  O         -6.9170   23.0870   83.8320 O.2   101  ASN101     -0.2718
    124  CB        -6.5820   21.7490   81.3200 C.3   101  ASN101      0.1169
    125  CG        -6.7440   21.0410   79.9930 C.2   101  ASN101      0.2627
    126  OD1       -7.3990   19.9950   79.8930 O.2   101  ASN101     -0.2716
    127  ND2       -6.1130   21.5580   78.9950 N.am  101  ASN101     -0.0877
    128  N         -7.9770   21.2660   84.6400 N.am  102  ALA102     -0.1966
    129  CA        -7.9900   21.7530   86.0270 C.3   102  ALA102      0.1728
    130  C         -6.6460   21.5840   86.6800 C.2   102  ALA102      0.2616
    131  O         -6.0410   20.5230   86.5840 O.2   102  ALA102     -0.2715
    132  CB        -9.0130   20.9800   86.8300 C.3   102  ALA102      0.0334
    133  N         -6.1980   22.5960   87.4110 N.am  103  GLN103     -0.1977
    134  CA        -5.0530   22.3680   88.2880 C.3   103  GLN103      0.1601
    135  C         -5.4180   21.3380   89.3540 C.2   103  GLN103      0.2287
    136  O         -6.5070   21.3750   89.9390 O.2   103  GLN103     -0.2864
    137  CB        -4.6000   23.6630   88.9400 C.3   103  GLN103      0.0394
    138  CG        -4.1440   24.7190   87.9520 C.3   103  GLN103      0.0908
    139  CD        -3.4900   25.9080   88.6170 C.2   103  GLN103      0.2608
    140  OE1       -3.1980   25.9130   89.8200 O.2   103  GLN103     -0.2717
    141  NE2       -3.2680   26.9410   87.8330 N.am  103  GLN103     -0.0878
    142  N         -4.7260   20.8300   92.4010 N.3   105  HIS105     -0.1226
    143  CA        -5.1070   21.2680   93.7710 C.3   105  HIS105      0.1752
    144  C         -6.5770   21.5930   93.8780 C.2   105  HIS105      0.2595
    145  O         -7.1360   21.5360   94.9600 O.2   105  HIS105     -0.2718
    146  CB        -4.2770   22.4530   94.2250 C.3   105  HIS105      0.0759
    147  CG        -4.5960   23.7100   93.4980 C.ar  105  HIS105      0.0818
    148  ND1       -5.5990   24.5600   93.9000 N.ar  105  HIS105     -0.2268
    149  CD2       -4.0600   24.2530   92.3840 C.ar  105  HIS105      0.1154
    150  CE1       -5.6780   25.5700   93.0530 C.ar  105  HIS105      0.1986
    151  NE2       -4.7590   25.4100   92.1260 N.ar  105  HIS105     -0.2212
    152  N         -7.1920   21.9080   92.7260 N.am  106  ALA106     -0.1980
    153  CA        -8.6040   22.2730   92.6720 C.3   106  ALA106      0.1597
    154  C         -9.5470   21.1040   92.4040 C.2   106  ALA106      0.2287
    155  O        -10.7370   21.2950   92.3470 O.2   106  ALA106     -0.2864
    156  CB        -8.8070   23.3720   91.6400 C.3   106  ALA106      0.0319
    157  N        -10.8360   18.6550   94.3450 N.2   108  PRO108     -0.2571
    158  CA       -11.9920   18.5260   95.2410 C.3   108  PRO108      0.2026
    159  C        -13.0350   19.6210   95.0610 C.2   108  PRO108      0.2683
    160  O        -14.2340   19.3570   95.1230 O.2   108  PRO108     -0.2709
    161  CB       -11.3860   18.5810   96.6500 C.2   108  PRO108      0.0085
    162  CG        -9.9330   18.4950   96.4860 C.2   108  PRO108      0.0180
    163  CD        -9.5520   18.6700   95.0650 C.2   108  PRO108      0.0938
    164  N        -12.5820   20.8410   94.8290 N.am  109  PHE109     -0.1955
    165  CA       -13.4710   21.9670   94.5440 C.3   109  PHE109      0.1771
    166  C        -14.3100   21.6430   93.3060 C.2   109  PHE109      0.2619
    167  O        -15.5360   21.7340   93.3300 O.2   109  PHE109     -0.2715
    168  CB       -12.6350   23.2390   94.3610 C.3   109  PHE109      0.0574
    169  CG       -13.3740   24.4170   93.7630 C.ar  109  PHE109     -0.0200
    170  CD1      -14.4260   24.9810   94.3960 C.ar  109  PHE109     -0.0042
    171  CD2      -12.9690   24.9540   92.5530 C.ar  109  PHE109     -0.0042
    172  CE1      -15.0610   26.0800   93.8430 C.ar  109  PHE109     -0.0003
    173  CE2      -13.5990   26.0480   92.0050 C.ar  109  PHE109     -0.0003
    174  CZ       -14.6460   26.6020   92.6670 C.ar  109  PHE109     -0.0000
    175  N        -13.6610   21.2310   92.2270 N.am  110  TYR110     -0.1974
    176  CA       -14.4180   20.9440   91.0040 C.3   110  TYR110      0.1639
    177  C        -15.3060   19.7070   91.1270 C.2   110  TYR110      0.2290
    178  O        -16.4040   19.6820   90.5700 O.2   110  TYR110     -0.2864
    179  CB       -13.5030   20.8630   89.7890 C.3   110  TYR110      0.0560
    180  CG       -12.8360   22.2160   89.4420 C.ar  110  TYR110     -0.0198
    181  CD1      -13.5890   23.3580   89.2460 C.ar  110  TYR110     -0.0009
    182  CD2      -11.4970   22.3020   89.1830 C.ar  110  TYR110     -0.0009
    183  CE1      -12.9900   24.5580   88.9170 C.ar  110  TYR110      0.0417
    184  CE2      -10.8920   23.4800   88.8170 C.ar  110  TYR110      0.0417
    185  CZ       -11.6300   24.6190   88.7180 C.ar  110  TYR110      0.1957
    186  OH       -11.0300   25.7970   88.3520 O.3   110  TYR110     -0.2866
    187  N        -16.8960   18.9500   93.7500 N.3   112  SER112     -0.1217
    188  CA       -18.0820   19.4360   94.5070 C.3   112  SER112      0.1889
    189  C        -19.0920   20.1390   93.5890 C.2   112  SER112      0.2288
    190  O        -20.2470   20.3160   93.9690 O.2   112  SER112     -0.2866
    191  CB       -17.6750   20.3630   95.6550 C.3   112  SER112      0.2089
    192  OG       -17.3600   21.6450   95.2220 O.3   112  SER112     -0.2183
@<TRIPOS>BOND
     1    47    45    1
     2   127   125   am
     3    46    45    1
     4    45    44    2
     5   126   125    2
     6   125   124    1
     7    44    43    1
     8   124   121    1
     9    42    43    1
    10    42    41    1
    11   120   121    1
    12   121   122    1
    13    41    38    1
    14    37    38    1
    15    38    39    1
    16   122   123    2
    17   122   128   am
    18   128   129    1
    19    39    40    2
    20    39    48   am
    21    48    49    1
    22    15    17   ar
    23    15    13   ar
    24    17    18   ar
    25    12    13    1
    26    12     9    1
    27    54    52    1
    28    13    14   ar
    29   129   130    1
    30   129   132    1
    31    18    16   ar
    32   131   130    2
    33    49    52    1
    34    49    50    1
    35    14    16   ar
    36   130   133   am
    37    52    53    1
    38    10    11    2
    39    10     9    1
    40     9     8    1
    41   133   134    1
    42    50    51    2
    43    50    55   am
    44   141   139   am
    45   138   139    1
    46   138   137    1
    47     8     3   am
    48    55    56    1
    49   134   137    1
    50   134   135    1
    51   186   185    1
    52   139   140    2
    53    59    56    1
    54   185   184   ar
    55   185   183   ar
    56   184   182   ar
    57    31    30    2
    58    35    34    2
    59   183   181   ar
    60    30    29    1
    61   182   180   ar
    62   181   180   ar
    63    56    57    1
    64     3     4    2
    65     3     2    1
    66   135   136    2
    67   180   179    1
    68    32    29    1
    69    32    33    1
    70     1     2    1
    71    58    57    2
    72   179   176    1
    73     5     2    1
    74     5     6    1
    75     5     7    1
    76    34    33    1
    77    34    36   am
    78    29    28    1
    79    57    60   am
    80    28    21   am
    81   178   177    2
    82   176   177    1
    83   176   175    1
    84    19    20    1
    85    60    61    1
    86   156   153    1
    87    21    20    1
    88    21    22    2
    89   108   107    2
    90   173   171   ar
    91   173   174   ar
    92   112   111    2
    93   151   149   ar
    94   151   150   ar
    95    20    23    1
    96   175   166   am
    97   155   154    2
    98   149   147   ar
    99   142   143    1
   100   154   153    1
   101    61    62    1
   102    61    64    1
   103   171   169   ar
   104   174   172   ar
   105   153   152    1
   106   152   144   am
   107    23    24    1
   108    66    64    1
   109   111   110    1
   110   150   148   ar
   111   107   106    1
   112   107   109   am
   113    62    63    2
   114   166   167    2
   115   166   165    1
   116   147   148   ar
   117   147   146    1
   118   106   105    1
   119    64    65    1
   120   189   190    2
   121   189   188    1
   122   187   188    1
   123   169   168    1
   124   169   170   ar
   125    24    25    1
   126   143   144    1
   127   143   146    1
   128    26    25   ar
   129   110   109    1
   130   110   113    1
   131   172   170   ar
   132   144   145    2
   133    87    85    1
   134    25    27   ar
   135   157   163    2
   136   157   158    1
   137   168   165    1
   138   188   191    1
   139   165   164    1
   140   164   159   am
   141   114   113    1
   142   114   115    1
   143   159   160    2
   144   159   158    1
   145    85    84    2
   146    85    86    1
   147   163   162    1
   148   192   191    1
   149   158   161    1
   150    84    83    1
   151   118   117    1
   152   104   103    2
   153   115   116    1
   154   117   116    2
   155   117   119    1
   156   162   161    2
   157    83    82    1
   158    82    81    1
   159   103   102    1
   160    71    72    1
   161    71    68    1
   162    72    73   ar
   163    72    74   ar
   164    73    75   ar
   165    74    76   ar
   166    75    76   ar
   167    70    69    2
   168    81    78    1
   169    69    68    1
   170    69    77   am
   171    67    68    1
   172   102   101    1
   173    77    78    1
   174    78    79    1
   175   101    94   am
   176    88    79   am
   177    88    89    1
   178   100    98   am
   179    79    80    2
   180    94    95    2
   181    94    93    1
   182    97    98    1
   183    97    96    1
   184    92    93    1
   185    92    90   am
   186    98    99    2
   187    89    90    1
   188    93    96    1
   189    90    91    2
