@<TRIPOS>MOLECULE
tmp/5jphB00.pdb
 210 202 0 0 0
SMALL
GASTEIGER

@<TRIPOS>ATOM
      1  N         -2.3250   34.2910   87.9770 N.3    23  PHE23      -0.1241
      2  CA        -1.5490   33.3220   87.2060 C.3    23  PHE23       0.1605
      3  C         -0.0780   33.7200   87.0450 C.2    23  PHE23       0.2264
      4  O          0.7980   32.8690   87.1330 O.2    23  PHE23      -0.2867
      5  CB        -2.2230   33.0430   85.8610 C.3    23  PHE23       0.0534
      6  CG        -3.5590   32.3860   86.0210 C.ar   23  PHE23      -0.0203
      7  CD1       -3.6500   31.1660   86.6590 C.ar   23  PHE23      -0.0042
      8  CD2       -4.7160   33.0080   85.6110 C.ar   23  PHE23      -0.0042
      9  CE1       -4.8720   30.5390   86.8340 C.ar   23  PHE23      -0.0003
     10  CE2       -5.9470   32.3930   85.7870 C.ar   23  PHE23      -0.0003
     11  CZ        -6.0190   31.1580   86.4050 C.ar   23  PHE23      -0.0000
     12  N          3.2080   31.8090   85.8600 N.3    29  ILE29      -0.1245
     13  CA         2.9910   31.6920   84.4140 C.3    29  ILE29       0.1561
     14  C          3.7810   32.8580   83.7750 C.2    29  ILE29       0.2260
     15  O          3.6630   34.0000   84.2170 O.2    29  ILE29      -0.2867
     16  CB         1.4890   31.8000   84.0080 C.3    29  ILE29       0.0252
     17  CG1        0.6150   30.6850   84.6190 C.3    29  ILE29       0.0019
     18  CG2        1.3030   31.8410   82.4810 C.3    29  ILE29       0.0019
     19  CD1        1.0690   29.2980   84.3560 C.3    29  ILE29       0.0001
     20  N          2.6220   34.8090   78.1160 N.3    33  SER33      -0.1202
     21  CA         1.7010   33.7000   77.8140 C.3    33  SER33       0.2020
     22  C          0.3020   33.8570   78.3940 C.2    33  SER33       0.2618
     23  O         -0.5860   33.1050   78.0460 O.2    33  SER33      -0.2717
     24  CB         2.3010   32.4040   78.3210 C.3    33  SER33       0.2103
     25  OG         3.5210   32.1120   77.6450 O.3    33  SER33      -0.2182
     26  N          0.1250   34.8370   79.2700 N.am   34  GLU34      -0.1979
     27  CA        -1.1400   34.9930   79.9860 C.3    34  GLU34       0.1602
     28  C         -2.2860   35.3360   79.0340 C.2    34  GLU34       0.2287
     29  O         -3.3480   34.7100   79.0540 O.2    34  GLU34      -0.2864
     30  CB        -1.0180   36.0510   81.0950 C.3    34  GLU34       0.0415
     31  CG        -1.9860   35.8280   82.2500 C.3    34  GLU34       0.1163
     32  CD        -3.4350   35.8080   81.8260 C.2    34  GLU34       0.3649
     33  OE1       -3.8880   36.8190   81.2220 O.co2  34  GLU34      -0.2457
     34  OE2       -4.1390   34.7920   82.0740 O.co2  34  GLU34      -0.2457
     35  N         -3.7190   35.4380   75.2930 N.3    36  ASP36      -0.1225
     36  CA        -3.4900   34.6540   74.0830 C.3    36  ASP36       0.1805
     37  C         -4.3440   35.1730   72.9320 C.2    36  ASP36       0.2598
     38  O         -4.9580   36.2240   73.0480 O.2    36  ASP36      -0.2718
     39  CB        -3.6360   33.1600   74.3820 C.3    36  ASP36       0.1424
     40  CG        -5.0360   32.7770   74.7760 C.2    36  ASP36       0.3668
     41  OD1       -6.0000   33.5230   74.4290 O.co2  36  ASP36      -0.2456
     42  OD2       -5.1780   31.7270   75.4250 O.co2  36  ASP36      -0.2456
     43  N         -4.3830   34.4150   71.8400 N.am   37  GLU37      -0.1965
     44  CA        -5.0910   34.8150   70.6400 C.3    37  GLU37       0.1733
     45  C         -6.5830   34.4730   70.6500 C.2    37  GLU37       0.2616
     46  O         -7.2760   34.6970   69.6600 O.2    37  GLU37      -0.2715
     47  CB        -4.3890   34.1860   69.4130 C.3    37  GLU37       0.0429
     48  CG        -4.4160   32.6450   69.3530 C.3    37  GLU37       0.1163
     49  CD        -3.1550   31.9510   69.8850 C.2    37  GLU37       0.3649
     50  OE1       -2.6980   32.2610   71.0200 O.co2  37  GLU37      -0.2457
     51  OE2       -2.6480   31.0420   69.1800 O.co2  37  GLU37      -0.2457
     52  N         -7.0730   33.9740   71.7840 N.am   38  TYR38      -0.1974
     53  CA        -8.4430   33.5040   71.9280 C.3    38  TYR38       0.1639
     54  C         -9.3170   34.4030   72.7900 C.2    38  TYR38       0.2290
     55  O        -10.4610   34.0700   73.0550 O.2    38  TYR38      -0.2864
     56  CB        -8.4510   32.0730   72.4810 C.3    38  TYR38       0.0560
     57  CG        -7.7470   31.0840   71.5880 C.ar   38  TYR38      -0.0198
     58  CD1       -6.3920   30.8450   71.7170 C.ar   38  TYR38      -0.0009
     59  CD2       -8.4470   30.3800   70.6160 C.ar   38  TYR38      -0.0009
     60  CE1       -5.7410   29.9390   70.8880 C.ar   38  TYR38       0.0417
     61  CE2       -7.8200   29.4600   69.8020 C.ar   38  TYR38       0.0417
     62  CZ        -6.4640   29.2470   69.9360 C.ar   38  TYR38       0.1957
     63  OH        -5.8460   28.3410   69.1300 O.3    38  TYR38      -0.2866
     64  N        -13.0340   32.5230   81.7760 N.3    58  ARG58      -0.1245
     65  CA       -13.4920   32.5980   80.4020 C.3    58  ARG58       0.1563
     66  C        -14.0030   31.2670   79.9200 C.2    58  ARG58       0.2260
     67  O        -13.5610   30.1910   80.3780 O.2    58  ARG58      -0.2867
     68  CB       -12.4660   33.1960   79.4530 C.3    58  ARG58       0.0307
     69  CG       -11.4220   32.2550   78.9880 C.3    58  ARG58       0.0489
     70  CD       -10.4210   32.9320   78.0480 C.3    58  ARG58       0.2205
     71  NE        -9.5590   31.9160   77.4680 N.pl3  58  ARG58      -0.0865
     72  CZ        -8.4850   32.1470   76.7200 C.cat  58  ARG58       0.5346
     73  NH1       -8.1070   33.3860   76.4300 N.pl3  58  ARG58       0.1354
     74  NH2       -7.8170   31.1180   76.2140 N.pl3  58  ARG58       0.1354
     75  N        -14.4150   29.2960   76.3550 N.3    60  ARG60      -0.1245
     76  CA       -13.8800   29.2890   75.0100 C.3    60  ARG60       0.1563
     77  C        -14.5280   28.1870   74.1960 C.2    60  ARG60       0.2260
     78  O        -14.2720   27.0030   74.4390 O.2    60  ARG60      -0.2867
     79  CB       -12.3630   29.1070   75.0390 C.3    60  ARG60       0.0307
     80  CG       -11.7520   29.1780   73.6580 C.3    60  ARG60       0.0489
     81  CD       -10.2640   29.2820   73.6930 C.3    60  ARG60       0.2205
     82  NE        -9.6470   28.1480   74.3610 N.pl3  60  ARG60      -0.0865
     83  CZ        -9.2960   27.0020   73.7810 C.cat  60  ARG60       0.5346
     84  NH1       -9.5200   26.7770   72.4800 N.pl3  60  ARG60       0.1354
     85  NH2       -8.7400   26.0470   74.5240 N.pl3  60  ARG60       0.1354
     86  N        -14.4310   25.1020   76.5240 N.3    68  LYS68      -0.1231
     87  CA       -13.3530   24.9640   77.5020 C.3    68  LYS68       0.1693
     88  C        -13.5300   26.0530   78.5410 C.2    68  LYS68       0.2592
     89  O        -13.7480   27.2130   78.1800 O.2    68  LYS68      -0.2718
     90  CB       -12.0050   25.1510   76.8270 C.3    68  LYS68       0.0285
     91  CG       -11.5800   24.0280   75.9110 C.3    68  LYS68       0.0035
     92  CD       -10.6010   23.0680   76.5850 C.3    68  LYS68       0.0206
     93  CE       -10.0990   22.0560   75.5530 C.3    68  LYS68       0.1093
     94  NZ        -9.0910   21.0790   76.0590 N.3    68  LYS68      -0.1314
     95  N        -13.4150   25.7030   79.8040 N.am   69  ILE69      -0.1966
     96  CA       -13.4320   26.6880   80.8820 C.3    69  ILE69       0.1727
     97  C        -11.9740   26.9740   81.2190 C.2    69  ILE69       0.2616
     98  O        -11.1940   26.0530   81.4820 O.2    69  ILE69      -0.2715
     99  CB       -14.2010   26.1840   82.1190 C.3    69  ILE69       0.0290
    100  CG1      -15.6520   25.8730   81.7490 C.3    69  ILE69       0.0022
    101  CG2      -14.1380   27.2050   83.2460 C.3    69  ILE69       0.0023
    102  CD1      -16.4230   25.1760   82.8440 C.3    69  ILE69       0.0001
    103  N        -11.6220   28.2470   81.2380 N.am   70  GLU70      -0.1963
    104  CA       -10.2380   28.6570   81.3660 C.3    70  GLU70       0.1733
    105  C        -10.1050   29.8720   82.2710 C.2    70  GLU70       0.2616
    106  O        -11.0940   30.5640   82.5510 O.2    70  GLU70      -0.2715
    107  CB        -9.6230   28.9410   79.9740 C.3    70  GLU70       0.0429
    108  CG        -9.4480   27.6800   79.1690 C.3    70  GLU70       0.1163
    109  CD        -9.0020   27.8990   77.7350 C.2    70  GLU70       0.3649
    110  OE1       -9.3670   28.9450   77.1360 O.co2  70  GLU70      -0.2457
    111  OE2       -8.3490   26.9860   77.1700 O.co2  70  GLU70      -0.2457
    112  N         -8.8910   30.1010   82.7450 N.am   71  ARG71      -0.1963
    113  CA        -8.5510   31.3430   83.4980 C.3    71  ARG71       0.1729
    114  C         -9.4000   31.5500   84.7580 C.2    71  ARG71       0.2616
    115  O         -9.6700   32.6610   85.1420 O.2    71  ARG71      -0.2715
    116  CB        -8.6010   32.5730   82.6010 C.3    71  ARG71       0.0348
    117  CG        -7.7250   32.5100   81.3690 C.3    71  ARG71       0.0492
    118  CD        -6.2580   32.3670   81.6930 C.3    71  ARG71       0.2205
    119  NE        -5.4500   32.6730   80.5150 N.pl3  71  ARG71      -0.0865
    120  CZ        -5.4110   31.9370   79.4140 C.cat  71  ARG71       0.5346
    121  NH1       -6.0680   30.7960   79.3380 N.pl3  71  ARG71       0.1354
    122  NH2       -4.7080   32.3530   78.3750 N.pl3  71  ARG71       0.1354
    123  N         -9.7430   30.4600   85.4320 N.am   72  VAL72      -0.1977
    124  CA       -10.5960   30.5340   86.6320 C.3    72  VAL72       0.1596
    125  C         -9.7480   31.0930   87.7840 C.2    72  VAL72       0.2287
    126  O         -8.7830   30.4450   88.2290 O.2    72  VAL72      -0.2864
    127  CB       -11.1480   29.1450   87.0120 C.3    72  VAL72       0.0276
    128  CG1      -11.9060   29.2020   88.3220 C.3    72  VAL72       0.0022
    129  CG2      -12.0460   28.6160   85.9110 C.3    72  VAL72       0.0022
    130  N         -8.9550   21.9970   81.8060 N.3   101  ASN101     -0.1225
    131  CA        -7.6870   21.4300   82.2730 C.3   101  ASN101      0.1785
    132  C         -7.4630   21.9950   83.6570 C.2   101  ASN101      0.2597
    133  O         -6.9170   23.0870   83.8320 O.2   101  ASN101     -0.2718
    134  CB        -6.5820   21.7490   81.3200 C.3   101  ASN101      0.1169
    135  CG        -6.7440   21.0410   79.9930 C.2   101  ASN101      0.2627
    136  OD1       -7.3990   19.9950   79.8930 O.2   101  ASN101     -0.2716
    137  ND2       -6.1130   21.5580   78.9950 N.am  101  ASN101     -0.0877
    138  N         -7.9770   21.2660   84.6400 N.am  102  ALA102     -0.1966
    139  CA        -7.9900   21.7530   86.0270 C.3   102  ALA102      0.1728
    140  C         -6.6460   21.5840   86.6800 C.2   102  ALA102      0.2616
    141  O         -6.0410   20.5230   86.5840 O.2   102  ALA102     -0.2715
    142  CB        -9.0130   20.9800   86.8300 C.3   102  ALA102      0.0334
    143  N         -6.1980   22.5960   87.4110 N.am  103  GLN103     -0.1977
    144  CA        -5.0530   22.3680   88.2880 C.3   103  GLN103      0.1601
    145  C         -5.4180   21.3380   89.3540 C.2   103  GLN103      0.2287
    146  O         -6.5070   21.3750   89.9390 O.2   103  GLN103     -0.2864
    147  CB        -4.6000   23.6630   88.9400 C.3   103  GLN103      0.0394
    148  CG        -4.1440   24.7190   87.9520 C.3   103  GLN103      0.0908
    149  CD        -3.4900   25.9080   88.6170 C.2   103  GLN103      0.2608
    150  OE1       -3.1980   25.9130   89.8200 O.2   103  GLN103     -0.2717
    151  NE2       -3.2680   26.9410   87.8330 N.am  103  GLN103     -0.0878
    152  N        -13.6610   21.2310   92.2270 N.3   110  TYR110     -0.1241
    153  CA       -14.4180   20.9440   91.0040 C.3   110  TYR110      0.1605
    154  C        -15.3060   19.7070   91.1270 C.2   110  TYR110      0.2264
    155  O        -16.4040   19.6820   90.5700 O.2   110  TYR110     -0.2867
    156  CB       -13.5030   20.8630   89.7890 C.3   110  TYR110      0.0534
    157  CG       -12.8360   22.2160   89.4420 C.ar  110  TYR110     -0.0201
    158  CD1      -13.5890   23.3580   89.2460 C.ar  110  TYR110     -0.0009
    159  CD2      -11.4970   22.3020   89.1830 C.ar  110  TYR110     -0.0009
    160  CE1      -12.9900   24.5580   88.9170 C.ar  110  TYR110      0.0417
    161  CE2      -10.8920   23.4800   88.8170 C.ar  110  TYR110      0.0417
    162  CZ       -11.6300   24.6190   88.7180 C.ar  110  TYR110      0.1957
    163  OH       -11.0300   25.7970   88.3520 O.3   110  TYR110     -0.2866
    164  N         -0.9940   15.8560   83.8520 N.3   121  PHE121     -0.1241
    165  CA        -0.0100   16.4440   82.9570 C.3   121  PHE121      0.1605
    166  C          0.4530   17.7760   83.5140 C.2   121  PHE121      0.2264
    167  O         -0.3170   18.4950   84.1440 O.2   121  PHE121     -0.2867
    168  CB        -0.5320   16.5930   81.5200 C.3   121  PHE121      0.0534
    169  CG        -1.8100   17.3810   81.3820 C.ar  121  PHE121     -0.0203
    170  CD1       -3.0360   16.7560   81.5640 C.ar  121  PHE121     -0.0042
    171  CD2       -1.8010   18.7330   81.0770 C.ar  121  PHE121     -0.0042
    172  CE1       -4.2260   17.4500   81.4330 C.ar  121  PHE121     -0.0003
    173  CE2       -2.9880   19.4340   80.9420 C.ar  121  PHE121     -0.0003
    174  CZ        -4.2040   18.7880   81.1400 C.ar  121  PHE121     -0.0000
    175  N          1.7710   21.5760   82.9920 N.3   123  GLU123     -0.1231
    176  CA         1.8780   22.7560   82.1450 C.3   123  GLU123      0.1699
    177  C          2.3680   23.8950   83.0090 C.2   123  GLU123      0.2592
    178  O          1.8420   24.1200   84.0980 O.2   123  GLU123     -0.2718
    179  CB         0.5510   23.1360   81.5030 C.3   123  GLU123      0.0402
    180  CG        -0.0140   22.1190   80.5340 C.3   123  GLU123      0.1161
    181  CD         0.7890   21.9710   79.2490 C.2   123  GLU123      0.3649
    182  OE1        1.6030   22.8590   78.9150 O.co2 123  GLU123     -0.2457
    183  OE2        0.5840   20.9530   78.5470 O.co2 123  GLU123     -0.2457
    184  N          3.4100   24.5850   82.5280 N.am  124  GLU124     -0.1979
    185  CA         4.0200   25.6770   83.2760 C.3   124  GLU124      0.1602
    186  C          4.3950   25.2730   84.7090 C.2   124  GLU124      0.2287
    187  O          4.2590   26.0310   85.6630 O.2   124  GLU124     -0.2864
    188  CB         3.1140   26.9050   83.2560 C.3   124  GLU124      0.0415
    189  CG         2.8270   27.4500   81.8530 C.3   124  GLU124      0.1163
    190  CD         4.0400   28.0010   81.1280 C.2   124  GLU124      0.3649
    191  OE1        5.0970   28.1990   81.7620 O.co2 124  GLU124     -0.2457
    192  OE2        3.9400   28.2550   79.9100 O.co2 124  GLU124     -0.2457
    193  N          2.9460   23.1730   86.6990 N.3   126  ILE126     -0.1245
    194  CA         1.8070   22.9270   87.5320 C.3   126  ILE126      0.1561
    195  C          1.1170   21.6610   87.0400 C.2   126  ILE126      0.2260
    196  O          0.8950   21.4780   85.8550 O.2   126  ILE126     -0.2867
    197  CB         0.8340   24.1300   87.4630 C.3   126  ILE126      0.0252
    198  CG1        1.5120   25.3890   88.0150 C.3   126  ILE126      0.0019
    199  CG2       -0.4610   23.8490   88.2190 C.3   126  ILE126      0.0019
    200  CD1        0.7720   26.6670   87.6870 C.3   126  ILE126      0.0001
    201  N         -1.9250   19.2660   86.2990 N.3   128  HIS128     -0.1241
    202  CA        -3.3100   19.3830   85.8340 C.3   128  HIS128      0.1621
    203  C         -3.9190   18.0190   85.5450 C.2   128  HIS128      0.2264
    204  O         -3.2170   17.0400   85.3260 O.2   128  HIS128     -0.2867
    205  CB        -3.4030   20.1610   84.5080 C.3   128  HIS128      0.0745
    206  CG        -2.9650   21.5810   84.5810 C.ar  128  HIS128      0.0817
    207  ND1       -1.6470   21.9580   84.6850 N.ar  128  HIS128     -0.2268
    208  CD2       -3.6770   22.7300   84.5200 C.ar  128  HIS128      0.1154
    209  CE1       -1.5600   23.2720   84.6600 C.ar  128  HIS128      0.1986
    210  NE2       -2.7800   23.7680   84.5940 N.ar  128  HIS128     -0.2212
@<TRIPOS>BOND
     1    63    62    1
     2    51    49   ar
     3    48    47    1
     4    48    49    1
     5    47    44    1
     6    46    45    2
     7    61    62   ar
     8    61    59   ar
     9    49    50   ar
    10    62    60   ar
    11    59    57   ar
    12    44    45    1
    13    44    43    1
    14    45    52   am
    15    60    58   ar
    16    57    58   ar
    17    57    56    1
    18    52    53    1
    19    43    37   am
    20    53    56    1
    21    53    54    1
    22    84    83    1
    23    54    55    2
    24    37    38    2
    25    37    36    1
    26    80    81    1
    27    80    79    1
    28    81    82    1
    29    83    82    2
    30    83    85    1
    31    36    39    1
    32    36    35    1
    33    77    78    2
    34    77    76    1
    35    39    40    1
    36    41    40   ar
    37    40    42   ar
    38    76    79    1
    39    76    75    1
    40    93    94    1
    41    93    92    1
    42    91    92    1
    43    91    90    1
    44    74    72    1
    45    73    72    1
    46    86    87    1
    47    72    71    2
    48    90    87    1
    49   110   109   ar
    50   111   109   ar
    51    71    70    1
    52    87    88    1
    53    25    24    1
    54   109   108    1
    55    21    20    1
    56    21    24    1
    57    21    22    1
    58    23    22    2
    59    70    69    1
    60    89    88    2
    61   122   120    1
    62    22    26   am
    63    88    95   am
    64   183   181   ar
    65   182   181   ar
    66    69    68    1
    67   137   135   am
    68    28    29    2
    69    28    27    1
    70   108   107    1
    71   181   180    1
    72    26    27    1
    73   121   120    1
    74   120   119    2
    75    68    65    1
    76    95    96    1
    77   136   135    2
    78   192   190   ar
    79    66    67    2
    80    66    65    1
    81   107   104    1
    82    27    30    1
    83   135   134    1
    84    65    64    1
    85   119   118    1
    86   180   179    1
    87    96    97    1
    88    96    99    1
    89   173   171   ar
    90   173   174   ar
    91   171   169   ar
    92    30    31    1
    93   190   191   ar
    94   190   189    1
    95   174   172   ar
    96    97   103   am
    97    97    98    2
    98    33    32   ar
    99   103   104    1
   100   134   131    1
   101   104   105    1
   102   117   118    1
   103   117   116    1
   104   169   168    1
   105   169   170   ar
   106   172   170   ar
   107   179   176    1
   108   168   165    1
   109   100    99    1
   110   100   102    1
   111   130   131    1
   112    32    34   ar
   113    32    31    1
   114   189   188    1
   115    99   101    1
   116   176   175    1
   117   176   177    1
   118   105   106    2
   119   105   112   am
   120   131   132    1
   121    18    16    1
   122   184   177   am
   123   184   185    1
   124   116   113    1
   125   112   113    1
   126   165   166    1
   127   165   164    1
   128   177   178    2
   129   188   185    1
   130   185   186    1
   131   113   114    1
   132   166   167    2
   133   132   133    2
   134   132   138   am
   135    14    15    2
   136    14    13    1
   137    16    13    1
   138    16    17    1
   139    19    17    1
   140    13    12    1
   141   205   206    1
   142   205   202    1
   143   208   206   ar
   144   208   210   ar
   145   206   207   ar
   146   210   209   ar
   147   138   139    1
   148   209   207   ar
   149   186   187    2
   150   114   115    2
   151   114   123   am
   152   204   203    2
   153   123   124    1
   154   203   202    1
   155     8    10   ar
   156     8     6   ar
   157    10    11   ar
   158   202   201    1
   159   196   195    2
   160     5     6    1
   161     5     2    1
   162   129   127    1
   163     6     7   ar
   164   139   140    1
   165   139   142    1
   166    11     9   ar
   167   141   140    2
   168   124   127    1
   169   124   125    1
   170     7     9   ar
   171   140   143   am
   172   193   194    1
   173   127   128    1
   174   195   194    1
   175     3     4    2
   176     3     2    1
   177     2     1    1
   178   143   144    1
   179   197   194    1
   180   197   198    1
   181   197   199    1
   182   200   198    1
   183   125   126    2
   184   151   149   am
   185   148   149    1
   186   148   147    1
   187   144   147    1
   188   144   145    1
   189   163   162    1
   190   149   150    2
   191   162   161   ar
   192   162   160   ar
   193   161   159   ar
   194   160   158   ar
   195   159   157   ar
   196   158   157   ar
   197   145   146    2
   198   157   156    1
   199   156   153    1
   200   155   154    2
   201   153   154    1
   202   153   152    1
