@<TRIPOS>MOLECULE
tmp/5jpiA01.pdb
 164 155 0 0 0
SMALL
GASTEIGER

@<TRIPOS>ATOM
      1  N         21.4720  -24.1900  -29.0740 N.3    53  LEU53      -0.1231
      2  CA        22.4640  -25.0190  -28.4350 C.3    53  LEU53       0.1693
      3  C         22.5470  -24.6720  -26.9450 C.2    53  LEU53       0.2592
      4  O         22.6360  -23.4790  -26.5660 O.2    53  LEU53      -0.2718
      5  CB        23.8050  -24.7970  -29.1540 C.3    53  LEU53       0.0284
      6  CG        24.9950  -25.7230  -28.8890 C.3    53  LEU53       0.0019
      7  CD1       26.0190  -25.6170  -30.0010 C.3    53  LEU53       0.0001
      8  CD2       25.6300  -25.4320  -27.5350 C.3    53  LEU53       0.0001
      9  N         22.4830  -25.7320  -26.1210 N.am   54  HIS54      -0.1976
     10  CA        22.5010  -25.6610  -24.6440 C.3    54  HIS54       0.1656
     11  C         23.2250  -24.4060  -24.1560 C.2    54  HIS54       0.2291
     12  O         24.4500  -24.3130  -24.3030 O.2    54  HIS54      -0.2864
     13  CB        23.2130  -26.8750  -24.0860 C.3    54  HIS54       0.0771
     14  CG        22.7350  -28.1890  -24.6260 C.ar   54  HIS54       0.0820
     15  ND1       21.5390  -28.7620  -24.2540 N.ar   54  HIS54      -0.2267
     16  CD2       23.3260  -29.0690  -25.4640 C.ar   54  HIS54       0.1154
     17  CE1       21.4060  -29.9310  -24.8530 C.ar   54  HIS54       0.1986
     18  NE2       22.4750  -30.1410  -25.5950 N.ar   54  HIS54      -0.2212
     19  N         25.0240  -22.8240  -21.8510 N.3    56  THR56      -0.1218
     20  CA        25.8940  -23.0100  -20.7170 C.3    56  THR56       0.1862
     21  C         27.0040  -21.9500  -20.7430 C.2    56  THR56       0.2287
     22  O         27.1210  -21.1910  -21.6980 O.2    56  THR56      -0.2866
     23  CB        26.6100  -24.3700  -20.8100 C.3    56  THR56       0.1770
     24  OG1       27.4260  -24.4060  -21.9950 O.3    56  THR56      -0.2211
     25  CG2       25.6210  -25.4930  -20.8690 C.3    56  THR56       0.0375
     26  N         30.0960  -22.5950  -21.1710 N.3    58  GLU58      -0.1231
     27  CA        30.9360  -22.9100  -22.3350 C.3    58  GLU58       0.1699
     28  C         30.3620  -22.2960  -23.6180 C.2    58  GLU58       0.2592
     29  O         31.0770  -21.6870  -24.4160 O.2    58  GLU58      -0.2718
     30  CB        31.1350  -24.4230  -22.4830 C.3    58  GLU58       0.0402
     31  CG        31.9180  -25.0570  -21.3360 C.3    58  GLU58       0.1161
     32  CD        31.1550  -25.1800  -20.0130 C.2    58  GLU58       0.3649
     33  OE1       29.9010  -25.1100  -20.0010 O.co2  58  GLU58      -0.2457
     34  OE2       31.8180  -25.3780  -18.9740 O.co2  58  GLU58      -0.2457
     35  N         29.0620  -22.4500  -23.8020 N.am   59  THR59      -0.1953
     36  CA        28.3800  -21.8890  -24.9630 C.3    59  THR59       0.1897
     37  C         28.4610  -20.3530  -24.9990 C.2    59  THR59       0.2313
     38  O         28.5600  -19.7740  -26.0830 O.2    59  THR59      -0.2863
     39  CB        26.9240  -22.3300  -25.0080 C.3    59  THR59       0.1794
     40  OG1       26.8640  -23.7640  -25.1410 O.3    59  THR59      -0.2208
     41  CG2       26.1960  -21.6650  -26.1650 C.3    59  THR59       0.0378
     42  N         22.1880  -27.7790  -32.6440 N.3   138  ASP138     -0.1239
     43  CA        22.5800  -28.9210  -31.8100 C.3   138  ASP138      0.1674
     44  C         21.3160  -29.7640  -31.6040 C.2   138  ASP138      0.2266
     45  O         20.4520  -29.4010  -30.8090 O.2   138  ASP138     -0.2867
     46  CB        23.1720  -28.4310  -30.4800 C.3   138  ASP138      0.1410
     47  CG        23.6900  -29.5720  -29.5840 C.2   138  ASP138      0.3668
     48  OD1       23.2970  -30.7500  -29.7610 O.co2 138  ASP138     -0.2456
     49  OD2       24.4940  -29.2790  -28.6700 O.co2 138  ASP138     -0.2456
     50  N         26.0690  -29.8430  -34.5630 N.3   212  GLU212     -0.1231
     51  CA        26.9190  -30.3060  -33.4720 C.3   212  GLU212      0.1699
     52  C         26.8920  -31.7830  -33.1060 C.2   212  GLU212      0.2592
     53  O         27.9100  -32.3180  -32.7350 O.2   212  GLU212     -0.2718
     54  CB        26.4620  -29.5490  -32.2060 C.3   212  GLU212      0.0402
     55  CG        27.2490  -29.7730  -30.9160 C.3   212  GLU212      0.1161
     56  CD        28.5890  -29.0280  -30.8520 C.2   212  GLU212      0.3649
     57  OE1       29.3560  -29.2740  -29.8880 O.co2 212  GLU212     -0.2457
     58  OE2       28.8650  -28.1930  -31.7400 O.co2 212  GLU212     -0.2457
     59  N         25.7430  -32.4370  -33.1850 N.am  213  THR213     -0.1953
     60  CA        25.6390  -33.7760  -32.6070 C.3   213  THR213      0.1897
     61  C         25.1350  -34.8890  -33.5350 C.2   213  THR213      0.2313
     62  O         24.5150  -34.6490  -34.5710 O.2   213  THR213     -0.2863
     63  CB        24.8320  -33.6840  -31.2580 C.3   213  THR213      0.1794
     64  OG1       25.1310  -34.7990  -30.3910 O.3   213  THR213     -0.2208
     65  CG2       23.3500  -33.5730  -31.5000 C.3   213  THR213      0.0378
     66  N         36.1410  -33.4380  -32.2860 N.3   242  LYS242     -0.1245
     67  CA        34.8190  -33.3160  -31.6840 C.3   242  LYS242      0.1561
     68  C         34.3930  -34.7050  -31.1730 C.2   242  LYS242      0.2260
     69  O         34.4470  -34.9640  -29.9700 O.2   242  LYS242     -0.2867
     70  CB        33.8020  -32.7640  -32.6840 C.3   242  LYS242      0.0271
     71  CG        32.4900  -32.2540  -32.0790 C.3   242  LYS242      0.0035
     72  CD        31.6780  -33.3390  -31.4150 C.3   242  LYS242      0.0206
     73  CE        30.3770  -32.7880  -30.8770 C.3   242  LYS242      0.1093
     74  NZ        29.4690  -33.8640  -30.4020 N.3   242  LYS242     -0.1314
     75  N         34.8560  -34.7230  -27.0880 N.3   246  ASP246     -0.1225
     76  CA        33.5960  -34.3080  -26.4940 C.3   246  ASP246      0.1805
     77  C         32.7160  -35.5060  -26.1750 C.2   246  ASP246      0.2597
     78  O         32.3810  -35.7460  -25.0150 O.2   246  ASP246     -0.2718
     79  CB        32.9150  -33.3530  -27.4820 C.3   246  ASP246      0.1424
     80  CG        31.4700  -32.9930  -27.1430 C.2   246  ASP246      0.3668
     81  OD1       30.7050  -33.8110  -26.5800 O.co2 246  ASP246     -0.2456
     82  OD2       31.0750  -31.8690  -27.5520 O.co2 246  ASP246     -0.2456
     83  N         32.3510  -36.2720  -27.1910 N.am  247  ASN247     -0.1974
     84  CA        31.4230  -37.3910  -26.9730 C.3   247  ASN247      0.1688
     85  C         31.9090  -38.4330  -25.9500 C.2   247  ASN247      0.2292
     86  O         31.1090  -38.9410  -25.1630 O.2   247  ASN247     -0.2864
     87  CB        31.0970  -38.0990  -28.2840 C.3   247  ASN247      0.1181
     88  CG        30.5140  -37.1630  -29.3400 C.2   247  ASN247      0.2629
     89  OD1       30.7900  -35.9660  -29.3670 O.2   247  ASN247     -0.2716
     90  ND2       29.7080  -37.7210  -30.2230 N.am  247  ASN247     -0.0877
     91  N         20.7330  -37.5200  -26.9410 N.3   357  HIS357     -0.1241
     92  CA        20.2120  -36.1520  -27.1640 C.3   357  HIS357      0.1621
     93  C         18.7280  -35.9490  -26.8570 C.2   357  HIS357      0.2264
     94  O         18.3340  -34.8990  -26.3170 O.2   357  HIS357     -0.2867
     95  CB        20.5010  -35.6530  -28.5830 C.3   357  HIS357      0.0745
     96  CG        20.0590  -34.2450  -28.8040 C.ar  357  HIS357      0.0817
     97  ND1       20.8350  -33.1590  -28.4600 N.ar  357  HIS357     -0.2268
     98  CD2       18.8860  -33.7420  -29.2600 C.ar  357  HIS357      0.1154
     99  CE1       20.1710  -32.0430  -28.7280 C.ar  357  HIS357      0.1986
    100  NE2       18.9860  -32.3690  -29.2140 N.ar  357  HIS357     -0.2212
    101  N         18.7500  -35.4740  -21.2330 N.3   402  LEU402     -0.1245
    102  CA        20.1980  -35.7200  -21.1180 C.3   402  LEU402      0.1561
    103  C         20.7200  -35.3410  -19.7200 C.2   402  LEU402      0.2260
    104  O         20.7880  -34.1660  -19.3390 O.2   402  LEU402     -0.2867
    105  CB        20.9710  -35.1100  -22.2920 C.3   402  LEU402      0.0270
    106  CG        21.1550  -33.6340  -22.5280 C.3   402  LEU402      0.0019
    107  CD1       21.8200  -33.4820  -23.8990 C.3   402  LEU402      0.0001
    108  CD2       19.8570  -32.8460  -22.4800 C.3   402  LEU402      0.0001
    109  N         23.5920  -35.3410  -18.0070 N.3   404  ASN404     -0.1225
    110  CA        24.7620  -34.5420  -17.7000 C.3   404  ASN404      0.1785
    111  C         24.4660  -33.0260  -17.7430 C.2   404  ASN404      0.2597
    112  O         25.1410  -32.2540  -17.0620 O.2   404  ASN404     -0.2718
    113  CB        25.9250  -34.9060  -18.6330 C.3   404  ASN404      0.1169
    114  CG        25.6060  -34.6630  -20.0980 C.2   404  ASN404      0.2627
    115  OD1       24.4660  -34.8450  -20.5480 O.2   404  ASN404     -0.2716
    116  ND2       26.6160  -34.2910  -20.8550 N.am  404  ASN404     -0.0877
    117  N         23.4640  -32.6260  -18.5300 N.am  405  LEU405     -0.1980
    118  CA        23.0510  -31.2080  -18.6730 C.3   405  LEU405      0.1596
    119  C         21.7870  -30.8650  -17.9050 C.2   405  LEU405      0.2287
    120  O         21.5620  -29.6900  -17.5710 O.2   405  LEU405     -0.2864
    121  CB        22.8430  -30.8630  -20.1380 C.3   405  LEU405      0.0297
    122  CG        24.1390  -30.7020  -20.9160 C.3   405  LEU405      0.0022
    123  CD1       23.9650  -31.0130  -22.3840 C.3   405  LEU405      0.0001
    124  CD2       24.6620  -29.2970  -20.7090 C.3   405  LEU405      0.0001
    125  N         26.0470  -29.5840  -14.9240 N.3   409  THR409     -0.1203
    126  CA        26.4180  -28.4560  -15.7900 C.3   409  THR409      0.1994
    127  C         27.0550  -28.8210  -17.1460 C.2   409  THR409      0.2618
    128  O         27.6380  -27.9680  -17.8110 O.2   409  THR409     -0.2717
    129  CB        27.3940  -27.5430  -15.0280 C.3   409  THR409      0.1784
    130  OG1       28.5200  -28.3250  -14.6040 O.3   409  THR409     -0.2211
    131  CG2       26.7130  -26.9500  -13.8330 C.3   409  THR409      0.0376
    132  N         26.9540  -30.0880  -17.5390 N.am  410  GLY410     -0.1942
    133  CA        27.4660  -30.5380  -18.8150 C.3   410  GLY410      0.2014
    134  C         28.9570  -30.7560  -18.8340 C.2   410  GLY410      0.2638
    135  O         29.5990  -30.7210  -17.8060 O.2   410  GLY410     -0.2714
    136  N         29.4970  -30.9860  -20.0260 N.am  411  HIS411     -0.1973
    137  CA        30.9340  -31.1680  -20.2000 C.3   411  HIS411      0.1656
    138  C         31.7260  -29.9500  -19.7380 C.2   411  HIS411      0.2291
    139  O         31.2310  -28.8330  -19.8190 O.2   411  HIS411     -0.2864
    140  CB        31.3240  -31.3760  -21.6700 C.3   411  HIS411      0.0771
    141  CG        30.7000  -32.5570  -22.3310 C.ar  411  HIS411      0.0820
    142  ND1       30.0610  -33.5650  -21.6390 N.ar  411  HIS411     -0.2267
    143  CD2       30.7490  -32.9600  -23.6200 C.ar  411  HIS411      0.1154
    144  CE1       29.6690  -34.4960  -22.4920 C.ar  411  HIS411      0.1986
    145  NE2       30.0800  -34.1530  -23.6980 N.ar  411  HIS411     -0.2212
    146  N         34.7070  -28.7510  -24.6020 N.3   416  MET416     -0.1245
    147  CA        33.7390  -27.9020  -25.2960 C.3   416  MET416      0.1570
    148  C         34.4550  -26.9040  -26.2060 C.2   416  MET416      0.2261
    149  O         33.9300  -26.5660  -27.2700 O.2   416  MET416     -0.2867
    150  CB        32.7480  -27.2010  -24.3570 C.3   416  MET416      0.0387
    151  CG        31.7980  -28.1520  -23.6440 C.3   416  MET416      0.0595
    152  SD        31.1370  -29.4760  -24.6790 S.3   416  MET416     -0.1393
    153  CE        30.3610  -28.5100  -25.9640 C.3   416  MET416      0.0692
    154  N         33.6890  -26.3440  -29.9440 N.3   420  PHE420     -0.1241
    155  CA        33.2650  -25.0010  -30.3470 C.3   420  PHE420      0.1605
    156  C         34.2310  -24.3100  -31.2980 C.2   420  PHE420      0.2264
    157  O         33.8100  -23.4790  -32.1100 O.2   420  PHE420     -0.2867
    158  CB        32.8790  -24.1290  -29.1390 C.3   420  PHE420      0.0534
    159  CG        31.6650  -24.6250  -28.3820 C.ar  420  PHE420     -0.0203
    160  CD1       30.7010  -25.4450  -28.9830 C.ar  420  PHE420     -0.0042
    161  CD2       31.4240  -24.1780  -27.0950 C.ar  420  PHE420     -0.0042
    162  CE1       29.5710  -25.8460  -28.2820 C.ar  420  PHE420     -0.0003
    163  CE2       30.2880  -24.5730  -26.4010 C.ar  420  PHE420     -0.0003
    164  CZ        29.3650  -25.3960  -26.9950 C.ar  420  PHE420     -0.0000
@<TRIPOS>BOND
     1    62    61    2
     2    50    51    1
     3    61    60    1
     4    51    52    1
     5    51    54    1
     6    59    52   am
     7    59    60    1
     8    52    53    2
     9    70    71    1
    10    70    67    1
    11    42    43    1
    12    60    63    1
    13    66    67    1
    14    54    55    1
    15   157   156    2
    16    71    72    1
    17    43    44    1
    18    43    46    1
    19    58    56   ar
    20    67    68    1
    21    44    45    2
    22    65    63    1
    23    72    73    1
    24   156   155    1
    25    63    64    1
    26    68    69    2
    27    55    56    1
    28    73    74    1
    29    56    57   ar
    30    46    47    1
    31   155   154    1
    32   155   158    1
    33    90    88   am
    34     7     6    1
    35    48    47   ar
    36    47    49   ar
    37    89    88    2
    38    88    87    1
    39    98   100   ar
    40    98    96   ar
    41   100    99   ar
    42     5     6    1
    43     5     2    1
    44   158   159    1
    45     1     2    1
    46   160   159   ar
    47   160   162   ar
    48     6     8    1
    49    96    95    1
    50    96    97   ar
    51    99    97   ar
    52    95    92    1
    53     2     3    1
    54   159   161   ar
    55    87    84    1
    56   162   164   ar
    57    82    80   ar
    58    79    80    1
    59    79    76    1
    60   149   148    2
    61    83    84    1
    62    83    77   am
    63    92    91    1
    64    92    93    1
    65    80    81   ar
    66   161   163   ar
    67    75    76    1
    68   164   163   ar
    69    84    85    1
    70     3     4    2
    71     3     9   am
    72    93    94    2
    73    76    77    1
    74   148   147    1
    75    77    78    2
    76    41    39    1
    77     9    10    1
    78    38    37    2
    79   153   152    1
    80    85    86    2
    81    18    16   ar
    82    18    17   ar
    83    16    14   ar
    84   147   146    1
    85   147   150    1
    86    40    39    1
    87    39    36    1
    88    37    36    1
    89    36    35    1
    90    17    15   ar
    91   152   151    1
    92    10    11    1
    93    10    13    1
    94    14    15   ar
    95    14    13    1
    96    29    28    2
    97   150   151    1
    98    12    11    2
    99   107   106    1
   100    35    28   am
   101   145   143   ar
   102   145   144   ar
   103   143   141   ar
   104    28    27    1
   105   106   108    1
   106   106   105    1
   107   144   142   ar
   108    30    27    1
   109    30    31    1
   110   123   122    1
   111    27    26    1
   112   141   140    1
   113   141   142   ar
   114   105   102    1
   115    24    23    1
   116    19    20    1
   117    22    21    2
   118   140   137    1
   119    31    32    1
   120   101   102    1
   121   102   103    1
   122   122   124    1
   123   122   121    1
   124    25    23    1
   125   116   114   am
   126    23    20    1
   127    21    20    1
   128   115   114    2
   129   137   136    1
   130   137   138    1
   131   121   118    1
   132   114   113    1
   133   136   134   am
   134    32    33   ar
   135    32    34   ar
   136   139   138    2
   137   103   104    2
   138   134   133    1
   139   134   135    2
   140   133   132    1
   141   118   117    1
   142   118   119    1
   143   113   110    1
   144   117   111   am
   145   109   110    1
   146   119   120    2
   147   128   127    2
   148   111   110    1
   149   111   112    2
   150   132   127   am
   151   127   126    1
   152   126   129    1
   153   126   125    1
   154   129   130    1
   155   129   131    1
