@<TRIPOS>MOLECULE
tmp/5jpnB01.pdb
 74 71 0 0 0
SMALL
GASTEIGER

@<TRIPOS>ATOM
      1  N        -49.0830   26.3780   33.0210 N.3   500  MET500     -0.1230
      2  CA       -49.9270   26.9650   31.9840 C.3   500  MET500      0.1702
      3  C        -49.3030   28.2180   31.3800 C.2   500  MET500      0.2592
      4  O        -49.5270   28.5080   30.1990 O.2   500  MET500     -0.2718
      5  CB       -51.3110   27.2890   32.5480 C.3   500  MET500      0.0401
      6  CG       -52.1090   26.0750   32.9870 C.3   500  MET500      0.0596
      7  SD       -52.3460   24.8930   31.6490 S.3   500  MET500     -0.1393
      8  CE       -53.1010   25.9460   30.4130 C.3   500  MET500      0.0692
      9  N        -48.5290   28.9720   32.1640 N.am  501  ALA501     -0.1966
     10  CA       -47.8840   30.1780   31.6560 C.3   501  ALA501      0.1728
     11  C        -46.8090   29.8840   30.6170 C.2   501  ALA501      0.2616
     12  O        -46.3720   30.8120   29.9280 O.2   501  ALA501     -0.2715
     13  CB       -47.2800   30.9780   32.8110 C.3   501  ALA501      0.0334
     14  N        -46.3740   28.6320   30.4890 N.am  502  MET502     -0.1963
     15  CA       -45.3980   28.2330   29.4820 C.3   502  MET502      0.1736
     16  C        -46.0360   27.5850   28.2610 C.2   502  MET502      0.2616
     17  O        -45.3120   27.1450   27.3620 O.2   502  MET502     -0.2715
     18  CB       -44.3730   27.2710   30.0910 C.3   502  MET502      0.0427
     19  CG       -43.3170   27.9440   30.9480 C.3   502  MET502      0.0599
     20  SD       -42.1650   26.7660   31.6790 S.3   502  MET502     -0.1393
     21  CE       -43.2330   25.9420   32.8560 C.3   502  MET502      0.0692
     22  N        -47.3620   27.5170   28.2040 N.am  503  ALA503     -0.1963
     23  CA       -48.0310   26.8270   27.1100 C.3   503  ALA503      0.1728
     24  C        -47.9720   27.6450   25.8260 C.2   503  ALA503      0.2616
     25  O        -48.0750   28.8740   25.8430 O.2   503  ALA503     -0.2715
     26  CB       -49.4860   26.5390   27.4750 C.3   503  ALA503      0.0334
     27  N        -47.8020   26.9480   24.7060 N.am  504  GLN504     -0.1963
     28  CA       -47.9080   27.5350   23.3790 C.3   504  GLN504      0.1733
     29  C        -49.1800   27.0290   22.7130 C.2   504  GLN504      0.2616
     30  O        -49.5220   25.8470   22.8270 O.2   504  GLN504     -0.2715
     31  CB       -46.6920   27.1930   22.5150 C.3   504  GLN504      0.0408
     32  CG       -45.3890   27.7970   23.0100 C.3   504  GLN504      0.0908
     33  CD       -44.2750   27.6940   21.9860 C.2   504  GLN504      0.2608
     34  OE1      -43.5510   26.6990   21.9350 O.2   504  GLN504     -0.2717
     35  NE2      -44.1350   28.7250   21.1600 N.am  504  GLN504     -0.0878
     36  N        -49.8800   27.9240   22.0230 N.am  505  GLU505     -0.1977
     37  CA       -51.1650   27.6030   21.4210 C.3   505  GLU505      0.1602
     38  C        -51.1750   28.0220   19.9600 C.2   505  GLU505      0.2287
     39  O        -50.6260   29.0680   19.6000 O.2   505  GLU505     -0.2864
     40  CB       -52.3130   28.2900   22.1740 C.3   505  GLU505      0.0415
     41  CG       -53.6970   27.9740   21.6290 C.3   505  GLU505      0.1163
     42  CD       -54.8070   28.5420   22.4910 C.2   505  GLU505      0.3649
     43  OE1      -55.9880   28.4060   22.1070 O.co2 505  GLU505     -0.2457
     44  OE2      -54.4980   29.1210   23.5540 O.co2 505  GLU505     -0.2457
     45  N        -52.8000   22.8780   21.6060 N.3   510  LEU510     -0.1245
     46  CA       -52.1070   23.4030   22.7760 C.3   510  LEU510      0.1561
     47  C        -50.9720   22.4510   23.1210 C.2   510  LEU510      0.2260
     48  O        -51.1990   21.2480   23.2800 O.2   510  LEU510     -0.2867
     49  CB       -53.0650   23.5490   23.9650 C.3   510  LEU510      0.0270
     50  CG       -52.5320   24.2070   25.2390 C.3   510  LEU510      0.0019
     51  CD1      -52.3160   25.7000   25.0320 C.3   510  LEU510      0.0001
     52  CD2      -53.4720   23.9520   26.4090 C.3   510  LEU510      0.0001
     53  N        -49.8970   37.4330   20.9040 N.3   525  PRO525     -0.2102
     54  CA       -49.6060   37.0010   22.2880 C.3   525  PRO525      0.1504
     55  C        -49.8150   35.5200   22.5780 C.2   525  PRO525      0.2576
     56  O        -48.9490   34.9020   23.2120 O.2   525  PRO525     -0.2718
     57  CB       -50.5480   37.8820   23.1160 C.3   525  PRO525      0.0282
     58  CG       -50.6200   39.1450   22.3320 C.3   525  PRO525      0.0208
     59  CD       -50.5960   38.7330   20.8830 C.3   525  PRO525      0.0893
     60  N        -50.9260   34.9250   22.1440 N.am  526  THR526     -0.1953
     61  CA       -51.1460   33.5250   22.5050 C.3   526  THR526      0.1897
     62  C        -51.2930   32.5870   21.3030 C.2   526  THR526      0.2313
     63  O        -50.7920   31.4570   21.3660 O.2   526  THR526     -0.2863
     64  CB       -52.3500   33.4020   23.4560 C.3   526  THR526      0.1794
     65  OG1      -51.8950   32.9290   24.7330 O.3   526  THR526     -0.2208
     66  CG2      -53.4050   32.4300   22.9310 C.3   526  THR526      0.0378
     67  N        -58.8790   23.0050   27.4860 N.3   563  MET563     -0.1245
     68  CA       -57.4360   22.8070   27.5770 C.3   563  MET563      0.1570
     69  C        -57.0600   21.3480   27.3430 C.2   563  MET563      0.2261
     70  O        -56.0490   21.0580   26.6940 O.2   563  MET563     -0.2867
     71  CB       -56.9270   23.2910   28.9340 C.3   563  MET563      0.0387
     72  CG       -57.0600   24.7910   29.1350 C.3   563  MET563      0.0595
     73  SD       -56.6190   25.3220   30.7990 S.3   563  MET563     -0.1393
     74  CE       -56.8070   27.0950   30.6390 C.3   563  MET563      0.0692
@<TRIPOS>BOND
     1    39    38    2
     2    38    37    1
     3    59    53    1
     4    59    58    1
     5    53    54    1
     6    35    33   am
     7    62    63    2
     8    62    61    1
     9    37    36    1
    10    37    40    1
    11    45    46    1
    12    41    40    1
    13    41    42    1
    14    34    33    2
    15    33    32    1
    16    36    29   am
    17    43    42   ar
    18    60    61    1
    19    60    55   am
    20    54    55    1
    21    54    57    1
    22    58    57    1
    23    42    44   ar
    24    61    64    1
    25    31    32    1
    26    31    28    1
    27    55    56    2
    28    29    30    2
    29    29    28    1
    30    46    47    1
    31    46    49    1
    32    66    64    1
    33    47    48    2
    34    28    27    1
    35    64    65    1
    36    49    50    1
    37    27    24   am
    38    51    50    1
    39    50    52    1
    40    24    25    2
    41    24    23    1
    42    70    69    2
    43    23    26    1
    44    23    22    1
    45    69    68    1
    46    17    16    2
    47    67    68    1
    48    68    71    1
    49    22    16   am
    50    16    15    1
    51    71    72    1
    52    72    73    1
    53    15    18    1
    54    15    14    1
    55    12    11    2
    56    18    19    1
    57     4     3    2
    58     8     7    1
    59    14    11   am
    60    11    10    1
    61    74    73    1
    62    19    20    1
    63     3     2    1
    64     3     9   am
    65     7     6    1
    66    10     9    1
    67    10    13    1
    68    20    21    1
    69     2     5    1
    70     2     1    1
    71     5     6    1
