@<TRIPOS>MOLECULE
tmp/5jptB00.pdb
 178 167 0 0 0
SMALL
GASTEIGER

@<TRIPOS>ATOM
      1  N         18.0030    7.2180   17.3570 N.3    87  ILE87      -0.1245
      2  CA        18.9120    6.3960   18.1470 C.3    87  ILE87       0.1561
      3  C         20.3790    6.6930   17.8470 C.2    87  ILE87       0.2260
      4  O         21.1540    6.9940   18.7560 O.2    87  ILE87      -0.2867
      5  CB        18.6570    4.8940   17.9090 C.3    87  ILE87       0.0252
      6  CG1       17.3040    4.4830   18.4870 C.3    87  ILE87       0.0019
      7  CG2       19.7640    4.0420   18.5290 C.3    87  ILE87       0.0019
      8  CD1       16.7390    3.2270   17.8650 C.3    87  ILE87       0.0001
      9  N         25.1880    8.5180   19.2380 N.3    91  LEU91      -0.1245
     10  CA        26.5440    8.0170   19.0920 C.3    91  LEU91       0.1561
     11  C         27.5210    9.1770   19.2850 C.2    91  LEU91       0.2260
     12  O         27.1770   10.3240   18.9960 O.2    91  LEU91      -0.2867
     13  CB        26.7400    7.3600   17.7240 C.3    91  LEU91       0.0270
     14  CG        25.9770    6.0560   17.4710 C.3    91  LEU91       0.0019
     15  CD1       26.1260    5.6340   16.0280 C.3    91  LEU91       0.0001
     16  CD2       26.4490    4.9490   18.3860 C.3    91  LEU91       0.0001
     17  N         36.6870    4.6350   20.4260 N.3   115  GLU115     -0.1231
     18  CA        36.3660    3.3240   20.9840 C.3   115  GLU115      0.1699
     19  C         35.3860    2.5550   20.1060 C.2   115  GLU115      0.2593
     20  O         34.5980    3.1480   19.3710 O.2   115  GLU115     -0.2718
     21  CB        35.7590    3.4590   22.3810 C.3   115  GLU115      0.0402
     22  CG        36.7170    3.8710   23.4720 C.3   115  GLU115      0.1161
     23  CD        36.0040    4.0400   24.8030 C.2   115  GLU115      0.3649
     24  OE1       34.7540    4.1210   24.7940 O.co2 115  GLU115     -0.2457
     25  OE2       36.6830    4.0840   25.8530 O.co2 115  GLU115     -0.2457
     26  N         35.4500    1.2300   20.1820 N.am  116  THR116     -0.1939
     27  CA        34.4360    0.3860   19.5700 C.3   116  THR116      0.2028
     28  C         33.0580    0.7640   20.0890 C.2   116  THR116      0.2643
     29  O         32.8300    0.8230   21.3000 O.2   116  THR116     -0.2714
     30  CB        34.6920   -1.1040   19.8610 C.3   116  THR116      0.1808
     31  OG1       35.9470   -1.5000   19.2950 O.3   116  THR116     -0.2208
     32  CG2       33.5900   -1.9690   19.2830 C.3   116  THR116      0.0379
     33  N         32.1470    1.0250   19.1600 N.am  117  GLY117     -0.1939
     34  CA        30.7870    1.3960   19.4950 C.3   117  GLY117      0.2014
     35  C         30.5480    2.8880   19.3750 C.2   117  GLY117      0.2640
     36  O         29.4220    3.3500   19.5570 O.2   117  GLY117     -0.2714
     37  N         31.6020    3.6450   19.0810 N.am  118  SER118     -0.1935
     38  CA        31.4760    5.0950   18.9560 C.3   118  SER118      0.2055
     39  C         30.7820    5.4880   17.6460 C.2   118  SER118      0.2644
     40  O         30.3280    6.6200   17.5030 O.2   118  SER118     -0.2714
     41  CB        32.8470    5.7770   19.0690 C.3   118  SER118      0.2130
     42  OG        33.7690    5.2690   18.1240 O.3   118  SER118     -0.2179
     43  N         30.6870    4.5570   16.6990 N.am  119  GLY119     -0.1939
     44  CA        29.9630    4.8090   15.4610 C.3   119  GLY119      0.2014
     45  C         30.7890    5.1570   14.2360 C.2   119  GLY119      0.2639
     46  O         30.2510    5.6950   13.2710 O.2   119  GLY119     -0.2714
     47  N         32.0870    4.8710   14.2740 N.am  120  LYS120     -0.1963
     48  CA        32.9630    5.1060   13.1250 C.3   120  LYS120      0.1728
     49  C         32.4230    4.4640   11.8400 C.2   120  LYS120      0.2617
     50  O         32.0560    5.1620   10.8920 O.2   120  LYS120     -0.2715
     51  CB        34.3730    4.5760   13.4090 C.3   120  LYS120      0.0311
     52  CG        35.0440    5.2120   14.6200 C.3   120  LYS120      0.0038
     53  CD        36.4950    4.7810   14.7670 C.3   120  LYS120      0.0206
     54  CE        36.6180    3.3190   15.1520 C.3   120  LYS120      0.1093
     55  NZ        36.0320    3.0390   16.4900 N.3   120  LYS120     -0.1314
     56  N         32.3680    3.1350   11.8230 N.am  121  THR121     -0.1937
     57  CA        32.0660    2.3780   10.6090 C.3   121  THR121      0.2028
     58  C         30.6830    2.6840   10.0240 C.2   121  THR121      0.2642
     59  O         30.5170    2.7200    8.8090 O.2   121  THR121     -0.2714
     60  CB        32.1670    0.8600   10.8710 C.3   121  THR121      0.1808
     61  OG1       33.3640    0.5750   11.6050 O.3   121  THR121     -0.2208
     62  CG2       32.1920    0.0890    9.5690 C.3   121  THR121      0.0379
     63  N         29.6910    2.8770   10.8860 N.am  122  THR122     -0.1950
     64  CA        28.3170    3.1080   10.4380 C.3   122  THR122      0.1897
     65  C         28.0400    4.5510   10.0060 C.2   122  THR122      0.2313
     66  O         27.3150    4.7850    9.0390 O.2   122  THR122     -0.2863
     67  CB        27.3070    2.7550   11.5420 C.3   122  THR122      0.1794
     68  OG1       27.6970    3.3910   12.7660 O.3   122  THR122     -0.2208
     69  CG2       27.2250    1.2450   11.7460 C.3   122  THR122      0.0378
     70  N         27.6430   -7.5760    7.8080 N.3   153  SER153     -0.1202
     71  CA        26.7350   -7.2250    8.8880 C.3   153  SER153      0.2020
     72  C         26.4620   -5.7200    8.9330 C.2   153  SER153      0.2618
     73  O         25.3120   -5.2960    9.0470 O.2   153  SER153     -0.2717
     74  CB        27.3060   -7.7000   10.2240 C.3   153  SER153      0.2103
     75  OG        26.4170   -7.4130   11.2890 O.3   153  SER153     -0.2182
     76  N         27.5160   -4.9140    8.8590 N.am  154  VAL154     -0.1979
     77  CA        27.3660   -3.4620    8.9130 C.3   154  VAL154      0.1595
     78  C         26.6650   -2.9650    7.6540 C.2   154  VAL154      0.2287
     79  O         25.9880   -1.9360    7.6700 O.2   154  VAL154     -0.2864
     80  CB        28.7300   -2.7490    9.0690 C.3   154  VAL154      0.0276
     81  CG1       28.5580   -1.2390    9.0660 C.3   154  VAL154      0.0022
     82  CG2       29.4080   -3.1740   10.3590 C.3   154  VAL154      0.0022
     83  N         23.1160   -3.1970    8.1370 N.3   157  ARG157     -0.1245
     84  CA        22.7140   -2.1670    9.0850 C.3   157  ARG157      0.1563
     85  C         22.5510   -0.7960    8.4280 C.2   157  ARG157      0.2260
     86  O         21.5110   -0.1550    8.5650 O.2   157  ARG157     -0.2867
     87  CB        23.7420   -2.0920   10.2190 C.3   157  ARG157      0.0307
     88  CG        23.5150   -0.9950   11.2410 C.3   157  ARG157      0.0489
     89  CD        22.2250   -1.2390   12.0010 C.3   157  ARG157      0.2205
     90  NE        21.7990   -0.0760   12.7720 N.pl3 157  ARG157     -0.0865
     91  CZ        20.7440   -0.0660   13.5790 C.cat 157  ARG157      0.5346
     92  NH1       19.9970   -1.1570   13.7180 N.pl3 157  ARG157      0.1354
     93  NH2       20.4330    1.0360   14.2450 N.pl3 157  ARG157      0.1354
     94  N         19.6820    2.0680    7.9030 N.3   161  GLU161     -0.1245
     95  CA        19.8450    3.4230    8.4180 C.3   161  GLU161      0.1567
     96  C         19.6840    4.4680    7.3180 C.2   161  GLU161      0.2260
     97  O         19.2860    5.6010    7.5840 O.2   161  GLU161     -0.2867
     98  CB        21.2100    3.5860    9.0990 C.3   161  GLU161      0.0388
     99  CG        21.3360    2.8070   10.4060 C.3   161  GLU161      0.1160
    100  CD        22.6420    3.0610   11.1450 C.2   161  GLU161      0.3649
    101  OE1       23.4810    3.8310   10.6380 O.co2 161  GLU161     -0.2457
    102  OE2       22.8340    2.4730   12.2310 O.co2 161  GLU161     -0.2457
    103  N         39.3500   -0.0930   10.8710 N.3   214  GLU214     -0.1245
    104  CA        39.9050   -1.1040   11.7700 C.3   214  GLU214      0.1567
    105  C         41.3650   -1.3410   11.4530 C.2   214  GLU214      0.2260
    106  O         41.8310   -2.4770   11.4060 O.2   214  GLU214     -0.2867
    107  CB        39.1200   -2.4140   11.6820 C.3   214  GLU214      0.0388
    108  CG        37.6590   -2.2660   12.0560 C.3   214  GLU214      0.1160
    109  CD        37.4680   -2.1430   13.5530 C.2   214  GLU214      0.3649
    110  OE1       37.8430   -3.0850   14.2850 O.co2 214  GLU214     -0.2457
    111  OE2       36.9650   -1.0920   14.0010 O.co2 214  GLU214     -0.2457
    112  N         22.9240  -12.0210   11.5670 N.3   352  GLN352     -0.1245
    113  CA        22.0520  -11.0060   12.1540 C.3   352  GLN352      0.1566
    114  C         21.2430  -11.5260   13.3460 C.2   352  GLN352      0.2260
    115  O         20.5780  -10.7520   14.0360 O.2   352  GLN352     -0.2867
    116  CB        21.1000  -10.4520   11.0860 C.3   352  GLN352      0.0367
    117  CG        21.7990   -9.7990    9.9060 C.3   352  GLN352      0.0905
    118  CD        22.8980   -8.8390   10.3260 C.2   352  GLN352      0.2608
    119  OE1       24.0690   -9.0390   10.0030 O.2   352  GLN352     -0.2717
    120  NE2       22.5270   -7.7910   11.0490 N.am  352  GLN352     -0.0878
    121  N         21.7440  -10.0470   17.0520 N.3   355  PHE355     -0.1241
    122  CA        21.1550   -8.7720   17.4520 C.3   355  PHE355      0.1605
    123  C         19.7140   -8.9250   17.9300 C.2   355  PHE355      0.2264
    124  O         19.0890   -7.9500   18.3540 O.2   355  PHE355     -0.2867
    125  CB        21.2180   -7.7770   16.2930 C.3   355  PHE355      0.0534
    126  CG        22.6100   -7.5150   15.8010 C.ar  355  PHE355     -0.0203
    127  CD1       23.4510   -6.6670   16.5000 C.ar  355  PHE355     -0.0042
    128  CD2       23.0810   -8.1210   14.6520 C.ar  355  PHE355     -0.0042
    129  CE1       24.7330   -6.4210   16.0590 C.ar  355  PHE355     -0.0003
    130  CE2       24.3640   -7.8800   14.2040 C.ar  355  PHE355     -0.0003
    131  CZ        25.1920   -7.0280   14.9110 C.ar  355  PHE355     -0.0000
    132  N         36.6160   -5.9120   18.3960 N.3   379  THR379     -0.1203
    133  CA        36.5490   -4.5410   17.8740 C.3   379  THR379      0.1994
    134  C         35.5150   -4.3290   16.7550 C.2   379  THR379      0.2619
    135  O         34.7790   -3.3460   16.7670 O.2   379  THR379     -0.2717
    136  CB        37.9170   -4.0790   17.3580 C.3   379  THR379      0.1784
    137  OG1       38.4920   -5.1090   16.5420 O.3   379  THR379     -0.2211
    138  CG2       38.8390   -3.7630   18.5330 C.3   379  THR379      0.0376
    139  N         35.4970   -5.2250   15.7700 N.am  380  SER380     -0.1937
    140  CA        34.8550   -4.9650   14.4740 C.3   380  SER380      0.2055
    141  C         33.3650   -4.6040   14.5310 C.2   380  SER380      0.2643
    142  O         32.8920   -3.8410   13.6880 O.2   380  SER380     -0.2714
    143  CB        35.0230   -6.1820   13.5630 C.3   380  SER380      0.2130
    144  OG        33.8540   -6.9850   13.5570 O.3   380  SER380     -0.2179
    145  N         32.6190   -5.1650   15.4790 N.am  381  LEU381     -0.1963
    146  CA        31.2020   -4.8260   15.6120 C.3   381  LEU381      0.1728
    147  C         30.7590   -4.8040   17.0710 C.2   381  LEU381      0.2616
    148  O         31.4790   -5.2680   17.9580 O.2   381  LEU381     -0.2715
    149  CB        30.3350   -5.7970   14.8010 C.3   381  LEU381      0.0311
    150  CG        30.3690   -7.2950   15.0990 C.3   381  LEU381      0.0022
    151  CD1       29.6100   -7.6450   16.3590 C.3   381  LEU381      0.0001
    152  CD2       29.7960   -8.0570   13.9200 C.3   381  LEU381      0.0001
    153  N         29.5730   -4.2450   17.3080 N.am  382  THR382     -0.1951
    154  CA        29.0160   -4.1300   18.6510 C.3   382  THR382      0.1897
    155  C         27.6120   -4.7210   18.7170 C.2   382  THR382      0.2313
    156  O         26.8070   -4.5350   17.8010 O.2   382  THR382     -0.2863
    157  CB        28.9590   -2.6530   19.0930 C.3   382  THR382      0.1794
    158  OG1       30.2750   -2.0920   19.0750 O.3   382  THR382     -0.2208
    159  CG2       28.3800   -2.5100   20.4950 C.3   382  THR382      0.0378
    160  N         24.2420   -4.6110   21.0080 N.3   384  ASP384     -0.1239
    161  CA        23.5780   -3.8570   22.0640 C.3   384  ASP384      0.1674
    162  C         23.0270   -4.7830   23.1460 C.2   384  ASP384      0.2266
    163  O         22.3940   -5.8010   22.8510 O.2   384  ASP384     -0.2867
    164  CB        22.4580   -2.9910   21.4870 C.3   384  ASP384      0.1410
    165  CG        22.9820   -1.8150   20.6750 C.2   384  ASP384      0.3668
    166  OD1       24.1510   -1.4140   20.8740 O.co2 384  ASP384     -0.2456
    167  OD2       22.2170   -1.2840   19.8400 O.co2 384  ASP384     -0.2456
    168  N         29.5470   -1.0320   27.5880 N.3   428  ARG428     -0.1245
    169  CA        28.8870   -0.2480   26.5530 C.3   428  ARG428      0.1563
    170  C         27.6130    0.4460   27.0230 C.2   428  ARG428      0.2260
    171  O         27.5430    1.6740   27.0540 O.2   428  ARG428     -0.2867
    172  CB        28.5620   -1.1710   25.3780 C.3   428  ARG428      0.0307
    173  CG        27.6780   -0.5720   24.3100 C.3   428  ARG428      0.0489
    174  CD        28.2470    0.7080   23.7400 C.3   428  ARG428      0.2205
    175  NE        27.8930    0.8470   22.3310 N.pl3 428  ARG428     -0.0865
    176  CZ        26.6480    0.9510   21.8730 C.cat 428  ARG428      0.5346
    177  NH1       25.6110    0.9360   22.7040 N.pl3 428  ARG428      0.1354
    178  NH2       26.4390    1.0680   20.5720 N.pl3 428  ARG428      0.1354
@<TRIPOS>BOND
     1    96    97    2
     2    96    95    1
     3    78    79    2
     4    78    77    1
     5    70    71    1
     6    94    95    1
     7    83    84    1
     8    95    98    1
     9    85    86    2
    10    85    84    1
    11    59    58    2
    12    76    77    1
    13    76    72   am
    14    71    72    1
    15    71    74    1
    16    77    80    1
    17    72    73    2
    18    66    65    2
    19    81    80    1
    20    80    82    1
    21    84    87    1
    22    98    99    1
    23    62    60    1
    24   117   118    1
    25   117   116    1
    26   119   118    2
    27    65    64    1
    28    58    57    1
    29    58    63   am
    30    87    88    1
    31    74    75    1
    32   118   120   am
    33    99   100    1
    34    64    63    1
    35    64    67    1
    36    57    60    1
    37    57    56    1
    38   101   100   ar
    39    60    61    1
    40   103   104    1
    41    50    49    2
    42   116   113    1
    43   100   102   ar
    44    88    89    1
    45   106   105    2
    46   105   104    1
    47    67    69    1
    48    67    68    1
    49   112   113    1
    50   107   104    1
    51   107   108    1
    52    56    49   am
    53    49    48    1
    54    89    90    1
    55   108   109    1
    56   113   114    1
    57    90    91    2
    58    48    51    1
    59    48    47    1
    60    46    45    2
    61   114   115    2
    62    51    52    1
    63   109   111   ar
    64   109   110   ar
    65   144   143    1
    66   143   140    1
    67    91    92    1
    68    91    93    1
    69   142   141    2
    70   152   150    1
    71   130   128   ar
    72   130   131   ar
    73    45    47   am
    74    45    44    1
    75   140   141    1
    76   140   139    1
    77   141   145   am
    78    52    53    1
    79   128   126   ar
    80    53    54    1
    81   149   150    1
    82   149   146    1
    83   131   129   ar
    84   150   151    1
    85    54    55    1
    86    44    43    1
    87   145   146    1
    88   146   147    1
    89   139   134   am
    90   126   125    1
    91   126   127   ar
    92    15    14    1
    93   129   127   ar
    94   125   122    1
    95   137   136    1
    96    43    39   am
    97   134   135    2
    98   134   133    1
    99   121   122    1
   100   147   153   am
   101   147   148    2
   102   153   154    1
   103     1     2    1
   104   136   133    1
   105   136   138    1
   106   122   123    1
   107    14    13    1
   108    14    16    1
   109    40    39    2
   110    39    38    1
   111    13    10    1
   112   156   155    2
   113     3     2    1
   114     3     4    2
   115     8     6    1
   116   133   132    1
   117     5     2    1
   118     5     6    1
   119     5     7    1
   120   123   124    2
   121    42    41    1
   122   154   155    1
   123   154   157    1
   124    38    41    1
   125    38    37    1
   126    12    11    2
   127   158   157    1
   128    37    35   am
   129    10     9    1
   130    10    11    1
   131   157   159    1
   132    33    34    1
   133    33    28   am
   134    32    30    1
   135    31    30    1
   136    20    19    2
   137    35    34    1
   138    35    36    2
   139    27    30    1
   140    27    28    1
   141    27    26    1
   142   167   165   ar
   143    28    29    2
   144    19    26   am
   145    19    18    1
   146    17    18    1
   147   178   176    1
   148   165   166   ar
   149   165   164    1
   150    18    21    1
   151   160   161    1
   152   164   161    1
   153   176   175    2
   154   176   177    1
   155   161   162    1
   156   175   174    1
   157    21    22    1
   158   163   162    2
   159    22    23    1
   160   174   173    1
   161   173   172    1
   162    24    23   ar
   163    23    25   ar
   164   172   169    1
   165   169   170    1
   166   169   168    1
   167   170   171    2
