@<TRIPOS>MOLECULE
tmp/5jq1A00.pdb
 112 106 0 0 0
SMALL
GASTEIGER

@<TRIPOS>ATOM
      1  N         -5.3910    7.3420   28.5240 N.3    58  ASN58      -0.1240
      2  CA        -4.3530    6.4530   29.0860 C.3    58  ASN58       0.1653
      3  C         -4.5330    5.0760   28.5070 C.2    58  ASN58       0.2266
      4  O         -5.6400    4.5460   28.5480 O.2    58  ASN58      -0.2867
      5  CB        -4.3910    6.4070   30.6120 C.3    58  ASN58       0.1155
      6  CG        -4.0380    7.7170   31.2700 C.2    58  ASN58       0.2627
      7  OD1       -4.6450    8.1400   32.2580 O.2    58  ASN58      -0.2716
      8  ND2       -2.9950    8.3310   30.8130 N.am   58  ASN58      -0.0877
      9  N          7.1300   11.0080   29.2310 N.3    86  ARG86      -0.1245
     10  CA         6.6740   12.3260   29.6500 C.3    86  ARG86       0.1563
     11  C          7.8020   12.9360   30.5410 C.2    86  ARG86       0.2260
     12  O          8.5840   12.1800   31.1510 O.2    86  ARG86      -0.2867
     13  CB         5.3500   12.1910   30.4590 C.3    86  ARG86       0.0307
     14  CG         4.2550   13.1040   29.9120 C.3    86  ARG86       0.0489
     15  CD         3.0350   13.0910   30.7740 C.3    86  ARG86       0.2205
     16  NE         2.4470   14.4210   30.9020 N.pl3  86  ARG86      -0.0865
     17  CZ         1.2350   14.7470   30.4710 C.cat  86  ARG86       0.5346
     18  NH1        0.4750   13.8450   29.8530 N.pl3  86  ARG86       0.1354
     19  NH2        0.7720   15.9740   30.6480 N.pl3  86  ARG86       0.1354
     20  N          9.2980   11.3630   33.9800 N.3    89  GLN89      -0.1245
     21  CA         8.9750    9.9250   33.9560 C.3    89  GLN89       0.1566
     22  C         10.1350    9.1630   33.2940 C.2    89  GLN89       0.2260
     23  O         10.8500    9.7430   32.4610 O.2    89  GLN89      -0.2867
     24  CB         7.6350    9.6350   33.2290 C.3    89  GLN89       0.0367
     25  CG         6.4210   10.3720   33.8030 C.3    89  GLN89       0.0905
     26  CD         6.1470   10.1090   35.2680 C.2    89  GLN89       0.2608
     27  OE1        6.5100    9.0440   35.8440 O.2    89  GLN89      -0.2717
     28  NE2        5.3920   11.0350   35.8510 N.am   89  GLN89      -0.0878
     29  N          9.2150    7.2190   36.9560 N.3    91  ASP91      -0.1239
     30  CA         9.6610    7.5780   38.3080 C.3    91  ASP91       0.1674
     31  C          9.4340    6.4910   39.3730 C.2    91  ASP91       0.2266
     32  O          9.7480    6.7150   40.5540 O.2    91  ASP91      -0.2867
     33  CB         9.0080    8.9100   38.7180 C.3    91  ASP91       0.1410
     34  CG         7.4850    8.7950   38.8470 C.2    91  ASP91       0.3668
     35  OD1        6.9300    7.7280   38.4950 O.co2  91  ASP91      -0.2456
     36  OD2        6.8580    9.7660   39.2730 O.co2  91  ASP91      -0.2456
     37  N          6.8760    5.5530   41.0650 N.3    93  TRP93      -0.1241
     38  CA         6.2030    6.1700   42.2110 C.3    93  TRP93       0.1605
     39  C          5.5490    5.1240   43.1420 C.2    93  TRP93       0.2264
     40  O          4.8400    4.2430   42.6650 O.2    93  TRP93      -0.2867
     41  CB         5.1510    7.1760   41.6910 C.3    93  TRP93       0.0550
     42  CG         4.4950    8.0370   42.7350 C.ar   93  TRP93       0.0003
     43  CD1        5.1150    8.8380   43.6570 C.ar   93  TRP93       0.0946
     44  CD2        3.0840    8.2890   42.8630 C.ar   93  TRP93       0.0152
     45  NE1        4.1720    9.5410   44.3800 N.ar   93  TRP93      -0.2442
     46  CE2        2.9170    9.2180   43.9150 C.ar   93  TRP93       0.0810
     47  CE3        1.9390    7.7880   42.2090 C.ar   93  TRP93       0.0012
     48  CZ2        1.6530    9.6880   44.3020 C.ar   93  TRP93       0.0191
     49  CZ3        0.6890    8.2410   42.6050 C.ar   93  TRP93       0.0001
     50  CH2        0.5480    9.1530   43.6660 C.ar   93  TRP93       0.0015
     51  N          5.9250    1.4090   40.2580 N.3   102  GLU102     -0.1245
     52  CA         5.1220    1.5020   39.0140 C.3   102  GLU102      0.1567
     53  C          5.9210    0.7920   37.9600 C.2   102  GLU102      0.2260
     54  O          7.0630    1.1840   37.7150 O.2   102  GLU102     -0.2867
     55  CB         4.9200    2.9640   38.6090 C.3   102  GLU102      0.0388
     56  CG         3.8320    3.6270   39.4110 C.3   102  GLU102      0.1160
     57  CD         3.7090    5.1020   39.1350 C.2   102  GLU102      0.3649
     58  OE1        2.6050    5.6450   39.3670 O.co2 102  GLU102     -0.2457
     59  OE2        4.7090    5.7150   38.7030 O.co2 102  GLU102     -0.2457
     60  N          2.3660    3.2110   29.8240 N.3   106  HIS106     -0.1241
     61  CA         1.1840    3.5660   29.0760 C.3   106  HIS106      0.1621
     62  C          1.3790    4.9160   28.3800 C.2   106  HIS106      0.2264
     63  O          2.1520    5.7540   28.8350 O.2   106  HIS106     -0.2867
     64  CB        -0.0900    3.5990   30.0040 C.3   106  HIS106      0.0745
     65  CG        -0.1170    4.7090   31.0170 C.ar  106  HIS106      0.0817
     66  ND1       -0.7890    5.9100   30.7730 N.ar  106  HIS106     -0.2268
     67  CD2        0.4320    4.7650   32.2560 C.ar  106  HIS106      0.1154
     68  CE1       -0.6310    6.6340   31.8690 C.ar  106  HIS106      0.1986
     69  NE2        0.1230    6.0060   32.7710 N.ar  106  HIS106     -0.2212
     70  N          0.1260    8.5520   27.7940 N.3   108  THR108     -0.1218
     71  CA        -0.7050    9.4840   28.5650 C.3   108  THR108      0.1862
     72  C         -1.6110   10.2620   27.5860 C.2   108  THR108      0.2287
     73  O         -1.5680   10.0260   26.3700 O.2   108  THR108     -0.2866
     74  CB         0.1420   10.4610   29.3890 C.3   108  THR108      0.1770
     75  OG1        0.9000   11.2640   28.4930 O.3   108  THR108     -0.2211
     76  CG2        1.0330    9.7600   30.4100 C.3   108  THR108      0.0375
     77  N          4.2310    7.1870   30.5300 N.3   114  ASN114     -0.1225
     78  CA         4.2810    7.1700   31.9850 C.3   114  ASN114      0.1785
     79  C          4.3680    5.7280   32.4530 C.2   114  ASN114      0.2597
     80  O          3.8060    4.8560   31.8120 O.2   114  ASN114     -0.2718
     81  CB         3.0300    7.8270   32.5830 C.3   114  ASN114      0.1169
     82  CG         3.0280    7.7860   34.0870 C.2   114  ASN114      0.2627
     83  OD1        4.0420    8.0610   34.7310 O.2   114  ASN114     -0.2716
     84  ND2        1.9920    7.2200   34.6650 N.am  114  ASN114     -0.0877
     85  N          5.0510    5.4820   33.5780 N.am  115  ASP115     -0.1960
     86  CA         5.0580    4.1520   34.2040 C.3   115  ASP115      0.1840
     87  C          3.9600    4.2190   35.2820 C.2   115  ASP115      0.2622
     88  O          3.8380    5.2200   35.9840 O.2   115  ASP115     -0.2715
     89  CB         6.4240    3.8040   34.8250 C.3   115  ASP115      0.1450
     90  CG         6.9570    4.7550   35.8740 C.2   115  ASP115      0.3671
     91  OD1        6.6880    6.0000   35.7570 O.co2 115  ASP115     -0.2456
     92  OD2        7.8100    4.3170   36.6850 O.co2 115  ASP115     -0.2456
     93  N          3.1140    3.2000   35.3620 N.am  116  ASP116     -0.1971
     94  CA         2.0120    3.1790   36.3250 C.3   116  ASP116      0.1709
     95  C          1.8670    1.7890   36.9150 C.2   116  ASP116      0.2293
     96  O          2.5450    0.8390   36.5250 O.2   116  ASP116     -0.2864
     97  CB         0.6730    3.6420   35.6480 C.3   116  ASP116      0.1436
     98  CG        -0.2840    4.3850   36.5700 C.2   116  ASP116      0.3671
     99  OD1       -0.2160    4.1620   37.8040 O.co2 116  ASP116     -0.2456
    100  OD2       -1.0210    5.2850   36.0740 O.co2 116  ASP116     -0.2456
    101  N         -6.7420    0.1410   32.0500 N.3   122  TYR122     -0.1241
    102  CA        -6.6290    1.1320   31.0040 C.3   122  TYR122      0.1605
    103  C         -6.9440    0.4280   29.7110 C.2   122  TYR122      0.2264
    104  O         -6.8280   -0.8070   29.6080 O.2   122  TYR122     -0.2867
    105  CB        -5.1680    1.6770   30.8770 C.3   122  TYR122      0.0534
    106  CG        -4.6910    2.6640   31.9160 C.ar  122  TYR122     -0.0201
    107  CD1       -5.5650    3.5950   32.4830 C.ar  122  TYR122     -0.0009
    108  CD2       -3.3400    2.7540   32.2430 C.ar  122  TYR122     -0.0009
    109  CE1       -5.1150    4.5360   33.4150 C.ar  122  TYR122      0.0417
    110  CE2       -2.8830    3.6650   33.1920 C.ar  122  TYR122      0.0417
    111  CZ        -3.7670    4.5740   33.7560 C.ar  122  TYR122      0.1957
    112  OH        -3.2740    5.5230   34.6190 O.3   122  TYR122     -0.2866
@<TRIPOS>BOND
     1    73    72    2
     2    72    71    1
     3    70    71    1
     4    62    63    2
     5    62    61    1
     6    75    74    1
     7     3     4    2
     8     3     2    1
     9     1     2    1
    10    71    74    1
    11    61    60    1
    12    61    64    1
    13     2     5    1
    14     9    10    1
    15    74    76    1
    16   104   103    2
    17    10    13    1
    18    10    11    1
    19   103   102    1
    20    18    17    1
    21    14    13    1
    22    14    15    1
    23    64    65    1
    24    17    19    1
    25    17    16    2
    26    77    78    1
    27    11    12    2
    28     5     6    1
    29    66    65   ar
    30    66    68   ar
    31    15    16    1
    32     8     6   am
    33   105   102    1
    34   105   106    1
    35   102   101    1
    36    65    67   ar
    37     6     7    2
    38    80    79    2
    39    68    69   ar
    40   106   108   ar
    41   106   107   ar
    42    78    79    1
    43    78    81    1
    44   108   110   ar
    45    67    69   ar
    46    79    85   am
    47    23    22    2
    48   107   109   ar
    49    81    82    1
    50   110   111   ar
    51    24    25    1
    52    24    21    1
    53    22    21    1
    54   109   111   ar
    55    85    86    1
    56   111   112    1
    57    25    26    1
    58    21    20    1
    59    82    84   am
    60    82    83    2
    61    86    89    1
    62    86    87    1
    63    89    90    1
    64    26    27    2
    65    26    28   am
    66    87    93   am
    67    87    88    2
    68    93    94    1
    69    97    94    1
    70    97    98    1
    71    91    90   ar
    72    90    92   ar
    73   100    98   ar
    74    94    95    1
    75    96    95    2
    76    98    99   ar
    77    29    30    1
    78    54    53    2
    79    53    52    1
    80    30    33    1
    81    30    31    1
    82    35    34   ar
    83    55    52    1
    84    55    56    1
    85    59    57   ar
    86    33    34    1
    87    34    36   ar
    88    52    51    1
    89    57    58   ar
    90    57    56    1
    91    31    32    2
    92    37    38    1
    93    41    38    1
    94    41    42    1
    95    47    49   ar
    96    47    44   ar
    97    38    39    1
    98    49    50   ar
    99    40    39    2
   100    42    44   ar
   101    42    43   ar
   102    44    46   ar
   103    43    45   ar
   104    50    48   ar
   105    46    48   ar
   106    46    45   ar
