@<TRIPOS>MOLECULE
tmp/5jq2A02.pdb
 111 102 0 0 0
SMALL
GASTEIGER

@<TRIPOS>ATOM
      1  N         59.6500   20.7350   56.1280 N.3   272  LEU272     -0.1245
      2  CA        59.1370   22.0060   56.6690 C.3   272  LEU272      0.1561
      3  C         58.0930   22.6150   55.7350 C.2   272  LEU272      0.2260
      4  O         57.0180   23.0030   56.1620 O.2   272  LEU272     -0.2867
      5  CB        60.2620   23.0280   56.8440 C.3   272  LEU272      0.0270
      6  CG        59.7990   24.4780   57.1440 C.3   272  LEU272      0.0019
      7  CD1       58.9400   24.5790   58.4230 C.3   272  LEU272      0.0001
      8  CD2       61.0430   25.3120   57.2610 C.3   272  LEU272      0.0001
      9  N         63.1850   39.1710   52.8030 N.3   309  LYS309     -0.1245
     10  CA        63.4470   39.6150   54.1740 C.3   309  LYS309      0.1561
     11  C         62.2930   40.4430   54.7570 C.2   309  LYS309      0.2260
     12  O         62.2900   40.7900   55.9340 O.2   309  LYS309     -0.2867
     13  CB        64.7000   40.4840   54.2500 C.3   309  LYS309      0.0271
     14  CG        65.9950   39.8410   53.8570 C.3   309  LYS309      0.0035
     15  CD        66.2800   38.5570   54.5930 C.3   309  LYS309      0.0206
     16  CE        67.7760   38.4400   54.7980 C.3   309  LYS309      0.1093
     17  NZ        68.2360   37.0250   54.7420 N.3   309  LYS309     -0.1314
     18  N         57.6240   38.8140   57.1110 N.3   312  LYS312     -0.1245
     19  CA        57.6360   38.5180   58.5400 C.3   312  LYS312      0.1561
     20  C         56.6200   37.4450   58.9180 C.2   312  LYS312      0.2260
     21  O         56.9580   36.5050   59.6610 O.2   312  LYS312     -0.2867
     22  CB        57.3520   39.7550   59.3880 C.3   312  LYS312      0.0271
     23  CG        57.1840   39.3940   60.8690 C.3   312  LYS312      0.0035
     24  CD        57.6250   40.4560   61.8580 C.3   312  LYS312      0.0206
     25  CE        56.7300   41.6770   61.9180 C.3   312  LYS312      0.1093
     26  NZ        56.2870   41.9090   63.3200 N.3   312  LYS312     -0.1314
     27  N         57.5790   34.0210   57.7920 N.3   315  GLY315     -0.1210
     28  CA        58.5510   33.5250   58.7430 C.3   315  GLY315      0.1956
     29  C         57.9470   32.9840   60.0220 C.2   315  GLY315      0.2611
     30  O         58.4050   31.9270   60.5510 O.2   315  GLY315     -0.2717
     31  N         56.9150   33.6660   60.5140 N.am  316  MET316     -0.1979
     32  CA        56.1840   33.2080   61.6940 C.3   316  MET316      0.1605
     33  C         55.4280   31.8790   61.4210 C.2   316  MET316      0.2287
     34  O         55.3870   30.9830   62.2960 O.2   316  MET316     -0.2864
     35  CB        55.2520   34.3190   62.2420 C.3   316  MET316      0.0413
     36  CG        56.0030   35.5610   62.7590 C.3   316  MET316      0.0598
     37  SD        54.9100   37.0180   62.8150 S.3   316  MET316     -0.1393
     38  CE        53.6440   36.4650   63.9240 C.3   316  MET316      0.0692
     39  N         56.4540   29.6320   59.3090 N.3   318  LEU318     -0.1231
     40  CA        57.4800   28.6000   59.2410 C.3   318  LEU318      0.1693
     41  C         57.9640   28.2110   60.6460 C.2   318  LEU318      0.2592
     42  O         58.1520   27.0090   60.9140 O.2   318  LEU318     -0.2718
     43  CB        58.6210   29.0350   58.3440 C.3   318  LEU318      0.0284
     44  CG        58.2600   29.1330   56.8450 C.3   318  LEU318      0.0019
     45  CD1       59.3340   29.8890   56.1030 C.3   318  LEU318      0.0001
     46  CD2       58.0410   27.7390   56.2530 C.3   318  LEU318      0.0001
     47  N         58.1320   29.1970   61.5270 N.am  319  ASN319     -0.1974
     48  CA        58.5240   28.9130   62.9040 C.3   319  ASN319      0.1688
     49  C         57.4490   28.0920   63.6160 C.2   319  ASN319      0.2292
     50  O         57.7820   27.1620   64.3200 O.2   319  ASN319     -0.2864
     51  CB        58.8730   30.1900   63.6830 C.3   319  ASN319      0.1181
     52  CG        60.3120   30.6620   63.4550 C.2   319  ASN319      0.2629
     53  OD1       61.0540   30.1210   62.6430 O.2   319  ASN319     -0.2716
     54  ND2       60.7200   31.6400   64.2140 N.am  319  ASN319     -0.0877
     55  N         57.7100   24.5370   62.4660 N.3   322  LEU322     -0.1245
     56  CA        58.8670   23.9750   63.1560 C.3   322  LEU322      0.1561
     57  C         58.6230   23.7380   64.6430 C.2   322  LEU322      0.2260
     58  O         59.1850   22.7820   65.2220 O.2   322  LEU322     -0.2867
     59  CB        60.0860   24.8670   63.0390 C.3   322  LEU322      0.0270
     60  CG        60.7170   24.9420   61.6570 C.3   322  LEU322      0.0019
     61  CD1       61.7910   26.0160   61.6380 C.3   322  LEU322      0.0001
     62  CD2       61.2640   23.5880   61.2020 C.3   322  LEU322      0.0001
     63  N         55.0520   33.8680   67.6640 N.3   379  PHE379     -0.1241
     64  CA        56.3480   34.4090   67.3440 C.3   379  PHE379      0.1605
     65  C         56.3680   35.9070   67.0350 C.2   379  PHE379      0.2264
     66  O         57.3080   36.3740   66.3700 O.2   379  PHE379     -0.2867
     67  CB        56.9560   33.5750   66.2020 C.3   379  PHE379      0.0534
     68  CG        57.2260   32.1270   66.5920 C.ar  379  PHE379     -0.0203
     69  CD1       58.4290   31.7780   67.1860 C.ar  379  PHE379     -0.0042
     70  CD2       56.2640   31.1190   66.3800 C.ar  379  PHE379     -0.0042
     71  CE1       58.6910   30.4620   67.5450 C.ar  379  PHE379     -0.0003
     72  CE2       56.5160   29.8110   66.7480 C.ar  379  PHE379     -0.0003
     73  CZ        57.7370   29.4760   67.3440 C.ar  379  PHE379     -0.0000
     74  N         60.0070   37.2920   69.2640 N.3   382  PRO382     -0.2116
     75  CA        60.9890   36.2150   69.4650 C.3   382  PRO382      0.1372
     76  C         61.9150   36.4560   70.6470 C.2   382  PRO382      0.2244
     77  O         62.2010   35.5070   71.3600 O.2   382  PRO382     -0.2868
     78  CB        61.7920   36.1850   68.1510 C.3   382  PRO382      0.0268
     79  CG        60.9420   36.9220   67.1490 C.3   382  PRO382      0.0207
     80  CD        60.0370   37.8360   67.8860 C.3   382  PRO382      0.0892
     81  N         70.8230   27.0570   58.7210 N.3   403  GLN403     -0.1231
     82  CA        69.5740   27.5770   59.2120 C.3   403  GLN403      0.1698
     83  C         69.0790   28.8000   58.4200 C.2   403  GLN403      0.2592
     84  O         67.9100   28.8610   58.0790 O.2   403  GLN403     -0.2718
     85  CB        69.7010   27.9460   60.7100 C.3   403  GLN403      0.0381
     86  CG        68.5080   28.6910   61.2600 C.3   403  GLN403      0.0905
     87  CD        68.5710   28.9290   62.7570 C.2   403  GLN403      0.2608
     88  OE1       69.5030   28.5050   63.4560 O.2   403  GLN403     -0.2717
     89  NE2       67.5540   29.6260   63.2600 N.am  403  GLN403     -0.0878
     90  N         69.9540   29.7400   58.1400 N.am  404  GLN404     -0.1979
     91  CA        69.5930   30.9160   57.3360 C.3   404  GLN404      0.1601
     92  C         69.2520   30.5850   55.8730 C.2   404  GLN404      0.2287
     93  O         68.3450   31.1680   55.3140 O.2   404  GLN404     -0.2864
     94  CB        70.6880   31.9610   57.3800 C.3   404  GLN404      0.0394
     95  CG        70.1600   33.3730   57.4180 C.3   404  GLN404      0.0908
     96  CD        71.1970   34.3680   56.9260 C.2   404  GLN404      0.2608
     97  OE1       72.3240   34.3930   57.4230 O.2   404  GLN404     -0.2717
     98  NE2       70.8310   35.1730   55.9180 N.am  404  GLN404     -0.0878
     99  N         65.6820   28.7940   56.0260 N.3   407  CYS407     -0.1235
    100  CA        64.6760   29.8260   56.2430 C.3   407  CYS407      0.1677
    101  C         64.4500   30.7690   55.0690 C.2   407  CYS407      0.2270
    102  O         63.3080   31.1050   54.7620 O.2   407  CYS407     -0.2867
    103  CB        65.0000   30.6440   57.4880 C.3   407  CYS407      0.0956
    104  SG        64.6030   29.6990   58.9850 S.3   407  CYS407     -0.0801
    105  N         61.0560   30.6180   52.9620 N.3   411  THR411     -0.1218
    106  CA        60.2560   31.8640   53.0090 C.3   411  THR411      0.1862
    107  C         59.9670   32.3550   51.5500 C.2   411  THR411      0.2287
    108  O         58.8360   32.6620   51.2020 O.2   411  THR411     -0.2866
    109  CB        60.9530   32.9120   53.8980 C.3   411  THR411      0.1770
    110  OG1       61.1690   32.3310   55.1930 O.3   411  THR411     -0.2211
    111  CG2       60.1010   34.1740   54.0260 C.3   411  THR411      0.0375
@<TRIPOS>BOND
     1   108   107    2
     2   107   106    1
     3     9    10    1
     4   105   106    1
     5   106   109    1
     6    14    13    1
     7    14    15    1
     8   109   111    1
     9   109   110    1
    10    10    13    1
    11    10    11    1
    12    15    16    1
    13    17    16    1
    14    11    12    2
    15   102   101    2
    16   101   100    1
    17    93    92    2
    18     3     4    2
    19     3     2    1
    20    92    91    1
    21    98    96   am
    22    99   100    1
    23    45    44    1
    24     1     2    1
    25   100   103    1
    26    46    44    1
    27     2     5    1
    28     5     6    1
    29    44    43    1
    30    96    95    1
    31    96    97    2
    32    18    19    1
    33     6     8    1
    34     6     7    1
    35    91    94    1
    36    91    90    1
    37    94    95    1
    38   103   104    1
    39    27    28    1
    40    84    83    2
    41    90    83   am
    42    43    40    1
    43    83    82    1
    44    19    20    1
    45    19    22    1
    46    81    82    1
    47    28    29    1
    48    20    21    2
    49    82    85    1
    50    40    39    1
    51    40    41    1
    52    22    23    1
    53    29    31   am
    54    29    30    2
    55    31    32    1
    56    41    42    2
    57    41    47   am
    58    85    86    1
    59    23    24    1
    60    62    60    1
    61    86    87    1
    62    33    32    1
    63    33    34    2
    64    47    48    1
    65    61    60    1
    66    60    59    1
    67    32    35    1
    68    24    25    1
    69    25    26    1
    70    35    36    1
    71    55    56    1
    72    53    52    2
    73    87    89   am
    74    87    88    2
    75    36    37    1
    76    37    38    1
    77    48    49    1
    78    48    51    1
    79    59    56    1
    80    56    57    1
    81    52    51    1
    82    52    54   am
    83    49    50    2
    84    57    58    2
    85    67    68    1
    86    67    64    1
    87    66    65    2
    88    70    68   ar
    89    70    72   ar
    90    68    69   ar
    91    72    73   ar
    92    65    64    1
    93    79    80    1
    94    79    78    1
    95    69    71   ar
    96    64    63    1
    97    73    71   ar
    98    80    74    1
    99    78    75    1
   100    74    75    1
   101    75    76    1
   102    76    77    2
