@<TRIPOS>MOLECULE
tmp/5jq3A00.pdb
 104 101 0 0 0
SMALL
GASTEIGER

@<TRIPOS>ATOM
      1  N        -40.5730    5.7580  -30.6840 N.3   170  THR170     -0.1203
      2  CA       -40.6330    5.1000  -31.9860 C.3   170  THR170      0.1994
      3  C        -42.0180    5.2710  -32.5880 C.2   170  THR170      0.2619
      4  O        -43.0210    4.9650  -31.9470 O.2   170  THR170     -0.2717
      5  CB       -40.3430    3.5910  -31.8590 C.3   170  THR170      0.1784
      6  OG1      -39.0720    3.3940  -31.2310 O.3   170  THR170     -0.2211
      7  CG2      -40.3400    2.9110  -33.2300 C.3   170  THR170      0.0376
      8  N        -42.0670    5.7430  -33.8300 N.am  171  THR171     -0.1938
      9  CA       -43.3270    5.9710  -34.5210 C.3   171  THR171      0.2028
     10  C        -43.7090    4.7240  -35.2980 C.2   171  THR171      0.2642
     11  O        -42.9050    4.1890  -36.0440 O.2   171  THR171     -0.2714
     12  CB       -43.2370    7.1910  -35.4520 C.3   171  THR171      0.1808
     13  OG1      -42.9930    8.3560  -34.6590 O.3   171  THR171     -0.2208
     14  CG2      -44.5350    7.3920  -36.2380 C.3   171  THR171      0.0379
     15  N        -44.9400    4.2680  -35.1000 N.am  172  ILE172     -0.1963
     16  CA       -45.4960    3.1370  -35.8200 C.3   172  ILE172      0.1727
     17  C        -46.6530    3.6950  -36.6330 C.2   172  ILE172      0.2616
     18  O        -47.6200    4.2250  -36.0690 O.2   172  ILE172     -0.2715
     19  CB       -45.9750    2.0330  -34.8550 C.3   172  ILE172      0.0290
     20  CG1      -44.8020    1.5440  -33.9980 C.3   172  ILE172      0.0022
     21  CG2      -46.5750    0.8510  -35.6120 C.3   172  ILE172      0.0023
     22  CD1      -45.1950    0.5480  -32.9340 C.3   172  ILE172      0.0001
     23  N        -46.5410    3.5700  -37.9550 N.am  173  ARG173     -0.1977
     24  CA       -47.4870    4.1760  -38.8850 C.3   173  ARG173      0.1597
     25  C        -48.5400    3.1730  -39.3310 C.2   173  ARG173      0.2287
     26  O        -48.2380    2.0070  -39.5540 O.2   173  ARG173     -0.2864
     27  CB       -46.7450    4.7650  -40.0850 C.3   173  ARG173      0.0334
     28  CG       -45.8010    5.8810  -39.6810 C.3   173  ARG173      0.0492
     29  CD       -45.2400    6.6550  -40.8630 C.3   173  ARG173      0.2205
     30  NE       -44.7660    7.9710  -40.4240 N.pl3 173  ARG173     -0.0865
     31  CZ       -43.6130    8.2140  -39.7880 C.cat 173  ARG173      0.5346
     32  NH1      -43.3160    9.4650  -39.4330 N.pl3 173  ARG173      0.1354
     33  NH2      -42.7460    7.2350  -39.5010 N.pl3 173  ARG173      0.1354
     34  N        -50.6460   -1.9360  -41.1070 N.3   188  PHE188     -0.1227
     35  CA       -49.3570   -1.4750  -40.5910 C.3   188  PHE188      0.1736
     36  C        -48.4240   -1.1870  -41.7720 C.2   188  PHE188      0.2595
     37  O        -48.2870   -2.0150  -42.6650 O.2   188  PHE188     -0.2718
     38  CB       -48.7490   -2.5210  -39.6500 C.3   188  PHE188      0.0547
     39  CG       -47.2910   -2.3140  -39.3760 C.ar  188  PHE188     -0.0202
     40  CD1      -46.3640   -3.3030  -39.6860 C.ar  188  PHE188     -0.0042
     41  CD2      -46.8380   -1.1230  -38.8280 C.ar  188  PHE188     -0.0042
     42  CE1      -45.0120   -3.1070  -39.4430 C.ar  188  PHE188     -0.0003
     43  CE2      -45.4890   -0.9230  -38.5820 C.ar  188  PHE188     -0.0003
     44  CZ       -44.5720   -1.9160  -38.8880 C.ar  188  PHE188     -0.0000
     45  N        -47.7750   -0.0230  -41.7500 N.am  189  GLU189     -0.1965
     46  CA       -46.9400    0.4490  -42.8610 C.3   189  GLU189      0.1733
     47  C        -45.4620    0.0520  -42.7040 C.2   189  GLU189      0.2616
     48  O        -44.7990    0.4660  -41.7550 O.2   189  GLU189     -0.2715
     49  CB       -47.0640    1.9710  -42.9610 C.3   189  GLU189      0.0429
     50  CG       -46.4640    2.5910  -44.2160 C.3   189  GLU189      0.1163
     51  CD       -46.5100    4.1110  -44.1930 C.2   189  GLU189      0.3649
     52  OE1      -47.5690    4.6890  -43.8550 O.co2 189  GLU189     -0.2457
     53  OE2      -45.4780    4.7340  -44.5100 O.co2 189  GLU189     -0.2457
     54  N        -44.9520   -0.7430  -43.6440 N.am  190  VAL190     -0.1977
     55  CA       -43.5370   -1.1360  -43.6670 C.3   190  VAL190      0.1596
     56  C        -42.7630   -0.1020  -44.4850 C.2   190  VAL190      0.2287
     57  O        -41.7320    0.4120  -44.0430 O.2   190  VAL190     -0.2864
     58  CB       -43.3550   -2.5550  -44.2580 C.3   190  VAL190      0.0276
     59  CG1      -41.8840   -2.9610  -44.2850 C.3   190  VAL190      0.0022
     60  CG2      -44.1870   -3.5600  -43.4690 C.3   190  VAL190      0.0022
     61  N        -42.6350   -4.0680  -34.8780 N.3   208  LEU208     -0.1245
     62  CA       -41.2700   -3.6310  -35.1880 C.3   208  LEU208      0.1561
     63  C        -40.3520   -4.7790  -35.6160 C.2   208  LEU208      0.2260
     64  O        -39.4800   -4.5790  -36.4640 O.2   208  LEU208     -0.2867
     65  CB       -40.6390   -2.8930  -34.0040 C.3   208  LEU208      0.0270
     66  CG       -41.3110   -1.5930  -33.5520 C.3   208  LEU208      0.0019
     67  CD1      -40.6490   -1.0830  -32.2800 C.3   208  LEU208      0.0001
     68  CD2      -41.2840   -0.5320  -34.6400 C.3   208  LEU208      0.0001
     69  N        -41.5340   -5.8360  -39.2110 N.3   211  ASN211     -0.1225
     70  CA       -41.0260   -4.8560  -40.1830 C.3   211  ASN211      0.1785
     71  C        -39.5270   -5.0560  -40.4680 C.2   211  ASN211      0.2597
     72  O        -39.1190   -5.0650  -41.6300 O.2   211  ASN211     -0.2718
     73  CB       -41.3910   -3.4050  -39.7770 C.3   211  ASN211      0.1169
     74  CG       -40.1860   -2.4890  -39.6470 C.2   211  ASN211      0.2627
     75  OD1      -39.4860   -2.5310  -38.6390 O.2   211  ASN211     -0.2716
     76  ND2      -39.9460   -1.6510  -40.6470 N.am  211  ASN211     -0.0877
     77  N        -38.7320   -5.2540  -39.4180 N.am  212  GLU212     -0.1979
     78  CA       -37.2900   -5.4910  -39.5670 C.3   212  GLU212      0.1602
     79  C        -36.9840   -6.8260  -40.2690 C.2   212  GLU212      0.2287
     80  O        -36.0060   -6.9220  -41.0140 O.2   212  GLU212     -0.2864
     81  CB       -36.5870   -5.4160  -38.2050 C.3   212  GLU212      0.0415
     82  CG       -35.0640   -5.3240  -38.2740 C.3   212  GLU212      0.1163
     83  CD       -34.3620   -6.6280  -37.9320 C.2   212  GLU212      0.3649
     84  OE1      -34.5420   -7.1170  -36.7950 O.co2 212  GLU212     -0.2457
     85  OE2      -33.6120   -7.1510  -38.7870 O.co2 212  GLU212     -0.2457
     86  N        -37.7470   -6.1710  -44.0990 N.3   215  TYR215     -0.1227
     87  CA       -36.6310   -5.4340  -44.7120 C.3   215  TYR215      0.1736
     88  C        -35.3990   -6.3100  -44.9760 C.2   215  TYR215      0.2596
     89  O        -34.8470   -6.2740  -46.0750 O.2   215  TYR215     -0.2718
     90  CB       -36.2280   -4.2220  -43.8560 C.3   215  TYR215      0.0548
     91  CG       -36.9110   -2.9220  -44.2270 C.ar  215  TYR215     -0.0200
     92  CD1      -38.1670   -2.5960  -43.7220 C.ar  215  TYR215     -0.0009
     93  CD2      -36.2830   -2.0000  -45.0620 C.ar  215  TYR215     -0.0009
     94  CE1      -38.7840   -1.3970  -44.0500 C.ar  215  TYR215      0.0417
     95  CE2      -36.8910   -0.8000  -45.3980 C.ar  215  TYR215      0.0417
     96  CZ       -38.1390   -0.5020  -44.8900 C.ar  215  TYR215      0.1957
     97  OH       -38.7460    0.6830  -45.2170 O.3   215  TYR215     -0.2866
     98  N        -34.9770   -7.0880  -43.9790 N.am  216  THR216     -0.1953
     99  CA       -33.7680   -7.9220  -44.0940 C.3   216  THR216      0.1897
    100  C        -33.9690   -9.1820  -44.9380 C.2   216  THR216      0.2313
    101  O        -33.0460   -9.6070  -45.6360 O.2   216  THR216     -0.2863
    102  CB       -33.2050   -8.3290  -42.7160 C.3   216  THR216      0.1794
    103  OG1      -34.2030   -9.0330  -41.9660 O.3   216  THR216     -0.2208
    104  CG2      -32.7450   -7.0960  -41.9410 C.3   216  THR216      0.0378
@<TRIPOS>BOND
     1    89    88    2
     2   101   100    2
     3    95    93   ar
     4    95    96   ar
     5    97    96    1
     6    93    91   ar
     7    88    87    1
     8    88    98   am
     9   100    99    1
    10    96    94   ar
    11    87    86    1
    12    87    90    1
    13    53    51   ar
    14    56    57    2
    15    56    55    1
    16    59    58    1
    17    58    55    1
    18    58    60    1
    19    91    90    1
    20    91    92   ar
    21    50    51    1
    22    50    49    1
    23    51    52   ar
    24    99    98    1
    25    99   102    1
    26    94    92   ar
    27    55    54    1
    28    54    47   am
    29    49    46    1
    30    46    47    1
    31    46    45    1
    32   102   103    1
    33   102   104    1
    34    47    48    2
    35    37    36    2
    36    36    45   am
    37    36    35    1
    38    72    71    2
    39    34    35    1
    40    80    79    2
    41    29    30    1
    42    29    28    1
    43    76    74   am
    44    35    38    1
    45    71    70    1
    46    71    77   am
    47    30    31    2
    48    79    78    1
    49    70    73    1
    50    70    69    1
    51    27    28    1
    52    27    24    1
    53    31    33    1
    54    31    32    1
    55    73    74    1
    56    40    42   ar
    57    40    39   ar
    58    38    39    1
    59    74    75    2
    60    78    77    1
    61    78    81    1
    62    26    25    2
    63    42    44   ar
    64    39    41   ar
    65    25    24    1
    66    44    43   ar
    67    24    23    1
    68    41    43   ar
    69    85    83   ar
    70    82    81    1
    71    82    83    1
    72    23    17   am
    73    83    84   ar
    74    17    18    2
    75    17    16    1
    76    64    63    2
    77    14    12    1
    78    11    10    2
    79    16    15    1
    80    16    19    1
    81    63    62    1
    82    21    19    1
    83    12    13    1
    84    12     9    1
    85    10    15   am
    86    10     9    1
    87    62    61    1
    88    62    65    1
    89    19    20    1
    90    68    66    1
    91     9     8    1
    92    65    66    1
    93    20    22    1
    94     8     3   am
    95    66    67    1
    96     7     5    1
    97     3     2    1
    98     3     4    2
    99     2     5    1
   100     2     1    1
   101     5     6    1
