@<TRIPOS>MOLECULE
tmp/5jq3A01.pdb
 80 78 0 0 0
SMALL
GASTEIGER

@<TRIPOS>ATOM
      1  N        -35.1560   -9.7850  -44.8690 N.3   217  SER217     -0.1202
      2  CA       -35.5050  -10.9090  -45.7540 C.3   217  SER217      0.2020
      3  C        -35.7320  -10.4760  -47.2050 C.2   217  SER217      0.2619
      4  O        -35.6640  -11.3040  -48.1060 O.2   217  SER217     -0.2717
      5  CB       -36.7500  -11.6430  -45.2530 C.3   217  SER217      0.2103
      6  OG       -36.5820  -12.1030  -43.9250 O.3   217  SER217     -0.2182
      7  N        -36.0210   -9.1920  -47.4210 N.am  218  GLY218     -0.1942
      8  CA       -36.2140   -8.6390  -48.7600 C.3   218  GLY218      0.2014
      9  C        -37.6030   -8.9270  -49.2940 C.2   218  GLY218      0.2639
     10  O        -37.7530   -9.3330  -50.4440 O.2   218  GLY218     -0.2714
     11  N        -38.6180   -8.7130  -48.4560 N.am  219  LYS219     -0.1963
     12  CA       -40.0140   -8.9790  -48.8220 C.3   219  LYS219      0.1728
     13  C        -40.8430   -7.6920  -48.9280 C.2   219  LYS219      0.2616
     14  O        -42.0580   -7.6970  -48.7280 O.2   219  LYS219     -0.2715
     15  CB       -40.6270  -10.0050  -47.8520 C.3   219  LYS219      0.0311
     16  CG       -40.3890  -11.4550  -48.2750 C.3   219  LYS219      0.0038
     17  CD       -39.0200  -11.9790  -47.8610 C.3   219  LYS219      0.0206
     18  CE       -38.7570  -13.3880  -48.3800 C.3   219  LYS219      0.1093
     19  NZ       -38.4760  -13.4470  -49.8440 N.3   219  LYS219     -0.1314
     20  N        -40.1700   -6.6000  -49.2860 N.am  220  ARG220     -0.1963
     21  CA       -40.8280   -5.3480  -49.6400 C.3   220  ARG220      0.1729
     22  C        -41.2620   -5.4190  -51.0950 C.2   220  ARG220      0.2617
     23  O        -40.7920   -6.2750  -51.8530 O.2   220  ARG220     -0.2715
     24  CB       -39.8720   -4.1700  -49.4690 C.3   220  ARG220      0.0348
     25  CG       -39.3060   -4.0040  -48.0640 C.3   220  ARG220      0.0492
     26  CD       -38.0650   -3.1310  -48.0900 C.3   220  ARG220      0.2205
     27  NE       -38.3800   -1.7710  -48.5260 N.pl3 220  ARG220     -0.0865
     28  CZ       -37.4990   -0.8750  -48.9770 C.cat 220  ARG220      0.5346
     29  NH1      -36.1980   -1.1600  -49.0790 N.pl3 220  ARG220      0.1354
     30  NH2      -37.9310    0.3290  -49.3400 N.pl3 220  ARG220      0.1354
     31  N        -42.1450   -4.5050  -51.4820 N.am  221  SER221     -0.1936
     32  CA       -42.6190   -4.4170  -52.8600 C.3   221  SER221      0.2055
     33  C        -41.4890   -3.9610  -53.7880 C.2   221  SER221      0.2643
     34  O        -40.8310   -2.9590  -53.5190 O.2   221  SER221     -0.2714
     35  CB       -43.7970   -3.4450  -52.9500 C.3   221  SER221      0.2130
     36  OG       -44.3900   -3.4640  -54.2340 O.3   221  SER221     -0.2179
     37  N        -41.2570   -4.7160  -54.8610 N.am  222  ASN222     -0.1957
     38  CA       -40.3000   -4.3240  -55.9140 C.3   222  ASN222      0.1819
     39  C        -41.0880   -4.1110  -57.2030 C.2   222  ASN222      0.2621
     40  O        -40.8000   -4.6920  -58.2460 O.2   222  ASN222     -0.2715
     41  CB       -39.1320   -5.3250  -56.0600 C.3   222  ASN222      0.1195
     42  CG       -39.5640   -6.7770  -55.9480 C.2   222  ASN222      0.2630
     43  OD1      -40.5750   -7.1790  -56.5260 O.2   222  ASN222     -0.2716
     44  ND2      -38.7910   -7.5730  -55.2010 N.am  222  ASN222     -0.0877
     45  N        -42.0930   -3.2470  -57.0910 N.am  223  THR223     -0.1951
     46  CA       -43.0970   -3.0220  -58.1260 C.3   223  THR223      0.1897
     47  C        -43.8230   -1.7210  -57.7680 C.2   223  THR223      0.2313
     48  O        -43.9120   -1.3670  -56.5940 O.2   223  THR223     -0.2863
     49  CB       -44.0850   -4.2190  -58.2000 C.3   223  THR223      0.1794
     50  OG1      -43.3690   -5.4170  -58.5300 O.3   223  THR223     -0.2208
     51  CG2      -45.1810   -4.0260  -59.2570 C.3   223  THR223      0.0378
     52  N        -48.2320   -3.8940  -51.9890 N.3   227  LEU227     -0.1245
     53  CA       -48.0500   -5.2530  -51.4740 C.3   227  LEU227      0.1561
     54  C        -48.5630   -5.3340  -50.0290 C.2   227  LEU227      0.2260
     55  O        -47.9860   -4.7140  -49.1330 O.2   227  LEU227     -0.2867
     56  CB       -46.5670   -5.6340  -51.5310 C.3   227  LEU227      0.0270
     57  CG       -46.1570   -7.0300  -51.0390 C.3   227  LEU227      0.0019
     58  CD1      -46.9210   -8.1230  -51.7710 C.3   227  LEU227      0.0001
     59  CD2      -44.6560   -7.2320  -51.1870 C.3   227  LEU227      0.0001
     60  N        -49.1190   -7.8840  -47.0360 N.3   229  TRP229     -0.1241
     61  CA       -48.8910   -9.1700  -46.3720 C.3   229  TRP229      0.1605
     62  C        -49.9840   -9.4620  -45.3460 C.2   229  TRP229      0.2264
     63  O        -50.6140   -8.5480  -44.8150 O.2   229  TRP229     -0.2867
     64  CB       -47.5270   -9.1950  -45.6730 C.3   229  TRP229      0.0550
     65  CG       -46.3630   -9.1100  -46.6040 C.ar  229  TRP229      0.0003
     66  CD1      -45.5730   -8.0240  -46.8310 C.ar  229  TRP229      0.0946
     67  CD2      -45.8540  -10.1580  -47.4360 C.ar  229  TRP229      0.0152
     68  NE1      -44.6020   -8.3260  -47.7530 N.ar  229  TRP229     -0.2442
     69  CE2      -44.7500   -9.6300  -48.1420 C.ar  229  TRP229      0.0810
     70  CE3      -46.2210  -11.4930  -47.6530 C.ar  229  TRP229      0.0012
     71  CZ2      -44.0080  -10.3910  -49.0560 C.ar  229  TRP229      0.0191
     72  CZ3      -45.4810  -12.2530  -48.5650 C.ar  229  TRP229      0.0001
     73  CH2      -44.3890  -11.6950  -49.2550 C.ar  229  TRP229      0.0015
     74  N        -46.2990  -15.3870  -51.9550 N.3   253  VAL253     -0.1245
     75  CA       -47.1540  -14.4440  -52.6990 C.3   253  VAL253      0.1561
     76  C        -48.2920  -15.1800  -53.4180 C.2   253  VAL253      0.2260
     77  O        -48.0500  -16.1630  -54.1230 O.2   253  VAL253     -0.2867
     78  CB       -46.3390  -13.6330  -53.7420 C.3   253  VAL253      0.0252
     79  CG1      -47.2140  -12.5760  -54.4200 C.3   253  VAL253      0.0019
     80  CG2      -45.1210  -12.9870  -53.0890 C.3   253  VAL253      0.0019
@<TRIPOS>BOND
     1    51    49    1
     2    50    49    1
     3    40    39    2
     4    49    46    1
     5    46    47    1
     6    46    45    1
     7    47    48    2
     8    39    45   am
     9    39    38    1
    10    43    42    2
    11    41    42    1
    12    41    38    1
    13    42    44   am
    14    38    37    1
    15    37    33   am
    16    79    78    1
    17    36    35    1
    18    77    76    2
    19    33    34    2
    20    33    32    1
    21    78    80    1
    22    78    75    1
    23    76    75    1
    24    35    32    1
    25    32    31    1
    26    75    74    1
    27    52    53    1
    28    23    22    2
    29    58    57    1
    30    56    53    1
    31    56    57    1
    32    31    22   am
    33    53    54    1
    34    59    57    1
    35    22    21    1
    36    10     9    2
    37    54    55    2
    38    19    18    1
    39    21    24    1
    40    21    20    1
    41    24    25    1
    42    30    28    1
    43     9     8    1
    44     9    11   am
    45    20    13   am
    46    73    71   ar
    47    73    72   ar
    48    29    28    1
    49    71    69   ar
    50    28    27    2
    51    13    12    1
    52    13    14    2
    53    12    11    1
    54    12    15    1
    55     8     7    1
    56    72    70   ar
    57    27    26    1
    58    18    17    1
    59    16    17    1
    60    16    15    1
    61    69    68   ar
    62    69    67   ar
    63     4     3    2
    64    26    25    1
    65    68    66   ar
    66    70    67   ar
    67    67    65   ar
    68     7     3   am
    69     3     2    1
    70    60    61    1
    71    66    65   ar
    72    65    64    1
    73    61    64    1
    74    61    62    1
    75     2     5    1
    76     2     1    1
    77    62    63    2
    78     5     6    1
