@<TRIPOS>MOLECULE
tmp/5jq7A03.pdb
 89 83 0 0 0
SMALL
GASTEIGER

@<TRIPOS>ATOM
      1  N        -47.4390   25.0870   -3.1720 N.3    32  ASN32      -0.1240
      2  CA       -46.5990   24.0000   -3.7170 C.3    32  ASN32       0.1653
      3  C        -46.9650   22.6130   -3.2520 C.2    32  ASN32       0.2266
      4  O        -46.6920   21.6630   -3.9520 O.2    32  ASN32      -0.2867
      5  CB       -45.1270   24.1740   -3.3230 C.3    32  ASN32       0.1155
      6  CG       -44.4780   25.3410   -4.0100 C.2    32  ASN32       0.2627
      7  OD1      -44.8140   25.6650   -5.1550 O.2    32  ASN32      -0.2716
      8  ND2      -43.5360   25.9870   -3.3200 N.am   32  ASN32      -0.0877
      9  N        -49.8420   21.5120   -3.1300 N.3    34  LEU34      -0.1231
     10  CA       -50.9220   21.0960   -4.0150 C.3    34  LEU34       0.1693
     11  C        -50.3490   20.7050   -5.3580 C.2    34  LEU34       0.2591
     12  O        -49.4850   21.4000   -5.8870 O.2    34  LEU34      -0.2718
     13  CB       -51.9750   22.2040   -4.1530 C.3    34  LEU34       0.0284
     14  CG       -52.8160   22.3490   -2.8820 C.3    34  LEU34       0.0019
     15  CD1      -53.6290   23.6240   -2.9120 C.3    34  LEU34       0.0001
     16  CD2      -53.7300   21.1420   -2.6950 C.3    34  LEU34       0.0001
     17  N        -50.8120   19.5780   -5.8930 N.am   35  ARG35      -0.1980
     18  CA       -50.3090   19.0490   -7.1550 C.3    35  ARG35       0.1597
     19  C        -51.4440   18.4920   -7.9880 C.2    35  ARG35       0.2287
     20  O        -52.3850   17.9290   -7.4540 O.2    35  ARG35      -0.2864
     21  CB       -49.2890   17.9250   -6.9150 C.3    35  ARG35       0.0334
     22  CG       -48.0860   18.2810   -6.0500 C.3    35  ARG35       0.0492
     23  CD       -47.1470   19.2780   -6.7140 C.3    35  ARG35       0.2205
     24  NE       -46.1970   19.8500   -5.7650 N.pl3  35  ARG35      -0.0865
     25  CZ       -45.1120   19.2390   -5.2850 C.cat  35  ARG35       0.5346
     26  NH1      -44.7830   18.0040   -5.6570 N.pl3  35  ARG35       0.1354
     27  NH2      -44.3420   19.8770   -4.4130 N.pl3  35  ARG35       0.1354
     28  N        -51.9600   16.0090  -11.4720 N.3    37  VAL37      -0.1231
     29  CA       -51.1560   14.8800  -11.8550 C.3    37  VAL37       0.1692
     30  C        -51.9130   14.0580  -12.8960 C.2    37  VAL37       0.2593
     31  O        -53.1280   13.9220  -12.8100 O.2    37  VAL37      -0.2718
     32  CB       -50.8050   14.1410  -10.5460 C.3    37  VAL37       0.0266
     33  CG1      -51.1250   12.6620  -10.5830 C.3    37  VAL37       0.0020
     34  CG2      -49.3620   14.4060  -10.1580 C.3    37  VAL37       0.0020
     35  N        -51.1960   13.5450  -13.8870 N.am   38  GLY38      -0.1942
     36  CA       -51.7920   12.7190  -14.9370 C.3    38  GLY38       0.2014
     37  C        -51.3080   11.2760  -14.8850 C.2    38  GLY38       0.2638
     38  O        -50.1000   11.0110  -14.9540 O.2    38  GLY38      -0.2714
     39  N        -52.2540   10.3490  -14.7640 N.am   39  LEU39      -0.1977
     40  CA       -51.9660    8.9120  -14.7840 C.3    39  LEU39       0.1596
     41  C        -52.5500    8.2850  -16.0540 C.2    39  LEU39       0.2287
     42  O        -53.6890    8.5740  -16.4340 O.2    39  LEU39      -0.2864
     43  CB       -52.5480    8.2260  -13.5390 C.3    39  LEU39       0.0297
     44  CG       -51.8770    8.4260  -12.1710 C.3    39  LEU39       0.0022
     45  CD1      -50.3630    8.2740  -12.2100 C.3    39  LEU39       0.0001
     46  CD2      -52.2250    9.7720  -11.5890 C.3    39  LEU39       0.0001
     47  N        -49.3780   19.1860  -13.8850 N.3    71  GLU71      -0.1231
     48  CA       -47.9530   19.5230  -13.6660 C.3    71  GLU71       0.1699
     49  C        -46.9690   18.3750  -13.8860 C.2    71  GLU71       0.2592
     50  O        -45.7860   18.6160  -14.1150 O.2    71  GLU71      -0.2718
     51  CB       -47.7420   19.9800  -12.2220 C.3    71  GLU71       0.0402
     52  CG       -48.6210   21.1340  -11.7690 C.3    71  GLU71       0.1161
     53  CD       -48.6740   21.3030  -10.2570 C.2    71  GLU71       0.3649
     54  OE1      -49.3100   22.2930   -9.7980 O.co2  71  GLU71      -0.2457
     55  OE2      -48.0810   20.4650   -9.5350 O.co2  71  GLU71      -0.2457
     56  N        -47.4460   17.1400  -13.7520 N.am   72  ALA72      -0.1966
     57  CA       -46.5840   15.9570  -13.7840 C.3    72  ALA72       0.1728
     58  C        -47.3120   14.7960  -14.4090 C.2    72  ALA72       0.2617
     59  O        -48.5140   14.6500  -14.2390 O.2    72  ALA72      -0.2715
     60  CB       -46.1510   15.5800  -12.3810 C.3    72  ALA72       0.0334
     61  N        -46.5780   13.9570  -15.1200 N.am   73  GLY73      -0.1940
     62  CA       -47.1890   12.8280  -15.7920 C.3    73  GLY73       0.2014
     63  C        -46.3470   11.5900  -15.7060 C.2    73  GLY73       0.2638
     64  O        -45.2810   11.5830  -15.0810 O.2    73  GLY73      -0.2714
     65  N        -46.8540   10.5500  -16.3520 N.am   74  GLU74      -0.1977
     66  CA       -46.2830    9.2210  -16.3130 C.3    74  GLU74       0.1602
     67  C        -45.7140    8.9230  -17.6900 C.2    74  GLU74       0.2287
     68  O        -46.3600    9.2040  -18.7000 O.2    74  GLU74      -0.2864
     69  CB       -47.3740    8.2170  -15.9440 C.3    74  GLU74       0.0415
     70  CG       -46.9370    6.7670  -16.0300 C.3    74  GLU74       0.1163
     71  CD       -47.8520    5.8080  -15.2900 C.2    74  GLU74       0.3649
     72  OE1      -47.3290    4.7850  -14.8050 O.co2  74  GLU74      -0.2457
     73  OE2      -49.0790    6.0550  -15.1890 O.co2  74  GLU74      -0.2457
     74  N        -53.7010   16.3790   -5.4950 N.3   155  LEU155     -0.1245
     75  CA       -53.1600   15.9300   -4.2140 C.3   155  LEU155      0.1561
     76  C        -52.7570   17.0740   -3.3190 C.2   155  LEU155      0.2260
     77  O        -52.3130   18.0980   -3.8070 O.2   155  LEU155     -0.2867
     78  CB       -51.8890   15.1220   -4.4470 C.3   155  LEU155      0.0270
     79  CG       -51.8780   13.9980   -5.4710 C.3   155  LEU155      0.0019
     80  CD1      -50.4330   13.6470   -5.7510 C.3   155  LEU155      0.0001
     81  CD2      -52.6500   12.7980   -4.9540 C.3   155  LEU155      0.0001
     82  N        -49.7890   17.1270   -0.7300 N.3   157  LEU157     -0.1245
     83  CA       -48.6470   16.4080   -0.1840 C.3   157  LEU157      0.1561
     84  C        -48.3380   16.9400    1.2140 C.2   157  LEU157      0.2260
     85  O        -48.7630   18.0440    1.5640 O.2   157  LEU157     -0.2867
     86  CB       -47.4330   16.6300   -1.0640 C.3   157  LEU157      0.0270
     87  CG       -47.6490   16.3010   -2.5320 C.3   157  LEU157      0.0019
     88  CD1      -46.5100   16.9070   -3.3280 C.3   157  LEU157      0.0001
     89  CD2      -47.7730   14.7980   -2.7490 C.3   157  LEU157      0.0001
@<TRIPOS>BOND
     1    68    67    2
     2    67    66    1
     3    42    41    2
     4    65    66    1
     5    65    63   am
     6    66    69    1
     7    41    40    1
     8    70    69    1
     9    70    71    1
    10    62    63    1
    11    62    61    1
    12    63    64    2
    13    71    73   ar
    14    71    72   ar
    15    61    58   am
    16    38    37    2
    17    36    37    1
    18    36    35    1
    19    37    39   am
    20    40    39    1
    21    40    43    1
    22    58    59    2
    23    58    57    1
    24    50    49    2
    25    35    30   am
    26    49    56   am
    27    49    48    1
    28    47    48    1
    29    57    56    1
    30    57    60    1
    31    48    51    1
    32    43    44    1
    33    30    31    2
    34    30    29    1
    35    51    52    1
    36    45    44    1
    37    44    46    1
    38    29    28    1
    39    29    32    1
    40    52    53    1
    41    33    32    1
    42    32    34    1
    43    53    54   ar
    44    53    55   ar
    45    19    20    2
    46    19    18    1
    47    18    21    1
    48    18    17    1
    49    21    22    1
    50    23    22    1
    51    23    24    1
    52    17    11   am
    53    12    11    2
    54    24    25    2
    55    80    79    1
    56    26    25    1
    57    74    75    1
    58    79    81    1
    59    79    78    1
    60    11    10    1
    61    25    27    1
    62     7     6    2
    63    78    75    1
    64    75    76    1
    65    13    10    1
    66    13    14    1
    67    10     9    1
    68     6     5    1
    69     6     8   am
    70     4     3    2
    71    77    76    2
    72     2     5    1
    73     2     3    1
    74     2     1    1
    75    88    87    1
    76    15    14    1
    77    14    16    1
    78    89    87    1
    79    87    86    1
    80    86    83    1
    81    82    83    1
    82    83    84    1
    83    84    85    2
