@<TRIPOS>MOLECULE
tmp/5jq7B01.pdb
 89 87 0 0 0
SMALL
GASTEIGER

@<TRIPOS>ATOM
      1  N        -44.5160    4.0460  -10.6370 N.3    14  LEU14      -0.1245
      2  CA       -44.7450    5.2990  -11.3150 C.3    14  LEU14       0.1561
      3  C        -43.4000    5.8830  -11.7500 C.2    14  LEU14       0.2260
      4  O        -42.6830    6.4970  -10.9520 O.2    14  LEU14      -0.2867
      5  CB       -45.4890    6.2550  -10.3840 C.3    14  LEU14       0.0270
      6  CG       -45.7660    7.6620  -10.9090 C.3    14  LEU14       0.0019
      7  CD1      -46.5090    7.5900  -12.2350 C.3    14  LEU14       0.0001
      8  CD2      -46.5320    8.4900   -9.8820 C.3    14  LEU14       0.0001
      9  N        -42.2040    8.7750  -13.4980 N.3    16  TYR16      -0.1227
     10  CA       -42.8410   10.0630  -13.7650 C.3    16  TYR16       0.1736
     11  C        -41.9600   11.1050  -14.4460 C.2    16  TYR16       0.2595
     12  O        -40.7390   11.0490  -14.3680 O.2    16  TYR16      -0.2718
     13  CB       -43.4730   10.6370  -12.4880 C.3    16  TYR16       0.0548
     14  CG       -42.5440   11.1510  -11.4020 C.ar   16  TYR16      -0.0200
     15  CD1      -42.1160   12.4680  -11.4020 C.ar   16  TYR16      -0.0009
     16  CD2      -42.1580   10.3380  -10.3450 C.ar   16  TYR16      -0.0009
     17  CE1      -41.2980   12.9570  -10.4060 C.ar   16  TYR16       0.0417
     18  CE2      -41.3350   10.8160   -9.3360 C.ar   16  TYR16       0.0417
     19  CZ       -40.9130   12.1300   -9.3710 C.ar   16  TYR16       0.1957
     20  OH       -40.1010   12.6230   -8.3800 O.3    16  TYR16      -0.2866
     21  N        -42.6170   12.0380  -15.1320 N.am   17  TRP17      -0.1962
     22  CA       -41.9740   13.2330  -15.6600 C.3    17  TRP17       0.1771
     23  C        -42.6300   14.4850  -15.0840 C.2    17  TRP17       0.2620
     24  O        -43.8200   14.4820  -14.7610 O.2    17  TRP17      -0.2715
     25  CB       -42.0110   13.2720  -17.1910 C.3    17  TRP17       0.0590
     26  CG       -43.3650   13.1720  -17.8080 C.ar   17  TRP17       0.0006
     27  CD1      -43.9450   12.0520  -18.3030 C.ar   17  TRP17       0.0946
     28  CD2      -44.3010   14.2360  -18.0150 C.ar   17  TRP17       0.0152
     29  NE1      -45.1890   12.3410  -18.7990 N.ar   17  TRP17      -0.2442
     30  CE2      -45.4340   13.6770  -18.6340 C.ar   17  TRP17       0.0810
     31  CE3      -44.2940   15.6070  -17.7290 C.ar   17  TRP17       0.0012
     32  CZ2      -46.5580   14.4370  -18.9670 C.ar   17  TRP17       0.0191
     33  CZ3      -45.4070   16.3660  -18.0640 C.ar   17  TRP17       0.0001
     34  CH2      -46.5290   15.7770  -18.6740 C.ar   17  TRP17       0.0015
     35  N        -41.8430   15.5500  -14.9640 N.am   18  THR18      -0.1937
     36  CA       -42.3480   16.8570  -14.5410 C.3    18  THR18       0.2028
     37  C        -41.3070   17.9230  -14.8550 C.2    18  THR18       0.2643
     38  O        -40.2940   17.6230  -15.4790 O.2    18  THR18      -0.2714
     39  CB       -42.6940   16.8720  -13.0400 C.3    18  THR18       0.1808
     40  OG1      -43.3900   18.0740  -12.7120 O.3    18  THR18      -0.2208
     41  CG2      -41.4330   16.7320  -12.1700 C.3    18  THR18       0.0379
     42  N        -41.5620   19.1600  -14.4340 N.am   19  THR19      -0.1936
     43  CA       -40.5970   20.2440  -14.5870 C.3    19  THR19       0.2028
     44  C        -39.7990   20.4050  -13.2940 C.2    19  THR19       0.2642
     45  O        -40.2220   19.9340  -12.2340 O.2    19  THR19      -0.2714
     46  CB       -41.2890   21.5650  -14.9620 C.3    19  THR19       0.1808
     47  OG1      -42.1520   21.9800  -13.9020 O.3    19  THR19      -0.2208
     48  CG2      -42.0970   21.4040  -16.2260 C.3    19  THR19       0.0379
     49  N        -38.6440   21.0650  -13.3880 N.am   20  GLN20      -0.1963
     50  CA       -37.8130   21.3470  -12.2090 C.3    20  GLN20       0.1733
     51  C        -38.4750   22.4100  -11.3190 C.2    20  GLN20       0.2616
     52  O        -38.9270   23.4430  -11.8260 O.2    20  GLN20      -0.2715
     53  CB       -36.4270   21.8280  -12.6400 C.3    20  GLN20       0.0408
     54  CG       -35.4120   21.9170  -11.5110 C.3    20  GLN20       0.0908
     55  CD       -34.8740   20.5610  -11.1000 C.2    20  GLN20       0.2608
     56  OE1      -33.9540   20.0350  -11.7270 O.2    20  GLN20      -0.2717
     57  NE2      -35.4350   19.9950  -10.0340 N.am   20  GLN20      -0.0878
     58  N        -38.5510   22.1330  -10.0120 N.am   21  ASP21      -0.1971
     59  CA       -39.0630   23.0930   -9.0030 C.3    21  ASP21       0.1709
     60  C        -38.0090   23.6140   -7.9960 C.2    21  ASP21       0.2293
     61  O        -38.1830   24.7030   -7.4390 O.2    21  ASP21      -0.2864
     62  CB       -40.2920   22.5130   -8.2620 C.3    21  ASP21       0.1436
     63  CG       -39.9420   21.3950   -7.2630 C.2    21  ASP21       0.3671
     64  OD1      -40.7730   21.1570   -6.3600 O.co2  21  ASP21      -0.2456
     65  OD2      -38.8700   20.7480   -7.3710 O.co2  21  ASP21      -0.2456
     66  N        -41.1070    6.0950   -8.5230 N.3    47  MET47      -0.1245
     67  CA       -41.7920    5.8840   -7.2550 C.3    47  MET47       0.1570
     68  C        -42.3480    4.4730   -7.2070 C.2    47  MET47       0.2261
     69  O        -42.9660    4.0200   -8.1690 O.2    47  MET47      -0.2867
     70  CB       -42.9430    6.8610   -7.1350 C.3    47  MET47       0.0387
     71  CG       -42.6070    8.1350   -6.3910 C.3    47  MET47       0.0595
     72  SD       -42.9070    7.9760   -4.6240 S.3    47  MET47      -0.1393
     73  CE       -44.6250    7.4690   -4.5750 C.3    47  MET47       0.0692
     74  N        -49.5370    3.5880   -2.3880 N.3    53  LEU53      -0.1245
     75  CA       -49.7890    4.9610   -2.8610 C.3    53  LEU53       0.1561
     76  C        -49.9860    5.0280   -4.3680 C.2    53  LEU53       0.2260
     77  O        -50.9110    5.6680   -4.8240 O.2    53  LEU53      -0.2867
     78  CB       -48.6550    5.9000   -2.4260 C.3    53  LEU53       0.0270
     79  CG       -48.6050    7.3350   -2.9770 C.3    53  LEU53       0.0019
     80  CD1      -49.8960    8.1220   -2.7510 C.3    53  LEU53       0.0001
     81  CD2      -47.4280    8.0730   -2.3560 C.3    53  LEU53       0.0001
     82  N        -53.3480    6.1730   -6.1690 N.3    57  LEU57      -0.1245
     83  CA       -53.2160    7.2930   -7.0910 C.3    57  LEU57       0.1561
     84  C        -53.9080    7.0170   -8.4320 C.2    57  LEU57       0.2260
     85  O        -54.6340    7.8650   -8.9450 O.2    57  LEU57      -0.2867
     86  CB       -51.7230    7.5720   -7.3150 C.3    57  LEU57       0.0270
     87  CG       -51.1890    8.9820   -7.5160 C.3    57  LEU57       0.0019
     88  CD1      -51.7770    9.9780   -6.5270 C.3    57  LEU57       0.0001
     89  CD2      -49.6730    8.9200   -7.3670 C.3    57  LEU57       0.0001
@<TRIPOS>BOND
     1    32    34   ar
     2    32    30   ar
     3    29    30   ar
     4    29    27   ar
     5    34    33   ar
     6    30    28   ar
     7    27    26   ar
     8    33    31   ar
     9    28    26   ar
    10    28    31   ar
    11    26    25    1
    12    25    22    1
    13    48    46    1
    14    22    21    1
    15    22    23    1
    16    38    37    2
    17    21    11   am
    18    23    35   am
    19    23    24    2
    20    35    36    1
    21    46    43    1
    22    46    47    1
    23    37    36    1
    24    37    42   am
    25    43    42    1
    26    43    44    1
    27    36    39    1
    28    11    12    2
    29    11    10    1
    30    10     9    1
    31    10    13    1
    32    49    44   am
    33    49    50    1
    34    44    45    2
    35    39    40    1
    36    39    41    1
    37    53    50    1
    38    53    54    1
    39    13    14    1
    40     7     6    1
    41    50    51    1
    42    52    51    2
    43     3     2    1
    44     3     4    2
    45    56    55    2
    46    54    55    1
    47    15    14   ar
    48    15    17   ar
    49    14    16   ar
    50    51    58   am
    51     2     1    1
    52     2     5    1
    53    55    57   am
    54     6     5    1
    55     6     8    1
    56    17    19   ar
    57    16    18   ar
    58    58    59    1
    59    19    18   ar
    60    19    20    1
    61    59    62    1
    62    59    60    1
    63    85    84    2
    64    66    67    1
    65    84    83    1
    66    62    63    1
    67    69    68    2
    68    60    61    2
    69    87    89    1
    70    87    86    1
    71    87    88    1
    72    65    63   ar
    73    86    83    1
    74    63    64   ar
    75    67    68    1
    76    67    70    1
    77    70    71    1
    78    83    82    1
    79    71    72    1
    80    77    76    2
    81    72    73    1
    82    76    75    1
    83    79    80    1
    84    79    78    1
    85    79    81    1
    86    75    78    1
    87    75    74    1
