@<TRIPOS>MOLECULE
tmp/5jq8A00.pdb
 200 192 0 0 0
SMALL
GASTEIGER

@<TRIPOS>ATOM
      1  N         -0.4910  -11.1690  -38.1900 N.3     6  GLU6       -0.1231
      2  CA        -0.1380  -12.3200  -37.3550 C.3     6  GLU6        0.1699
      3  C         -0.6780  -12.1970  -35.9550 C.2     6  GLU6        0.2592
      4  O         -0.9810  -11.0660  -35.4610 O.2     6  GLU6       -0.2718
      5  CB         1.3780  -12.5950  -37.2970 C.3     6  GLU6        0.0402
      6  CG         2.2760  -11.4650  -36.7800 C.3     6  GLU6        0.1161
      7  CD         3.6790  -11.9370  -36.4480 C.2     6  GLU6        0.3649
      8  OE1        3.9780  -13.1040  -36.7420 O.co2   6  GLU6       -0.2457
      9  OE2        4.4980  -11.1680  -35.9040 O.co2   6  GLU6       -0.2457
     10  N         -0.7580  -13.3600  -35.3070 N.am    7  LYS7       -0.1966
     11  CA        -1.3020  -13.4790  -33.9650 C.3     7  LYS7        0.1728
     12  C         -0.1940  -13.2130  -33.0090 C.2     7  LYS7        0.2616
     13  O          0.8550  -13.8650  -33.0440 O.2     7  LYS7       -0.2715
     14  CB        -1.8730  -14.8680  -33.7260 C.3     7  LYS7        0.0311
     15  CG        -2.7820  -14.9840  -32.4850 C.3     7  LYS7        0.0038
     16  CD        -3.4060  -16.4200  -32.3650 C.3     7  LYS7        0.0206
     17  CE        -4.0460  -16.8990  -33.7170 C.3     7  LYS7        0.1093
     18  NZ        -3.9170  -18.3680  -34.0460 N.3     7  LYS7       -0.1314
     19  N         -0.4430  -12.2590  -32.1330 N.am    8  ILE8       -0.1963
     20  CA         0.6030  -11.6210  -31.3830 C.3     8  ILE8        0.1727
     21  C          0.4760  -11.9830  -29.9110 C.2     8  ILE8        0.2617
     22  O          1.2970  -11.5880  -29.0460 O.2     8  ILE8       -0.2715
     23  CB         0.5520  -10.0930  -31.7060 C.3     8  ILE8        0.0290
     24  CG1        1.8530   -9.6360  -32.3180 C.3     8  ILE8        0.0022
     25  CG2        0.0340   -9.2530  -30.6070 C.3     8  ILE8        0.0023
     26  CD1        1.9790  -10.1020  -33.7070 C.3     8  ILE8        0.0001
     27  N         -0.5430  -12.7850  -29.6100 N.am    9  GLY9       -0.1940
     28  CA        -0.8090  -13.0550  -28.2150 C.3     9  GLY9        0.2014
     29  C         -2.2550  -13.3260  -27.9300 C.2     9  GLY9        0.2639
     30  O         -3.1320  -13.2240  -28.8240 O.2     9  GLY9       -0.2714
     31  N         -2.5020  -13.7060  -26.6820 N.am   10  GLU10      -0.1963
     32  CA        -3.8260  -14.1300  -26.2860 C.3    10  GLU10       0.1733
     33  C         -4.0210  -13.7910  -24.8330 C.2    10  GLU10       0.2617
     34  O         -3.3700  -14.3640  -23.9350 O.2    10  GLU10      -0.2715
     35  CB        -4.0340  -15.6150  -26.5660 C.3    10  GLU10       0.0429
     36  CG        -4.2180  -15.9430  -28.0550 C.3    10  GLU10       0.1163
     37  CD        -4.8400  -17.3020  -28.2980 C.2    10  GLU10       0.3649
     38  OE1       -5.5350  -17.7800  -27.3820 O.co2  10  GLU10      -0.2457
     39  OE2       -4.6440  -17.8820  -29.3990 O.co2  10  GLU10      -0.2457
     40  N         -4.9100  -12.8270  -24.6190 N.am   11  GLY11      -0.1940
     41  CA        -5.1370  -12.2680  -23.3090 C.3    11  GLY11       0.2014
     42  C         -6.3650  -12.8160  -22.6390 C.2    11  GLY11       0.2639
     43  O         -7.1480  -13.5880  -23.2190 O.2    11  GLY11      -0.2714
     44  N         -6.5140  -12.4250  -21.3850 N.am   12  THR12      -0.1950
     45  CA        -7.7440  -12.6620  -20.6560 C.3    12  THR12       0.1897
     46  C         -8.8950  -12.2950  -21.5960 C.2    12  THR12       0.2313
     47  O         -9.7380  -13.1580  -21.9270 O.2    12  THR12      -0.2863
     48  CB        -7.7460  -11.8370  -19.3340 C.3    12  THR12       0.1794
     49  OG1       -6.7320  -10.8230  -19.4290 O.3    12  THR12      -0.2208
     50  CG2       -7.3990  -12.7310  -18.1310 C.3    12  THR12       0.0378
     51  N         -5.2590  -11.2050  -29.7590 N.3    16  VAL16      -0.1245
     52  CA        -4.5970   -9.9900  -30.2780 C.3    16  VAL16       0.1561
     53  C         -3.8240  -10.2540  -31.5580 C.2    16  VAL16       0.2260
     54  O         -3.0090  -11.1540  -31.6100 O.2    16  VAL16      -0.2867
     55  CB        -3.6280   -9.3500  -29.2520 C.3    16  VAL16       0.0252
     56  CG1       -3.0390   -8.0240  -29.8580 C.3    16  VAL16       0.0019
     57  CG2       -4.3370   -9.0340  -27.9410 C.3    16  VAL16       0.0019
     58  N         -2.0500   -3.0540  -33.0670 N.3    29  ALA29      -0.1245
     59  CA        -2.3510   -4.2950  -32.3990 C.3    29  ALA29       0.1562
     60  C         -3.8600   -4.2130  -32.2300 C.2    29  ALA29       0.2260
     61  O         -4.3950   -3.2800  -31.6050 O.2    29  ALA29      -0.2867
     62  CB        -1.6660   -4.3450  -31.0610 C.3    29  ALA29       0.0290
     63  N         -7.1990   -5.8980  -30.9010 N.3    31  LYS31      -0.1245
     64  CA        -7.6430   -6.8420  -29.8800 C.3    31  LYS31       0.1561
     65  C         -9.1610   -7.0010  -29.9690 C.2    31  LYS31       0.2260
     66  O         -9.9180   -6.0470  -29.8710 O.2    31  LYS31      -0.2867
     67  CB        -7.1990   -6.3650  -28.4890 C.3    31  LYS31       0.0271
     68  CG        -7.6140   -7.2490  -27.3730 C.3    31  LYS31       0.0035
     69  CD        -7.6010   -6.5230  -26.0330 C.3    31  LYS31       0.0206
     70  CE        -7.6730   -7.4870  -24.8050 C.3    31  LYS31       0.1093
     71  NZ        -6.8330   -8.7490  -24.8420 N.3    31  LYS31      -0.1314
     72  N          0.6380    2.1350  -23.3310 N.3    53  VAL53      -0.1245
     73  CA         0.2550    1.7530  -24.7120 C.3    53  VAL53       0.1561
     74  C         -0.9930    2.5430  -25.1250 C.2    53  VAL53       0.2260
     75  O         -2.0310    2.4940  -24.4610 O.2    53  VAL53      -0.2867
     76  CB         0.0680    0.2130  -24.8600 C.3    53  VAL53       0.0252
     77  CG1       -0.2050   -0.1670  -26.3440 C.3    53  VAL53       0.0019
     78  CG2        1.4220   -0.5150  -24.4530 C.3    53  VAL53       0.0019
     79  N         -4.8260   -0.6820  -30.5870 N.3    69  PHE69      -0.1227
     80  CA        -3.7560   -0.1270  -29.7870 C.3    69  PHE69       0.1736
     81  C         -2.5810    0.2320  -30.6760 C.2    69  PHE69       0.2595
     82  O         -2.4000   -0.3700  -31.7120 O.2    69  PHE69      -0.2718
     83  CB        -3.3100   -1.1590  -28.7300 C.3    69  PHE69       0.0547
     84  CG        -4.2540   -1.2870  -27.5810 C.ar   69  PHE69      -0.0202
     85  CD1       -4.2670   -0.3040  -26.5600 C.ar   69  PHE69      -0.0042
     86  CD2       -5.1310   -2.3550  -27.4820 C.ar   69  PHE69      -0.0042
     87  CE1       -5.0840   -0.4170  -25.4440 C.ar   69  PHE69      -0.0003
     88  CE2       -5.9940   -2.4840  -26.3520 C.ar   69  PHE69      -0.0003
     89  CZ        -5.9860   -1.5280  -25.3420 C.ar   69  PHE69      -0.0000
     90  N         -1.7850    1.2400  -30.2840 N.am   70  GLU70      -0.1965
     91  CA        -0.3670    1.3020  -30.7020 C.3    70  GLU70       0.1733
     92  C          0.3070   -0.0970  -30.7030 C.2    70  GLU70       0.2616
     93  O          0.1810   -0.8110  -29.7140 O.2    70  GLU70      -0.2715
     94  CB         0.3500    2.0920  -29.5710 C.3    70  GLU70       0.0429
     95  CG         1.7430    2.5450  -29.9270 C.3    70  GLU70       0.1163
     96  CD         2.4360    3.1810  -28.7130 C.2    70  GLU70       0.3649
     97  OE1        3.6070    3.5220  -28.8380 O.co2  70  GLU70      -0.2457
     98  OE2        1.8310    3.3290  -27.6300 O.co2  70  GLU70      -0.2457
     99  N          1.1340   -0.4320  -31.6940 N.am   71  PHE71      -0.1960
    100  CA         1.8410   -1.7300  -31.7420 C.3    71  PHE71       0.1771
    101  C          3.2560   -1.4850  -31.2190 C.2    71  PHE71       0.2619
    102  O          3.8610   -0.4490  -31.5780 O.2    71  PHE71      -0.2715
    103  CB         1.9190   -2.2200  -33.2230 C.3    71  PHE71       0.0574
    104  CG         2.7530   -3.4280  -33.4250 C.ar   71  PHE71      -0.0200
    105  CD1        4.0710   -3.3180  -33.8930 C.ar   71  PHE71      -0.0042
    106  CD2        2.2560   -4.6900  -33.0860 C.ar   71  PHE71      -0.0042
    107  CE1        4.8440   -4.5060  -34.0780 C.ar   71  PHE71      -0.0003
    108  CE2        3.0060   -5.8420  -33.2490 C.ar   71  PHE71      -0.0003
    109  CZ         4.2940   -5.7480  -33.7260 C.ar   71  PHE71      -0.0000
    110  N          3.7390   -2.3780  -30.3590 N.am   72  LEU72      -0.1963
    111  CA         5.1670   -2.4340  -29.9670 C.3    72  LEU72       0.1728
    112  C          5.7480   -3.7470  -30.3260 C.2    72  LEU72       0.2616
    113  O          5.0310   -4.7630  -30.3340 O.2    72  LEU72      -0.2715
    114  CB         5.3920   -2.2040  -28.4430 C.3    72  LEU72       0.0311
    115  CG         5.3280   -0.7130  -28.1290 C.3    72  LEU72       0.0022
    116  CD1        3.8500   -0.4030  -27.8870 C.3    72  LEU72       0.0001
    117  CD2        6.1520   -0.1960  -26.9410 C.3    72  LEU72       0.0001
    118  N          7.0650   -3.7840  -30.5250 N.am   73  HIS73      -0.1959
    119  CA         7.5730   -4.9580  -31.1940 C.3    73  HIS73       0.1787
    120  C          7.9300   -6.1130  -30.2880 C.2    73  HIS73       0.2620
    121  O          8.1740   -7.1960  -30.7770 O.2    73  HIS73      -0.2715
    122  CB         8.7550   -4.6110  -32.0970 C.3    73  HIS73       0.0785
    123  CG         8.3640   -3.9420  -33.3870 C.ar   73  HIS73       0.0821
    124  ND1        8.0890   -2.5820  -33.4730 N.ar   73  HIS73      -0.2267
    125  CD2        8.2170   -4.4500  -34.6440 C.ar   73  HIS73       0.1154
    126  CE1        7.7920   -2.2830  -34.7320 C.ar   73  HIS73       0.1986
    127  NE2        7.8860   -3.3880  -35.4650 N.ar   73  HIS73      -0.2212
    128  N          7.9400   -5.9020  -28.9680 N.am   74  GLN74      -0.1963
    129  CA         8.5670   -6.8840  -28.1130 C.3    74  GLN74       0.1733
    130  C          7.9990   -6.7670  -26.7100 C.2    74  GLN74       0.2616
    131  O          7.7080   -5.6830  -26.2940 O.2    74  GLN74      -0.2715
    132  CB        10.0730   -6.6070  -28.1630 C.3    74  GLN74       0.0408
    133  CG        10.8930   -7.2000  -27.0820 C.3    74  GLN74       0.0908
    134  CD        11.1500   -8.6400  -27.3020 C.2    74  GLN74       0.2608
    135  OE1       10.2060   -9.4020  -27.5510 O.2    74  GLN74      -0.2717
    136  NE2       12.4310   -9.0430  -27.2110 N.am   74  GLN74      -0.0878
    137  N          7.8250   -7.8610  -25.9770 N.am   75  ASP75      -0.1971
    138  CA         7.4280   -7.7180  -24.5450 C.3    75  ASP75       0.1709
    139  C          8.5450   -8.0510  -23.5740 C.2    75  ASP75       0.2293
    140  O          9.5940   -8.5910  -23.9610 O.2    75  ASP75      -0.2864
    141  CB         6.1240   -8.4680  -24.1550 C.3    75  ASP75       0.1436
    142  CG         6.3120  -10.0350  -24.1520 C.2    75  ASP75       0.3671
    143  OD1        7.3660  -10.5460  -23.7680 O.co2  75  ASP75      -0.2456
    144  OD2        5.4350  -10.7240  -24.5950 O.co2  75  ASP75      -0.2456
    145  N          9.8060  -11.7440  -23.1620 N.3    78  LYS78      -0.1245
    146  CA        10.6280  -12.2210  -24.2580 C.3    78  LYS78       0.1561
    147  C         11.9920  -11.5880  -24.2300 C.2    78  LYS78       0.2260
    148  O         12.9950  -12.2290  -24.5820 O.2    78  LYS78      -0.2867
    149  CB         9.9210  -11.9190  -25.5930 C.3    78  LYS78       0.0271
    150  CG         8.9920  -13.0510  -25.9500 C.3    78  LYS78       0.0035
    151  CD         8.1230  -12.7750  -27.1820 C.3    78  LYS78       0.0206
    152  CE         6.6840  -12.4080  -26.7130 C.3    78  LYS78       0.1093
    153  NZ         5.5970  -13.0650  -27.4830 N.3    78  LYS78      -0.1314
    154  N          2.1780   -7.6610  -15.3890 N.3   118  LYS118     -0.1245
    155  CA         2.9730   -8.8630  -15.5240 C.3   118  LYS118      0.1561
    156  C          3.9420   -8.5920  -16.6930 C.2   118  LYS118      0.2260
    157  O          3.6770   -7.6820  -17.4930 O.2   118  LYS118     -0.2867
    158  CB         2.0720  -10.1230  -15.7180 C.3   118  LYS118      0.0271
    159  CG         1.1890  -10.1540  -16.9760 C.3   118  LYS118      0.0035
    160  CD         0.0650  -11.1890  -16.6830 C.3   118  LYS118      0.0206
    161  CE        -0.9010  -11.2960  -17.8070 C.3   118  LYS118      0.1093
    162  NZ        -2.1710  -11.9220  -17.3370 N.3   118  LYS118     -0.1314
    163  N          4.3890  -10.0090  -19.5160 N.3   120  GLN120     -0.1231
    164  CA         3.7370  -10.0600  -20.8600 C.3   120  GLN120      0.1698
    165  C          2.9300   -8.7740  -21.1850 C.2   120  GLN120      0.2592
    166  O          2.6650   -8.5100  -22.3410 O.2   120  GLN120     -0.2718
    167  CB         2.7590  -11.2520  -20.9790 C.3   120  GLN120      0.0381
    168  CG         3.4840  -12.6160  -21.1140 C.3   120  GLN120      0.0905
    169  CD         2.5080  -13.7380  -21.4900 C.2   120  GLN120      0.2608
    170  OE1        1.4560  -13.9060  -20.8640 O.2   120  GLN120     -0.2717
    171  NE2        2.8520  -14.4960  -22.5070 N.am  120  GLN120     -0.0878
    172  N          2.5560   -8.0100  -20.1590 N.am  121  ASN121     -0.1974
    173  CA         1.8060   -6.7140  -20.2830 C.3   121  ASN121      0.1688
    174  C          2.7180   -5.5050  -20.3250 C.2   121  ASN121      0.2292
    175  O          2.2200   -4.3760  -20.2360 O.2   121  ASN121     -0.2864
    176  CB         0.8030   -6.5100  -19.0770 C.3   121  ASN121      0.1181
    177  CG        -0.4600   -7.2230  -19.2890 C.2   121  ASN121      0.2629
    178  OD1       -0.7470   -7.6180  -20.4370 O.2   121  ASN121     -0.2716
    179  ND2       -1.2490   -7.4260  -18.2170 N.am  121  ASN121     -0.0877
    180  N          5.5520   -3.6110  -22.5730 N.3   123  LEU123     -0.1245
    181  CA         6.0170   -3.7130  -23.9150 C.3   123  LEU123      0.1561
    182  C          7.0960   -2.7170  -24.1640 C.2   123  LEU123      0.2260
    183  O          7.0310   -1.6300  -23.6300 O.2   123  LEU123     -0.2867
    184  CB         4.8260   -3.4360  -24.8490 C.3   123  LEU123      0.0270
    185  CG         3.6030   -4.3940  -24.6930 C.3   123  LEU123      0.0019
    186  CD1        2.5260   -3.9680  -25.8360 C.3   123  LEU123      0.0001
    187  CD2        4.1310   -5.7460  -25.0020 C.3   123  LEU123      0.0001
    188  N          0.6210   -1.9950  -20.8890 N.3   133  ALA133     -0.1231
    189  CA        -0.4390   -2.4550  -21.8120 C.3   133  ALA133      0.1694
    190  C         -1.6300   -3.0210  -21.0480 C.2   133  ALA133      0.2592
    191  O         -1.4670   -3.6610  -20.0200 O.2   133  ALA133     -0.2718
    192  CB         0.1080   -3.5490  -22.6970 C.3   133  ALA133      0.0304
    193  N         -2.8190   -2.8240  -21.5800 N.am  134  ASP134     -0.1974
    194  CA        -4.1090   -3.2810  -20.9630 C.3   134  ASP134      0.1709
    195  C         -4.5560   -2.5480  -19.7340 C.2   134  ASP134      0.2293
    196  O         -5.3350   -3.0630  -18.9280 O.2   134  ASP134     -0.2864
    197  CB        -4.1320   -4.7820  -20.7230 C.3   134  ASP134      0.1436
    198  CG        -4.2230   -5.5550  -22.0340 C.2   134  ASP134      0.3671
    199  OD1       -4.1930   -6.8040  -22.0240 O.co2 134  ASP134     -0.2456
    200  OD2       -4.3380   -4.9120  -23.0870 O.co2 134  ASP134     -0.2456
@<TRIPOS>BOND
     1     1     2    1
     2     2     5    1
     3     2     3    1
     4     5     6    1
     5     6     7    1
     6     8     7   ar
     7     7     9   ar
     8     3     4    2
     9     3    10   am
    10   127   126   ar
    11   127   125   ar
    12    10    11    1
    13   126   124   ar
    14   125   123   ar
    15   107   105   ar
    16   107   109   ar
    17    18    17    1
    18    11    14    1
    19    11    12    1
    20   105   104   ar
    21   109   108   ar
    22    14    15    1
    23    17    16    1
    24    26    24    1
    25   124   123   ar
    26   104   103    1
    27   104   106   ar
    28   123   122    1
    29   108   106   ar
    30   103   100    1
    31    58    59    1
    32    13    12    2
    33    12    19   am
    34    15    16    1
    35    59    60    1
    36    59    62    1
    37    24    23    1
    38    60    61    2
    39    19    20    1
    40   122   119    1
    41   100    99    1
    42   100   101    1
    43    82    81    2
    44    23    20    1
    45    23    25    1
    46    99    92   am
    47    54    53    2
    48   102   101    2
    49    53    52    1
    50    20    21    1
    51   101   110   am
    52   119   118    1
    53   119   120    1
    54    63    64    1
    55   121   120    2
    56    92    91    1
    57    92    93    2
    58    91    90    1
    59    91    94    1
    60    81    90   am
    61    81    80    1
    62    79    80    1
    63   118   112   am
    64   110   111    1
    65   113   112    2
    66   112   111    1
    67   120   128   am
    68    52    51    1
    69    52    55    1
    70    65    64    1
    71    65    66    2
    72   111   114    1
    73    95    94    1
    74    95    96    1
    75    21    27   am
    76    21    22    2
    77    64    67    1
    78    56    55    1
    79    80    83    1
    80    27    28    1
    81    39    37   ar
    82    55    57    1
    83   128   129    1
    84    97    96   ar
    85    30    29    2
    86    83    84    1
    87    96    98   ar
    88    67    68    1
    89   114   115    1
    90    37    36    1
    91    37    38   ar
    92    28    29    1
    93   132   129    1
    94   132   133    1
    95   115   116    1
    96   115   117    1
    97   129   130    1
    98    36    35    1
    99    29    31   am
   100    84    86   ar
   101    84    85   ar
   102   135   134    2
   103   153   152    1
   104    86    88   ar
   105    68    69    1
   106   134   136   am
   107   134   133    1
   108   151   152    1
   109   151   150    1
   110   130   131    2
   111   130   137   am
   112    31    32    1
   113    35    32    1
   114    85    87   ar
   115    88    89   ar
   116    77    76    1
   117    32    33    1
   118    69    70    1
   119   137   138    1
   120   150   149    1
   121   186   185    1
   122   149   146    1
   123    87    89   ar
   124    74    73    1
   125    74    75    2
   126   187   185    1
   127    76    73    1
   128    76    78    1
   129   184   185    1
   130   184   181    1
   131    71    70    1
   132    33    40   am
   133    33    34    2
   134    73    72    1
   135    40    41    1
   136   144   142   ar
   137   148   147    2
   138   138   141    1
   139   138   139    1
   140   146   147    1
   141   146   145    1
   142   182   181    1
   143   182   183    2
   144   141   142    1
   145   142   143   ar
   146   140   139    2
   147   181   180    1
   148    41    42    1
   149    43    42    2
   150   200   198   ar
   151   192   189    1
   152    42    44   am
   153   171   169   am
   154   166   165    2
   155   198   199   ar
   156   198   197    1
   157    47    46    2
   158   189   190    1
   159   189   188    1
   160    46    45    1
   161   193   190   am
   162   193   194    1
   163   169   168    1
   164   169   170    2
   165    44    45    1
   166   165   164    1
   167   165   172   am
   168   168   167    1
   169   190   191    2
   170   167   164    1
   171   194   197    1
   172   194   195    1
   173   164   163    1
   174    45    48    1
   175   178   177    2
   176   174   173    1
   177   174   175    2
   178   173   172    1
   179   173   176    1
   180   195   196    2
   181    49    48    1
   182    48    50    1
   183   177   176    1
   184   177   179   am
   185   161   162    1
   186   161   160    1
   187   157   156    2
   188   159   160    1
   189   159   158    1
   190   156   155    1
   191   158   155    1
   192   155   154    1
