@<TRIPOS>MOLECULE
tmp/5jq9A00.pdb
 158 147 0 0 0
SMALL
GASTEIGER

@<TRIPOS>ATOM
      1  N         13.1270   13.6610  122.3040 N.3    52  THR52      -0.1203
      2  CA        12.1400   14.5340  121.6800 C.3    52  THR52       0.1994
      3  C         10.9640   13.7710  121.0810 C.2    52  THR52       0.2617
      4  O         10.0110   14.3750  120.5890 O.2    52  THR52      -0.2717
      5  CB        12.7820   15.3870  120.5700 C.3    52  THR52       0.1784
      6  OG1       13.1010   14.5120  119.4650 O.3    52  THR52      -0.2211
      7  CG2       14.0390   16.0980  121.0280 C.3    52  THR52       0.0376
      8  N         11.0380   12.4440  121.1240 N.am   53  ARG53      -0.1979
      9  CA         9.9950   11.5970  120.5550 C.3    53  ARG53       0.1597
     10  C          8.6570   11.7850  121.2660 C.2    53  ARG53       0.2287
     11  O          8.5970   12.3470  122.3600 O.2    53  ARG53      -0.2864
     12  CB        10.4130   10.1270  120.6140 C.3    53  ARG53       0.0334
     13  CG        11.6040    9.7380  119.7260 C.3    53  ARG53       0.0492
     14  CD        11.1970    9.8450  118.2840 C.3    53  ARG53       0.2205
     15  NE        12.2940    9.4530  117.3900 N.pl3  53  ARG53      -0.0865
     16  CZ        13.0090   10.3670  116.7170 C.cat  53  ARG53       0.5346
     17  NH1       12.7430   11.7000  116.7450 N.pl3  53  ARG53       0.1354
     18  NH2       13.9760    9.9140  115.9230 N.pl3  53  ARG53       0.1354
     19  N         22.2440   18.4320  121.3580 N.3    84  ASP84      -0.1239
     20  CA        20.8060   18.5020  121.1700 C.3    84  ASP84       0.1674
     21  C         20.1370   18.8190  122.4980 C.2    84  ASP84       0.2266
     22  O         19.6490   17.9210  123.1850 O.2    84  ASP84      -0.2867
     23  CB        20.2810   17.1850  120.6060 C.3    84  ASP84       0.1410
     24  CG        18.8570   17.2840  120.1070 C.2    84  ASP84       0.3668
     25  OD1       18.1400   18.2430  120.4640 O.co2  84  ASP84      -0.2456
     26  OD2       18.4530   16.3780  119.3550 O.co2  84  ASP84      -0.2456
     27  N         22.0780   22.6730  118.8790 N.3   103  ASN103     -0.1240
     28  CA        20.9130   22.1960  118.1550 C.3   103  ASN103      0.1653
     29  C         19.7200   22.1390  119.0910 C.2   103  ASN103      0.2266
     30  O         19.6130   21.2400  119.9220 O.2   103  ASN103     -0.2867
     31  CB        21.1820   20.8210  117.5430 C.3   103  ASN103      0.1155
     32  CG        19.9190   20.1510  117.0340 C.2   103  ASN103      0.2627
     33  OD1       19.0920   20.7780  116.3720 O.2   103  ASN103     -0.2716
     34  ND2       19.7660   18.8690  117.3410 N.am  103  ASN103     -0.0877
     35  N         15.6130   22.0370  119.3560 N.3   105  ILE105     -0.1245
     36  CA        14.3220   21.8090  118.7290 C.3   105  ILE105      0.1561
     37  C         13.3060   22.8600  119.1600 C.2   105  ILE105      0.2260
     38  O         12.3460   23.1410  118.4450 O.2   105  ILE105     -0.2867
     39  CB        13.7810   20.4070  119.0660 C.3   105  ILE105      0.0252
     40  CG1       13.6290   20.2440  120.5780 C.3   105  ILE105      0.0019
     41  CG2       14.7070   19.3320  118.5160 C.3   105  ILE105      0.0019
     42  CD1       12.9060   18.9880  120.9880 C.3   105  ILE105      0.0001
     43  N         20.9810   26.0900  115.6780 N.3   125  CYS125     -0.1235
     44  CA        20.0170   25.5860  114.7140 C.3   125  CYS125      0.1677
     45  C         18.6090   25.7200  115.2770 C.2   125  CYS125      0.2270
     46  O         18.3190   25.2420  116.3760 O.2   125  CYS125     -0.2867
     47  CB        20.3120   24.1300  114.3590 C.3   125  CYS125      0.0956
     48  SG        19.0440   23.3360  113.3450 S.3   125  CYS125     -0.0801
     49  N         14.5370   24.9890  114.9660 N.3   127  MET127     -0.1245
     50  CA        13.6680   23.9690  114.4000 C.3   127  MET127      0.1570
     51  C         12.1930   24.3360  114.5340 C.2   127  MET127      0.2261
     52  O         11.7330   24.7040  115.6140 O.2   127  MET127     -0.2867
     53  CB        13.9210   22.6180  115.0650 C.3   127  MET127      0.0387
     54  CG        13.2680   21.4710  114.3290 C.3   127  MET127      0.0595
     55  SD        13.0700   20.0090  115.3520 S.3   127  MET127     -0.1393
     56  CE        11.5980   20.4730  116.2550 C.3   127  MET127      0.0692
     57  N         15.9020   24.3050  110.6320 N.3   167  ASP167     -0.1239
     58  CA        15.4050   22.9470  110.4780 C.3   167  ASP167      0.1674
     59  C         13.8830   22.9780  110.4420 C.2   167  ASP167      0.2266
     60  O         13.2440   23.4270  111.3890 O.2   167  ASP167     -0.2867
     61  CB        15.9180   22.0570  111.6180 C.3   167  ASP167      0.1410
     62  CG        15.5690   20.5870  111.4330 C.2   167  ASP167      0.3668
     63  OD1       14.5200   20.2600  110.8410 O.co2 167  ASP167     -0.2456
     64  OD2       16.3840   19.7450  111.8540 O.co2 167  ASP167     -0.2456
     65  N         10.9700   17.7520  110.5920 N.3   170  PHE170     -0.1227
     66  CA        10.1630   16.6190  110.1520 C.3   170  PHE170      0.1736
     67  C          9.6530   15.8150  111.3470 C.2   170  PHE170      0.2596
     68  O         10.4010   15.5390  112.2840 O.2   170  PHE170     -0.2718
     69  CB        10.9680   15.7150  109.2190 C.3   170  PHE170      0.0547
     70  CG        11.2030   16.3010  107.8540 C.ar  170  PHE170     -0.0202
     71  CD1       10.2910   16.0960  106.8310 C.ar  170  PHE170     -0.0042
     72  CD2       12.3380   17.0510  107.5910 C.ar  170  PHE170     -0.0042
     73  CE1       10.5070   16.6270  105.5740 C.ar  170  PHE170     -0.0003
     74  CE2       12.5580   17.5850  106.3350 C.ar  170  PHE170     -0.0003
     75  CZ        11.6400   17.3730  105.3260 C.ar  170  PHE170     -0.0000
     76  N          8.3780   15.4440  111.3050 N.am  171  GLY171     -0.1942
     77  CA         7.7750   14.6370  112.3500 C.3   171  GLY171      0.2014
     78  C          7.3840   15.4060  113.5990 C.2   171  GLY171      0.2638
     79  O          6.8860   14.8210  114.5610 O.2   171  GLY171     -0.2714
     80  N          7.5950   16.7190  113.5860 N.am  172  PHE172     -0.1973
     81  CA         7.2220   17.5570  114.7210 C.3   172  PHE172      0.1639
     82  C          5.9610   18.3540  114.4170 C.2   172  PHE172      0.2290
     83  O          6.0020   19.3460  113.6890 O.2   172  PHE172     -0.2864
     84  CB         8.3610   18.5030  115.1000 C.3   172  PHE172      0.0560
     85  CG         9.5250   17.8160  115.7460 C.ar  172  PHE172     -0.0200
     86  CD1        9.5860   17.6780  117.1230 C.ar  172  PHE172     -0.0042
     87  CD2       10.5500   17.2960  114.9780 C.ar  172  PHE172     -0.0042
     88  CE1       10.6530   17.0420  117.7240 C.ar  172  PHE172     -0.0003
     89  CE2       11.6220   16.6600  115.5720 C.ar  172  PHE172     -0.0003
     90  CZ        11.6730   16.5320  116.9480 C.ar  172  PHE172     -0.0000
     91  N         19.1890   22.1560  107.9200 N.3   197  LEU197     -0.1245
     92  CA        19.4670   20.8830  108.5680 C.3   197  LEU197      0.1561
     93  C         18.1610   20.0990  108.6200 C.2   197  LEU197      0.2260
     94  O         17.1260   20.6460  108.9910 O.2   197  LEU197     -0.2867
     95  CB        20.0470   21.1030  109.9700 C.3   197  LEU197      0.0270
     96  CG        20.5870   19.9130  110.7720 C.3   197  LEU197      0.0019
     97  CD1       21.7300   20.3700  111.6650 C.3   197  LEU197      0.0001
     98  CD2       19.5050   19.2550  111.6060 C.3   197  LEU197      0.0001
     99  N         16.1050   16.2900  109.6620 N.3   199  GLY199     -0.1225
    100  CA        16.1070   15.0290  110.3800 C.3   199  GLY199      0.1811
    101  C         14.9090   14.1680  110.0290 C.2   199  GLY199      0.2280
    102  O         13.7960   14.4300  110.4830 O.2   199  GLY199     -0.2866
    103  N         14.7120    7.2140  110.1710 N.3   202  ARG202     -0.1231
    104  CA        13.9190    6.2110  110.8800 C.3   202  ARG202      0.1694
    105  C         12.6400    6.7660  111.5000 C.2   202  ARG202      0.2592
    106  O         12.0820    6.1660  112.4160 O.2   202  ARG202     -0.2718
    107  CB        14.7640    5.5470  111.9690 C.3   202  ARG202      0.0321
    108  CG        16.0550    4.9320  111.4640 C.3   202  ARG202      0.0489
    109  CD        16.7100    4.0930  112.5440 C.3   202  ARG202      0.2205
    110  NE        17.8500    3.3340  112.0390 N.pl3 202  ARG202     -0.0865
    111  CZ        18.4850    2.3970  112.7350 C.cat 202  ARG202      0.5346
    112  NH1       18.0910    2.1030  113.9670 N.pl3 202  ARG202      0.1354
    113  NH2       19.5130    1.7540  112.2000 N.pl3 202  ARG202      0.1354
    114  N         12.1750    7.9060  111.0040 N.am  203  LYS203     -0.1966
    115  CA        10.9780    8.5250  111.5570 C.3   203  LYS203      0.1728
    116  C          9.7050    7.9140  110.9800 C.2   203  LYS203      0.2617
    117  O          9.7520    7.1440  110.0190 O.2   203  LYS203     -0.2715
    118  CB        11.0000   10.0370  111.3300 C.3   203  LYS203      0.0311
    119  CG        11.9690   10.7650  112.2490 C.3   203  LYS203      0.0038
    120  CD        11.8210   12.2700  112.1430 C.3   203  LYS203      0.0206
    121  CE        12.7690   12.9780  113.0970 C.3   203  LYS203      0.1093
    122  NZ        12.6500   14.4570  112.9880 N.3   203  LYS203     -0.1314
    123  N          8.5750    8.2390  111.6010 N.am  204  SER204     -0.1936
    124  CA         7.2820    7.6810  111.2180 C.3   204  SER204      0.2055
    125  C          6.9220    7.9580  109.7600 C.2   204  SER204      0.2642
    126  O          6.1890    7.1870  109.1450 O.2   204  SER204     -0.2714
    127  CB         6.1810    8.2210  112.1350 C.3   204  SER204      0.2130
    128  OG         6.0440    9.6250  112.0060 O.3   204  SER204     -0.2179
    129  N          7.4350    9.0530  109.2080 N.am  205  MET205     -0.1976
    130  CA         7.1750    9.3860  107.8110 C.3   205  MET205      0.1605
    131  C          7.7070    8.2960  106.8830 C.2   205  MET205      0.2287
    132  O          7.1750    8.0830  105.7930 O.2   205  MET205     -0.2864
    133  CB         7.7810   10.7440  107.4550 C.3   205  MET205      0.0413
    134  CG         9.2550   10.8890  107.7660 C.3   205  MET205      0.0598
    135  SD         9.8690   12.5070  107.2550 S.3   205  MET205     -0.1393
    136  CE         9.6490   12.4160  105.4800 C.3   205  MET205      0.0692
    137  N         14.2110    0.6910  108.6870 N.3   217  ARG217     -0.1245
    138  CA        13.8500    1.8990  107.9530 C.3   217  ARG217      0.1563
    139  C         15.0610    2.5870  107.3270 C.2   217  ARG217      0.2260
    140  O         14.9900    3.7600  106.9590 O.2   217  ARG217     -0.2867
    141  CB        13.1190    2.8780  108.8740 C.3   217  ARG217      0.0307
    142  CG        11.8110    2.3400  109.4210 C.3   217  ARG217      0.0489
    143  CD        11.1650    3.3070  110.3950 C.3   217  ARG217      0.2205
    144  NE        10.0510    2.6840  111.1030 N.pl3 217  ARG217     -0.0865
    145  CZ         9.4350    3.2210  112.1500 C.cat 217  ARG217      0.5346
    146  NH1        9.8250    4.3980  112.6200 N.pl3 217  ARG217      0.1354
    147  NH2        8.4320    2.5780  112.7320 N.pl3 217  ARG217      0.1354
    148  N         20.7370   14.7890  109.3830 N.3   237  ARG237     -0.1245
    149  CA        20.8310   14.1400  110.6870 C.3   237  ARG237      0.1563
    150  C         20.3010   12.7090  110.6170 C.2   237  ARG237      0.2260
    151  O         19.0990   12.4900  110.4560 O.2   237  ARG237     -0.2867
    152  CB        20.0590   14.9550  111.7270 C.3   237  ARG237      0.0307
    153  CG        20.1940   14.4770  113.1630 C.3   237  ARG237      0.0489
    154  CD        19.3320   15.3280  114.0880 C.3   237  ARG237      0.2205
    155  NE        19.4180   14.9010  115.4820 N.pl3 237  ARG237     -0.0865
    156  CZ        18.6350   13.9780  116.0320 C.cat 237  ARG237      0.5346
    157  NH1       17.6940   13.3840  115.3110 N.pl3 237  ARG237      0.1354
    158  NH2       18.7880   13.6540  117.3090 N.pl3 237  ARG237      0.1354
@<TRIPOS>BOND
     1    75    73   ar
     2    75    74   ar
     3   136   135    1
     4    73    71   ar
     5   132   131    2
     6    74    72   ar
     7    71    70   ar
     8   131   130    1
     9   140   139    2
    10   135   134    1
    11   139   138    1
    12   133   134    1
    13   133   130    1
    14    72    70   ar
    15   130   129    1
    16    70    69    1
    17    91    92    1
    18   138   137    1
    19   138   141    1
    20    92    93    1
    21    92    95    1
    22    93    94    2
    23   141   142    1
    24   126   125    2
    25   129   125   am
    26    69    66    1
    27   148   149    1
    28   142   143    1
    29    99   100    1
    30   125   124    1
    31    95    96    1
    32   117   116    2
    33   101   100    1
    34   101   102    2
    35    66    65    1
    36    66    67    1
    37   103   104    1
    38   143   144    1
    39    59    58    1
    40    59    60    2
    41   151   150    2
    42    58    57    1
    43    58    61    1
    44   150   149    1
    45   149   152    1
    46    96    98    1
    47    96    97    1
    48    63    62   ar
    49   104   105    1
    50   104   107    1
    51   116   115    1
    52   116   123   am
    53   114   105   am
    54   114   115    1
    55   144   145    2
    56   124   123    1
    57   124   127    1
    58    76    67   am
    59    76    77    1
    60   118   115    1
    61   118   119    1
    62    67    68    2
    63    62    61    1
    64    62    64   ar
    65   108   107    1
    66   108   109    1
    67   105   106    2
    68   152   153    1
    69   128   127    1
    70   110   109    1
    71   110   111    2
    72   120   119    1
    73   120   121    1
    74   145   146    1
    75   145   147    1
    76   113   111    1
    77    77    78    1
    78   111   112    1
    79   122   121    1
    80   153   154    1
    81    48    47    1
    82    80    78   am
    83    80    81    1
    84    78    79    2
    85    83    82    2
    86   154   155    1
    87    54    53    1
    88    54    55    1
    89    47    44    1
    90    50    51    1
    91    50    49    1
    92    50    53    1
    93    82    81    1
    94    51    52    2
    95    44    45    1
    96    44    43    1
    97    81    84    1
    98    87    89   ar
    99    87    85   ar
   100    84    85    1
   101    45    46    2
   102   157   156    1
   103    55    56    1
   104   155   156    2
   105    89    90   ar
   106    85    86   ar
   107    18    16    1
   108   156   158    1
   109    33    32    2
   110    16    17    1
   111    16    15    2
   112    90    88   ar
   113    32    34   am
   114    32    31    1
   115    86    88   ar
   116    15    14    1
   117    31    28    1
   118    28    27    1
   119    28    29    1
   120    14    13    1
   121    38    37    2
   122    41    39    1
   123    36    39    1
   124    36    37    1
   125    36    35    1
   126    39    40    1
   127    29    30    2
   128    26    24   ar
   129     6     5    1
   130    13    12    1
   131    24    25   ar
   132    24    23    1
   133     9    12    1
   134     9     8    1
   135     9    10    1
   136     5     7    1
   137     5     2    1
   138    40    42    1
   139     4     3    2
   140    23    20    1
   141     3     8   am
   142     3     2    1
   143    20    19    1
   144    20    21    1
   145    10    11    2
   146     2     1    1
   147    21    22    2
