@<TRIPOS>MOLECULE
tmp/5jqgF00.pdb
 192 180 0 0 0
SMALL
GASTEIGER

@<TRIPOS>ATOM
      1  N         15.0360   58.2700   94.5660 N.3    74  LYS74      -0.1245
      2  CA        14.9560   58.6140   95.9820 C.3    74  LYS74       0.1561
      3  C         15.7330   59.8750   96.3820 C.2    74  LYS74       0.2260
      4  O         15.1710   60.7450   97.0340 O.2    74  LYS74      -0.2867
      5  CB        15.3340   57.4000   96.8330 C.3    74  LYS74       0.0271
      6  CG        14.2310   56.3620   96.7430 C.3    74  LYS74       0.0035
      7  CD        14.6610   55.0040   97.2040 C.3    74  LYS74       0.0206
      8  CE        13.8730   53.8960   96.5200 C.3    74  LYS74       0.1093
      9  NZ        12.4580   53.8980   96.9530 N.3    74  LYS74      -0.1314
     10  N          8.1870   62.1330  104.9300 N.3    95  PRO95      -0.2116
     11  CA         8.9720   61.9660  106.1400 C.3    95  PRO95       0.1372
     12  C         10.2950   62.7210  106.0850 C.2    95  PRO95       0.2244
     13  O         10.9100   62.8430  105.0290 O.2    95  PRO95      -0.2868
     14  CB         9.2280   60.4540  106.1910 C.3    95  PRO95       0.0268
     15  CG         8.1760   59.8660  105.3370 C.3    95  PRO95       0.0207
     16  CD         7.9970   60.8440  104.2410 C.3    95  PRO95       0.0892
     17  N         15.2560   54.5400  108.3170 N.3   107  ILE107     -0.1245
     18  CA        15.4290   53.5790  107.2280 C.3   107  ILE107      0.1561
     19  C         16.4100   54.1340  106.1780 C.2   107  ILE107      0.2260
     20  O         16.3660   55.3250  105.8380 O.2   107  ILE107     -0.2867
     21  CB        14.0660   53.1300  106.6180 C.3   107  ILE107      0.0252
     22  CG1       14.2840   52.0150  105.5750 C.3   107  ILE107      0.0019
     23  CG2       13.2700   54.3240  106.0530 C.3   107  ILE107      0.0019
     24  CD1       13.0240   51.2880  105.1600 C.3   107  ILE107      0.0001
     25  N         17.9110   53.6160  102.2670 N.3   109  LYS109     -0.1245
     26  CA        17.4860   53.0530  100.9720 C.3   109  LYS109      0.1561
     27  C         17.9760   53.8680   99.7610 C.2   109  LYS109      0.2260
     28  O         18.4900   54.9810   99.9330 O.2   109  LYS109     -0.2867
     29  CB        15.9520   52.9260  100.9540 C.3   109  LYS109      0.0271
     30  CG        15.1830   54.1550  101.4580 C.3   109  LYS109      0.0035
     31  CD        13.6600   53.9890  101.3450 C.3   109  LYS109      0.0206
     32  CE        12.8940   55.1980  101.9160 C.3   109  LYS109      0.1093
     33  NZ        11.4530   55.3000  101.5250 N.3   109  LYS109     -0.1314
     34  N         17.9770   47.2710  101.5910 N.3   112  ILE112     -0.1245
     35  CA        17.3790   48.2270  102.5640 C.3   112  ILE112      0.1561
     36  C         17.7810   47.8460  104.0130 C.2   112  ILE112      0.2260
     37  O         17.8950   46.6450  104.3430 O.2   112  ILE112     -0.2867
     38  CB        15.8270   48.2400  102.4250 C.3   112  ILE112      0.0252
     39  CG1       15.4220   48.7990  101.0530 C.3   112  ILE112      0.0019
     40  CG2       15.1580   49.0220  103.5530 C.3   112  ILE112      0.0019
     41  CD1       13.9280   49.0250  100.8360 C.3   112  ILE112      0.0001
     42  N         15.7980   57.9920  105.9310 N.3   122  GLN122     -0.1231
     43  CA        14.4470   58.5070  106.1480 C.3   122  GLN122      0.1698
     44  C         13.8290   58.0280  107.4680 C.2   122  GLN122      0.2592
     45  O         13.9790   56.8690  107.8480 O.2   122  GLN122     -0.2718
     46  CB        13.5810   58.1040  104.9740 C.3   122  GLN122      0.0381
     47  CG        12.1790   58.6280  105.0560 C.3   122  GLN122      0.0905
     48  CD        11.4550   58.3890  103.7760 C.2   122  GLN122      0.2608
     49  OE1       11.0130   57.2740  103.5090 O.2   122  GLN122     -0.2717
     50  NE2       11.3510   59.4280  102.9520 N.am  122  GLN122     -0.0878
     51  N         13.1410   58.9340  108.1650 N.am  123  LYS123     -0.1966
     52  CA        12.4220   58.5740  109.3890 C.3   123  LYS123      0.1728
     53  C         11.4790   57.4210  109.0590 C.2   123  LYS123      0.2616
     54  O         10.6370   57.5290  108.1700 O.2   123  LYS123     -0.2715
     55  CB        11.6510   59.7800  109.9850 C.3   123  LYS123      0.0311
     56  CG        11.0490   59.5600  111.3750 C.3   123  LYS123      0.0038
     57  CD        12.1190   59.4230  112.4700 C.3   123  LYS123      0.0206
     58  CE        11.6120   58.7540  113.7450 C.3   123  LYS123      0.1093
     59  NZ        11.0430   57.3880  113.5030 N.3   123  LYS123     -0.1314
     60  N         11.6600   56.3110  109.7660 N.am  124  TYR124     -0.1960
     61  CA        10.8420   55.1190  109.5770 C.3   124  TYR124      0.1771
     62  C          9.5720   55.3100  110.4120 C.2   124  TYR124      0.2619
     63  O          9.6390   55.6330  111.6160 O.2   124  TYR124     -0.2715
     64  CB        11.6260   53.8690  110.0130 C.3   124  TYR124      0.0574
     65  CG        10.8980   52.5630  109.7650 C.ar  124  TYR124     -0.0198
     66  CD1       10.8240   52.0160  108.4900 C.ar  124  TYR124     -0.0009
     67  CD2       10.2830   51.8760  110.8050 C.ar  124  TYR124     -0.0009
     68  CE1       10.1590   50.8090  108.2660 C.ar  124  TYR124      0.0417
     69  CE2        9.6230   50.6750  110.5850 C.ar  124  TYR124      0.0417
     70  CZ         9.5620   50.1480  109.3080 C.ar  124  TYR124      0.1957
     71  OH         8.8870   48.9660  109.0710 O.3   124  TYR124     -0.2866
     72  N          8.4220   55.1310  109.7650 N.am  125  LEU125     -0.1977
     73  CA         7.1250   55.4000  110.3770 C.3   125  LEU125      0.1596
     74  C          6.7930   54.2600  111.3600 C.2   125  LEU125      0.2287
     75  O          6.4040   53.1340  110.9630 O.2   125  LEU125     -0.2864
     76  CB         6.0410   55.5970  109.3040 C.3   125  LEU125      0.0297
     77  CG         6.3190   56.7430  108.2840 C.3   125  LEU125      0.0022
     78  CD1        5.5520   56.5310  106.9850 C.3   125  LEU125      0.0001
     79  CD2        6.0360   58.1380  108.8360 C.3   125  LEU125      0.0001
     80  N          1.0310   45.6670  108.3860 N.3   137  LYS137     -0.1245
     81  CA         1.3990   46.8080  107.5600 C.3   137  LYS137      0.1561
     82  C          0.9620   46.6180  106.1000 C.2   137  LYS137      0.2260
     83  O          0.7610   45.5030  105.6310 O.2   137  LYS137     -0.2867
     84  CB         2.9240   47.0090  107.6330 C.3   137  LYS137      0.0271
     85  CG         3.4410   48.2690  106.9610 C.3   137  LYS137      0.0035
     86  CD         4.9650   48.3270  106.8920 C.3   137  LYS137      0.0206
     87  CE         5.5620   49.4080  107.7750 C.3   137  LYS137      0.1093
     88  NZ         6.9000   49.7270  107.2430 N.3   137  LYS137     -0.1314
     89  N          1.1200   49.2860  102.1000 N.3   139  ASP139     -0.1239
     90  CA         1.3320   50.5680  101.4120 C.3   139  ASP139      0.1674
     91  C          0.2670   50.6760  100.3150 C.2   139  ASP139      0.2266
     92  O         -0.2750   49.6610   99.8690 O.2   139  ASP139     -0.2867
     93  CB         2.7850   50.7300  100.9000 C.3   139  ASP139      0.1410
     94  CG         3.1100   49.8560   99.6760 C.2   139  ASP139      0.3668
     95  OD1        2.8130   50.2770   98.5400 O.co2 139  ASP139     -0.2456
     96  OD2        3.7090   48.7710   99.8360 O.co2 139  ASP139     -0.2456
     97  N         -0.6010   51.8280   96.5330 N.3   141  ARG141     -0.1245
     98  CA        -0.2170   52.2820   95.1910 C.3   141  ARG141      0.1563
     99  C         -1.3980   53.0120   94.5220 C.2   141  ARG141      0.2260
    100  O         -2.5250   52.5100   94.4580 O.2   141  ARG141     -0.2867
    101  CB         0.2880   51.1130   94.3340 C.3   141  ARG141      0.0307
    102  CG         0.2320   51.3000   92.8200 C.3   141  ARG141      0.0489
    103  CD         1.1580   52.3860   92.3290 C.3   141  ARG141      0.2205
    104  NE         2.5630   52.1010   92.6150 N.pl3 141  ARG141     -0.0865
    105  CZ         3.3450   51.2730   91.9250 C.cat 141  ARG141      0.5346
    106  NH1        2.8940   50.6150   90.8640 N.pl3 141  ARG141      0.1354
    107  NH2        4.6090   51.0930   92.3040 N.pl3 141  ARG141      0.1354
    108  N         -0.8490   46.9520   98.9180 N.3   161  ARG161     -0.1245
    109  CA         0.0990   45.8430   98.8770 C.3   161  ARG161      0.1563
    110  C          0.4200   45.5730  100.3370 C.2   161  ARG161      0.2260
    111  O          1.0910   46.3780  100.9910 O.2   161  ARG161     -0.2867
    112  CB         1.3300   46.2050   98.0090 C.3   161  ARG161      0.0307
    113  CG         0.8990   46.5670   96.5820 C.3   161  ARG161      0.0489
    114  CD         1.9560   47.2230   95.7180 C.3   161  ARG161      0.2205
    115  NE         2.6100   48.4070   96.3030 N.pl3 161  ARG161     -0.0865
    116  CZ         3.6720   49.0080   95.7580 C.cat 161  ARG161      0.5346
    117  NH1        4.1960   48.5900   94.6050 N.pl3 161  ARG161      0.1354
    118  NH2        4.2320   50.0260   96.3660 N.pl3 161  ARG161      0.1354
    119  N          8.0600   44.1920  107.8960 N.3   178  HIS178     -0.1226
    120  CA         8.3650   45.6210  107.7940 C.3   178  HIS178      0.1752
    121  C          8.2920   46.1980  106.3670 C.2   178  HIS178      0.2596
    122  O          8.0480   47.3840  106.2240 O.2   178  HIS178     -0.2718
    123  CB         9.7320   45.9120  108.4150 C.3   178  HIS178      0.0759
    124  CG         9.7350   45.8290  109.9060 C.ar  178  HIS178      0.0818
    125  ND1        8.9820   46.6690  110.6910 N.ar  178  HIS178     -0.2268
    126  CD2       10.3920   45.0070  110.7590 C.ar  178  HIS178      0.1154
    127  CE1        9.1650   46.3710  111.9630 C.ar  178  HIS178      0.1986
    128  NE2       10.0250   45.3700  112.0310 N.ar  178  HIS178     -0.2212
    129  N          8.5020   45.3600  105.3420 N.am  179  LEU179     -0.1966
    130  CA         8.6120   45.7870  103.9240 C.3   179  LEU179      0.1728
    131  C          7.5280   45.1210  103.0550 C.2   179  LEU179      0.2617
    132  O          7.5210   43.8950  102.8920 O.2   179  LEU179     -0.2715
    133  CB        10.0010   45.4370  103.3430 C.3   179  LEU179      0.0311
    134  CG        11.2830   46.1780  103.7790 C.3   179  LEU179      0.0022
    135  CD1       11.5610   46.0450  105.2750 C.3   179  LEU179      0.0001
    136  CD2       12.4830   45.6440  103.0010 C.3   179  LEU179      0.0001
    137  N          6.6610   45.9510  102.4560 N.am  180  THR180     -0.1937
    138  CA         5.4170   45.4920  101.8090 C.3   180  THR180      0.2028
    139  C          5.4640   45.1940  100.3020 C.2   180  THR180      0.2642
    140  O          4.4070   44.9660   99.6860 O.2   180  THR180     -0.2714
    141  CB         4.3080   46.5330  102.0220 C.3   180  THR180      0.1808
    142  OG1        4.7830   47.8200  101.5990 O.3   180  THR180     -0.2208
    143  CG2        3.9120   46.5850  103.4840 C.3   180  THR180      0.0379
    144  N          6.6640   45.1810   99.7210 N.am  181  ASN181     -0.1971
    145  CA         6.8570   44.7790   98.3080 C.3   181  ASN181      0.1688
    146  C          6.2810   43.3830   97.9800 C.2   181  ASN181      0.2292
    147  O          6.3790   42.4420   98.7990 O.2   181  ASN181     -0.2864
    148  CB         8.3460   44.7290   97.9370 C.3   181  ASN181      0.1181
    149  CG         9.1020   45.9630   98.3700 C.2   181  ASN181      0.2629
    150  OD1        9.7300   45.9700   99.4360 O.2   181  ASN181     -0.2716
    151  ND2        9.0200   47.0260   97.5680 N.am  181  ASN181     -0.0877
    152  N          3.5070   55.7260   95.7500 N.3   253  ASP253     -0.1239
    153  CA         3.3180   54.8270   96.9020 C.3   253  ASP253      0.1674
    154  C          3.1130   55.6410   98.1720 C.2   253  ASP253      0.2266
    155  O          3.8810   56.5530   98.4420 O.2   253  ASP253     -0.2867
    156  CB         4.5300   53.8980   97.0820 C.3   253  ASP253      0.1410
    157  CG         4.7850   53.0070   95.8560 C.2   253  ASP253      0.3668
    158  OD1        3.8850   52.8540   94.9820 O.co2 253  ASP253     -0.2456
    159  OD2        5.8880   52.4260   95.7790 O.co2 253  ASP253     -0.2456
    160  N          2.0960   55.6000  102.5850 N.3   255  MET255     -0.1245
    161  CA         1.9820   54.9480  103.9100 C.3   255  MET255      0.1570
    162  C          0.9310   55.7360  104.6840 C.2   255  MET255      0.2261
    163  O          0.8900   56.9680  104.6010 O.2   255  MET255     -0.2867
    164  CB         3.3050   55.0360  104.7080 C.3   255  MET255      0.0387
    165  CG         4.4000   54.0400  104.3490 C.3   255  MET255      0.0595
    166  SD         4.1940   52.2900  104.7720 S.3   255  MET255     -0.1393
    167  CE         2.9640   52.3450  106.0900 C.3   255  MET255      0.0692
    168  N          5.9490   58.0130  100.1150 N.3   265  ILE265     -0.1231
    169  CA         7.1530   57.1870  100.1600 C.3   265  ILE265      0.1692
    170  C          7.9850   57.2360   98.8830 C.2   265  ILE265      0.2591
    171  O          9.1930   57.3110   98.9740 O.2   265  ILE265     -0.2718
    172  CB         6.7540   55.7230  100.4820 C.3   265  ILE265      0.0266
    173  CG1        6.1910   55.6710  101.8790 C.3   265  ILE265      0.0019
    174  CG2        7.9250   54.7560  100.4040 C.3   265  ILE265      0.0020
    175  CD1        7.0320   56.3740  102.9380 C.3   265  ILE265      0.0001
    176  N          7.3370   57.2140   97.7170 N.am  266  GLU266     -0.1979
    177  CA         7.9990   56.8510   96.4270 C.3   266  GLU266      0.1602
    178  C          7.1350   57.3590   95.2730 C.2   266  GLU266      0.2287
    179  O          5.9000   57.3320   95.3560 O.2   266  GLU266     -0.2864
    180  CB         8.1940   55.2960   96.3060 C.3   266  GLU266      0.0415
    181  CG         8.5300   54.6400   94.9360 C.3   266  GLU266      0.1163
    182  CD        10.0230   54.3860   94.6960 C.2   266  GLU266      0.3649
    183  OE1       10.7930   55.2760   95.1300 O.co2 266  GLU266     -0.2457
    184  OE2       10.4370   53.3160   94.0990 O.co2 266  GLU266     -0.2457
    185  N          7.1650   56.2030   91.3210 N.3   268  ASN268     -0.1240
    186  CA         7.7230   55.2670   90.2910 C.3   268  ASN268      0.1653
    187  C          7.3480   55.7760   88.9070 C.2   268  ASN268      0.2266
    188  O          6.1600   55.9910   88.6450 O.2   268  ASN268     -0.2867
    189  CB         7.2190   53.8200   90.4860 C.3   268  ASN268      0.1155
    190  CG         8.0930   52.7760   89.7660 C.2   268  ASN268      0.2627
    191  OD1        8.5020   52.9350   88.5870 O.2   268  ASN268     -0.2716
    192  ND2        8.3830   51.6760   90.4800 N.am  268  ASN268     -0.0877
@<TRIPOS>BOND
     1   191   190    2
     2   188   187    2
     3   187   186    1
     4   190   192   am
     5   190   189    1
     6   186   189    1
     7   186   185    1
     8   106   105    1
     9   105   107    1
    10   105   104    2
    11   103   104    1
    12   103   102    1
    13   102   101    1
    14   184   182   ar
    15   101    98    1
    16   100    99    2
    17    99    98    1
    18     1     2    1
    19   117   116    1
    20   182   181    1
    21   182   183   ar
    22   181   180    1
    23   158   157   ar
    24    98    97    1
    25   178   179    2
    26   178   177    1
    27   114   115    1
    28   114   113    1
    29   152   153    1
    30   116   115    2
    31   116   118    1
    32   159   157   ar
    33   157   156    1
    34     2     3    1
    35     2     5    1
    36   180   177    1
    37     3     4    2
    38   177   176    1
    39     8     9    1
    40     8     7    1
    41   113   112    1
    42     6     5    1
    43     6     7    1
    44   153   156    1
    45   153   154    1
    46   151   149   am
    47   176   170   am
    48   148   145    1
    49   148   149    1
    50   146   145    1
    51   146   147    2
    52   112   109    1
    53   154   155    2
    54   145   144    1
    55   149   150    2
    56    95    94   ar
    57   109   108    1
    58   109   110    1
    59   170   171    2
    60   170   169    1
    61    94    96   ar
    62    94    93    1
    63   140   139    2
    64   144   139   am
    65    27    28    2
    66    27    26    1
    67    92    91    2
    68   168   169    1
    69   169   172    1
    70   139   138    1
    71    91    90    1
    72   110   111    2
    73   174   172    1
    74   172   173    1
    75    41    39    1
    76    93    90    1
    77    29    26    1
    78    29    30    1
    79    26    25    1
    80    39    38    1
    81    31    30    1
    82    31    32    1
    83    90    89    1
    84    33    32    1
    85    34    35    1
    86   142   141    1
    87   138   141    1
    88   138   137    1
    89   173   175    1
    90   141   143    1
    91    38    35    1
    92    38    40    1
    93   137   131   am
    94    35    36    1
    95   160   161    1
    96   132   131    2
    97    50    48   am
    98   136   134    1
    99   131   130    1
   100   133   134    1
   101   133   130    1
   102    49    48    2
   103    48    47    1
   104   134   135    1
   105   161   162    1
   106   161   164    1
   107   130   129    1
   108    36    37    2
   109    16    10    1
   110    16    15    1
   111   165   164    1
   112   165   166    1
   113   163   162    2
   114   166   167    1
   115    10    11    1
   116    46    47    1
   117    46    43    1
   118    13    12    2
   119    24    22    1
   120    15    14    1
   121   129   121   am
   122    22    21    1
   123    83    82    2
   124    20    19    2
   125    42    43    1
   126    23    21    1
   127    12    11    1
   128    82    81    1
   129    11    14    1
   130    43    44    1
   131    19    18    1
   132   122   121    2
   133   121   120    1
   134    21    18    1
   135    86    85    1
   136    86    87    1
   137    85    84    1
   138    78    77    1
   139    18    17    1
   140    88    87    1
   141    44    45    2
   142    44    51   am
   143    81    84    1
   144    81    80    1
   145   120   119    1
   146   120   123    1
   147    51    52    1
   148    54    53    2
   149    68    66   ar
   150    68    70   ar
   151    77    79    1
   152    77    76    1
   153   123   124    1
   154    66    65   ar
   155    53    52    1
   156    53    60   am
   157    71    70    1
   158    76    73    1
   159    70    69   ar
   160    52    55    1
   161    61    60    1
   162    61    64    1
   163    61    62    1
   164    72    73    1
   165    72    62   am
   166    65    64    1
   167    65    67   ar
   168   124   125   ar
   169   124   126   ar
   170    55    56    1
   171    73    74    1
   172    62    63    2
   173    69    67   ar
   174   125   127   ar
   175   126   128   ar
   176    75    74    2
   177    56    57    1
   178   127   128   ar
   179    57    58    1
   180    59    58    1
