@<TRIPOS>MOLECULE
tmp/5jqhA00.pdb
 185 180 0 0 0
SMALL
GASTEIGER

@<TRIPOS>ATOM
      1  N         18.3000  -32.0470  -61.9580 N.3   188  TRP188     -0.1227
      2  CA        17.3800  -31.0310  -61.4550 C.3   188  TRP188      0.1737
      3  C         15.9670  -31.5850  -61.3270 C.2   188  TRP188      0.2596
      4  O         15.2390  -31.2420  -60.3880 O.2   188  TRP188     -0.2718
      5  CB        17.4020  -29.8080  -62.3750 C.3   188  TRP188      0.0564
      6  CG        16.3090  -28.8160  -62.1130 C.ar  188  TRP188      0.0003
      7  CD1       16.3070  -27.8280  -61.1740 C.ar  188  TRP188      0.0946
      8  CD2       15.0610  -28.7090  -62.8110 C.ar  188  TRP188      0.0152
      9  NE1       15.1330  -27.1160  -61.2380 N.ar  188  TRP188     -0.2442
     10  CE2       14.3520  -27.6360  -62.2350 C.ar  188  TRP188      0.0810
     11  CE3       14.4740  -29.4170  -63.8640 C.ar  188  TRP188      0.0012
     12  CZ2       13.0860  -27.2550  -62.6760 C.ar  188  TRP188      0.0191
     13  CZ3       13.2170  -29.0370  -64.3010 C.ar  188  TRP188      0.0001
     14  CH2       12.5370  -27.9660  -63.7080 C.ar  188  TRP188      0.0015
     15  N         15.5610  -32.4450  -62.2630 N.am  189  THR189     -0.1953
     16  CA        14.2510  -33.0800  -62.1660 C.3   189  THR189      0.1897
     17  C         14.2210  -34.1060  -61.0380 C.2   189  THR189      0.2313
     18  O         13.1980  -34.2660  -60.3610 O.2   189  THR189     -0.2863
     19  CB        13.8870  -33.7340  -63.4990 C.3   189  THR189      0.1794
     20  OG1       14.0470  -32.7810  -64.5560 O.3   189  THR189     -0.2208
     21  CG2       12.4460  -34.2180  -63.4810 C.3   189  THR189      0.0378
     22  N         13.7840  -32.2900  -57.8910 N.3   192  ASP192     -0.1225
     23  CA        12.4230  -31.7650  -57.8490 C.3   192  ASP192      0.1805
     24  C         11.4470  -32.8160  -57.3330 C.2   192  ASP192      0.2597
     25  O         10.6400  -32.5470  -56.4360 O.2   192  ASP192     -0.2718
     26  CB        12.0150  -31.2780  -59.2410 C.3   192  ASP192      0.1424
     27  CG        10.8480  -30.3090  -59.2090 C.2   192  ASP192      0.3668
     28  OD1       10.1070  -30.2870  -58.2040 O.co2 192  ASP192     -0.2456
     29  OD2       10.6700  -29.5670  -60.1970 O.co2 192  ASP192     -0.2456
     30  N         11.5120  -34.0290  -57.8850 N.am  193  VAL193     -0.1980
     31  CA        10.6280  -35.0970  -57.4310 C.3   193  VAL193      0.1595
     32  C         10.9660  -35.4980  -56.0000 C.2   193  VAL193      0.2287
     33  O         10.0770  -35.8280  -55.2060 O.2   193  VAL193     -0.2864
     34  CB        10.7080  -36.2950  -58.3950 C.3   193  VAL193      0.0276
     35  CG1        9.8060  -37.4250  -57.9250 C.3   193  VAL193      0.0022
     36  CG2       10.3370  -35.8630  -59.8040 C.3   193  VAL193      0.0022
     37  N          9.6410  -32.9260  -53.1250 N.3   196  VAL196     -0.1231
     38  CA         8.1880  -32.9910  -53.0140 C.3   196  VAL196      0.1692
     39  C          7.7610  -34.3120  -52.3860 C.2   196  VAL196      0.2592
     40  O          6.8800  -34.3470  -51.5180 O.2   196  VAL196     -0.2718
     41  CB         7.5370  -32.7830  -54.3930 C.3   196  VAL196      0.0266
     42  CG1        6.0220  -32.8800  -54.2860 C.3   196  VAL196      0.0020
     43  CG2        7.9510  -31.4420  -54.9700 C.3   196  VAL196      0.0020
     44  N          8.3800  -35.4160  -52.8090 N.am  197  THR197     -0.1953
     45  CA         8.0490  -36.7170  -52.2380 C.3   197  THR197      0.1897
     46  C          8.4580  -36.7960  -50.7730 C.2   197  THR197      0.2313
     47  O          7.6960  -37.2910  -49.9350 O.2   197  THR197     -0.2863
     48  CB         8.7220  -37.8300  -53.0400 C.3   197  THR197      0.1794
     49  OG1        8.3940  -37.6860  -54.4270 O.3   197  THR197     -0.2208
     50  CG2        8.2580  -39.1960  -52.5520 C.3   197  THR197      0.0378
     51  N         14.6540  -29.2630  -71.9130 N.3   270  CYS270     -0.1235
     52  CA        14.5190  -29.9700  -70.6440 C.3   270  CYS270      0.1677
     53  C         13.0480  -30.0520  -70.2470 C.2   270  CYS270      0.2270
     54  O         12.6520  -29.7090  -69.1310 O.2   270  CYS270     -0.2867
     55  CB        15.3650  -29.2960  -69.5640 C.3   270  CYS270      0.0956
     56  SG        15.5290  -30.2120  -68.0070 S.3   270  CYS270     -0.0801
     57  N          9.7550  -32.2570  -69.3400 N.3   272  PHE272     -0.1241
     58  CA         9.5900  -33.5020  -68.5890 C.3   272  PHE272      0.1605
     59  C          8.5090  -34.3640  -69.2430 C.2   272  PHE272      0.2264
     60  O          7.4120  -34.5680  -68.7170 O.2   272  PHE272     -0.2867
     61  CB         9.2670  -33.1960  -67.1310 C.3   272  PHE272      0.0534
     62  CG         9.3360  -34.3950  -66.2280 C.ar  272  PHE272     -0.0203
     63  CD1       10.4110  -35.2640  -66.2900 C.ar  272  PHE272     -0.0042
     64  CD2        8.3350  -34.6390  -65.3000 C.ar  272  PHE272     -0.0042
     65  CE1       10.4800  -36.3640  -65.4560 C.ar  272  PHE272     -0.0003
     66  CE2        8.4010  -35.7350  -64.4610 C.ar  272  PHE272     -0.0003
     67  CZ         9.4750  -36.5990  -64.5390 C.ar  272  PHE272     -0.0000
     68  N          6.7830  -37.5800  -69.9800 N.3   274  THR274     -0.1218
     69  CA         6.6330  -38.8420  -69.2730 C.3   274  THR274      0.1862
     70  C          5.6530  -39.7440  -70.0090 C.2   274  THR274      0.2287
     71  O          4.7370  -39.2740  -70.6910 O.2   274  THR274     -0.2866
     72  CB         6.1480  -38.6280  -67.8330 C.3   274  THR274      0.1770
     73  OG1        4.8950  -37.9330  -67.8460 O.3   274  THR274     -0.2211
     74  CG2        7.1650  -37.8230  -67.0420 C.3   274  THR274      0.0375
     75  N          4.4580  -44.1980  -66.1710 N.3   278  TYR278     -0.1227
     76  CA         5.2170  -43.5610  -65.1000 C.3   278  TYR278      0.1736
     77  C          4.4610  -42.3850  -64.4950 C.2   278  TYR278      0.2595
     78  O          4.5120  -42.1690  -63.2790 O.2   278  TYR278     -0.2718
     79  CB         6.5810  -43.1040  -65.6190 C.3   278  TYR278      0.0548
     80  CG         7.3150  -42.1870  -64.6660 C.ar  278  TYR278     -0.0200
     81  CD1        8.0040  -42.6980  -63.5750 C.ar  278  TYR278     -0.0009
     82  CD2        7.3160  -40.8110  -64.8560 C.ar  278  TYR278     -0.0009
     83  CE1        8.6730  -41.8640  -62.6990 C.ar  278  TYR278      0.0417
     84  CE2        7.9830  -39.9690  -63.9850 C.ar  278  TYR278      0.0417
     85  CZ         8.6610  -40.5020  -62.9090 C.ar  278  TYR278      0.1957
     86  OH         9.3280  -39.6720  -62.0380 O.3   278  TYR278     -0.2866
     87  N          3.7590  -41.6100  -65.3260 N.am  279  ALA279     -0.1980
     88  CA         3.1120  -40.3980  -64.8340 C.3   279  ALA279      0.1597
     89  C          2.0350  -40.7180  -63.8040 C.2   279  ALA279      0.2287
     90  O          1.8720  -39.9900  -62.8190 O.2   279  ALA279     -0.2864
     91  CB         2.5220  -39.6090  -66.0010 C.3   279  ALA279      0.0319
     92  N          3.9890  -42.8510  -60.5930 N.3   282  SER282     -0.1202
     93  CA         4.8030  -42.0020  -59.7290 C.3   282  SER282      0.2020
     94  C          3.9400  -41.0230  -58.9420 C.2   282  SER282      0.2619
     95  O          4.1920  -40.7850  -57.7550 O.2   282  SER282     -0.2717
     96  CB         5.8490  -41.2560  -60.5570 C.3   282  SER282      0.2103
     97  OG         6.7220  -40.5150  -59.7220 O.3   282  SER282     -0.2182
     98  N          2.9170  -40.4490  -59.5800 N.am  283  SER283     -0.1951
     99  CA         2.0280  -39.5350  -58.8690 C.3   283  SER283      0.1924
    100  C          1.2660  -40.2600  -57.7680 C.2   283  SER283      0.2314
    101  O          1.0280  -39.6990  -56.6920 O.2   283  SER283     -0.2863
    102  CB         1.0570  -38.8720  -59.8460 C.3   283  SER283      0.2116
    103  OG         1.7470  -38.0870  -60.8020 O.3   283  SER283     -0.2180
    104  N          4.3380  -41.3180  -55.0980 N.3   286  SER286     -0.1217
    105  CA         5.0590  -40.2160  -54.4770 C.3   286  SER286      0.1889
    106  C          4.1530  -39.1020  -53.9670 C.2   286  SER286      0.2288
    107  O          4.6560  -38.1670  -53.3350 O.2   286  SER286     -0.2866
    108  CB         6.0720  -39.6340  -55.4660 C.3   286  SER286      0.2089
    109  OG         7.0100  -40.6180  -55.8670 O.3   286  SER286     -0.2183
    110  N         -0.3750  -28.5730  -54.0020 N.3   334  TRP334     -0.1241
    111  CA         0.1180  -29.5990  -54.9090 C.3   334  TRP334      0.1605
    112  C         -0.9770  -30.4640  -55.5150 C.2   334  TRP334      0.2264
    113  O         -0.7340  -31.1040  -56.5420 O.2   334  TRP334     -0.2867
    114  CB         1.1260  -30.5100  -54.1920 C.3   334  TRP334      0.0550
    115  CG         2.4650  -29.8770  -53.9690 C.ar  334  TRP334      0.0003
    116  CD1        2.9570  -29.3920  -52.7930 C.ar  334  TRP334      0.0946
    117  CD2        3.4850  -29.6600  -54.9510 C.ar  334  TRP334      0.0152
    118  NE1        4.2220  -28.8880  -52.9810 N.ar  334  TRP334     -0.2442
    119  CE2        4.5690  -29.0400  -54.2970 C.ar  334  TRP334      0.0810
    120  CE3        3.5880  -29.9290  -56.3200 C.ar  334  TRP334      0.0012
    121  CZ2        5.7400  -28.6850  -54.9640 C.ar  334  TRP334      0.0191
    122  CZ3        4.7510  -29.5750  -56.9810 C.ar  334  TRP334      0.0001
    123  CH2        5.8110  -28.9600  -56.3030 C.ar  334  TRP334      0.0015
    124  N         -1.9180  -29.5700  -59.1930 N.3   337  PHE337     -0.1227
    125  CA        -0.8650  -29.9800  -60.1170 C.3   337  PHE337      0.1736
    126  C         -0.9490  -31.4710  -60.4200 C.2   337  PHE337      0.2595
    127  O         -0.9250  -31.8800  -61.5870 O.2   337  PHE337     -0.2718
    128  CB         0.5070  -29.6260  -59.5420 C.3   337  PHE337      0.0547
    129  CG         1.6510  -30.2720  -60.2700 C.ar  337  PHE337     -0.0202
    130  CD1        2.0550  -29.8010  -61.5080 C.ar  337  PHE337     -0.0042
    131  CD2        2.3220  -31.3510  -59.7160 C.ar  337  PHE337     -0.0042
    132  CE1        3.1050  -30.3940  -62.1820 C.ar  337  PHE337     -0.0003
    133  CE2        3.3750  -31.9470  -60.3850 C.ar  337  PHE337     -0.0003
    134  CZ         3.7670  -31.4680  -61.6200 C.ar  337  PHE337     -0.0000
    135  N         -1.0460  -32.3020  -59.3790 N.am  338  PHE338     -0.1976
    136  CA        -1.1090  -33.7430  -59.5900 C.3   338  PHE338      0.1639
    137  C         -2.4400  -34.1860  -60.1810 C.2   338  PHE338      0.2290
    138  O         -2.5080  -35.2670  -60.7750 O.2   338  PHE338     -0.2864
    139  CB        -0.8370  -34.4790  -58.2790 C.3   338  PHE338      0.0560
    140  CG         0.6130  -34.5010  -57.8940 C.ar  338  PHE338     -0.0200
    141  CD1        1.4440  -35.5190  -58.3320 C.ar  338  PHE338     -0.0042
    142  CD2        1.1490  -33.4990  -57.1030 C.ar  338  PHE338     -0.0042
    143  CE1        2.7810  -35.5400  -57.9840 C.ar  338  PHE338     -0.0003
    144  CE2        2.4840  -33.5150  -56.7500 C.ar  338  PHE338     -0.0003
    145  CZ         3.3010  -34.5360  -57.1920 C.ar  338  PHE338     -0.0000
    146  N         -1.7500  -33.8710  -63.8860 N.3   341  ASN341     -0.1240
    147  CA        -0.9500  -34.9860  -64.3840 C.3   341  ASN341      0.1653
    148  C         -1.8310  -36.1580  -64.7960 C.2   341  ASN341      0.2266
    149  O         -1.5420  -36.8470  -65.7810 O.2   341  ASN341     -0.2867
    150  CB         0.0630  -35.4240  -63.3260 C.3   341  ASN341      0.1155
    151  CG         1.1050  -34.3620  -63.0480 C.2   341  ASN341      0.2627
    152  OD1        1.3010  -33.4450  -63.8450 O.2   341  ASN341     -0.2716
    153  ND2        1.7850  -34.4840  -61.9140 N.am  341  ASN341     -0.0877
    154  N         -0.1270  -25.6710  -66.8340 N.3   356  TYR356     -0.1241
    155  CA         0.6640  -26.7070  -66.1780 C.3   356  TYR356      0.1605
    156  C          1.8460  -26.1060  -65.4270 C.2   356  TYR356      0.2264
    157  O          2.1450  -26.5110  -64.2980 O.2   356  TYR356     -0.2867
    158  CB         1.1390  -27.7270  -67.2120 C.3   356  TYR356      0.0534
    159  CG         1.9970  -28.8370  -66.6490 C.ar  356  TYR356     -0.0201
    160  CD1        1.4210  -29.9640  -66.0780 C.ar  356  TYR356     -0.0009
    161  CD2        3.3820  -28.7640  -66.7010 C.ar  356  TYR356     -0.0009
    162  CE1        2.2010  -30.9810  -65.5690 C.ar  356  TYR356      0.0417
    163  CE2        4.1700  -29.7760  -66.1940 C.ar  356  TYR356      0.0417
    164  CZ         3.5750  -30.8820  -65.6290 C.ar  356  TYR356      0.1957
    165  OH         4.3570  -31.8940  -65.1220 O.3   356  TYR356     -0.2866
    166  N          2.3580  -25.8420  -61.2640 N.3   360  ASN360     -0.1240
    167  CA         3.6150  -26.3640  -60.7380 C.3   360  ASN360      0.1653
    168  C          4.2830  -25.3490  -59.8190 C.2   360  ASN360      0.2266
    169  O          4.8910  -25.7220  -58.8090 O.2   360  ASN360     -0.2867
    170  CB         4.5470  -26.7430  -61.8900 C.3   360  ASN360      0.1155
    171  CG         5.5750  -27.7920  -61.4980 C.2   360  ASN360      0.2627
    172  OD1        5.7890  -28.7630  -62.2240 O.2   360  ASN360     -0.2716
    173  ND2        6.2150  -27.6030  -60.3500 N.am  360  ASN360     -0.0877
    174  N          5.5900  -24.6050  -55.7260 N.3   364  TYR364     -0.1241
    175  CA         6.8750  -24.0070  -55.3790 C.3   364  TYR364      0.1605
    176  C          6.7150  -22.9640  -54.2810 C.2   364  TYR364      0.2264
    177  O          7.5190  -22.9140  -53.3430 O.2   364  TYR364     -0.2867
    178  CB         7.5210  -23.3820  -56.6160 C.3   364  TYR364      0.0534
    179  CG         8.0120  -24.3790  -57.6410 C.ar  364  TYR364     -0.0201
    180  CD1        8.1470  -25.7240  -57.3250 C.ar  364  TYR364     -0.0009
    181  CD2        8.3510  -23.9710  -58.9240 C.ar  364  TYR364     -0.0009
    182  CE1        8.6000  -26.6360  -58.2610 C.ar  364  TYR364      0.0417
    183  CE2        8.8040  -24.8730  -59.8650 C.ar  364  TYR364      0.0417
    184  CZ         8.9270  -26.2040  -59.5290 C.ar  364  TYR364      0.1957
    185  OH         9.3780  -27.1040  -60.4670 O.3   364  TYR364     -0.2866
@<TRIPOS>BOND
     1    51    52    1
     2    71    70    2
     3    52    53    1
     4    52    55    1
     5    53    54    2
     6    70    69    1
     7    68    69    1
     8    55    56    1
     9    57    58    1
    10    69    72    1
    11    59    60    2
    12    59    58    1
    13    58    61    1
    14    73    72    1
    15    72    74    1
    16   158   159    1
    17   158   155    1
    18    61    62    1
    19   154   155    1
    20   161   159   ar
    21   161   163   ar
    22   159   160   ar
    23    63    62   ar
    24    63    65   ar
    25    62    64   ar
    26   163   164   ar
    27   155   156    1
    28    75    76    1
    29   160   162   ar
    30    91    88    1
    31   149   148    2
    32   164   162   ar
    33   164   165    1
    34    79    76    1
    35    79    80    1
    36    65    67   ar
    37   156   157    2
    38    87    88    1
    39    87    77   am
    40    64    66   ar
    41    76    77    1
    42    82    80   ar
    43    82    84   ar
    44    88    89    1
    45   148   147    1
    46    80    81   ar
    47    20    19    1
    48    67    66   ar
    49    77    78    2
    50   147   146    1
    51   147   150    1
    52    13    11   ar
    53    13    14   ar
    54    84    85   ar
    55    11     8   ar
    56   152   151    2
    57    89    90    2
    58    14    12   ar
    59    81    83   ar
    60    19    21    1
    61    19    16    1
    62   150   151    1
    63   151   153   am
    64    85    83   ar
    65    85    86    1
    66     8    10   ar
    67     8     6   ar
    68    12    10   ar
    69     5     6    1
    70     5     2    1
    71    15    16    1
    72    15     3   am
    73    10     9   ar
    74   172   171    2
    75   132   134   ar
    76   132   130   ar
    77    16    17    1
    78     6     7   ar
    79     1     2    1
    80   170   171    1
    81   170   167    1
    82   134   133   ar
    83   127   126    2
    84   130   129   ar
    85   171   173   am
    86     2     3    1
    87     3     4    2
    88   166   167    1
    89     9     7   ar
    90    17    18    2
    91   103   102    1
    92   138   137    2
    93   167   168    1
    94    92    93    1
    95    96    93    1
    96    96    97    1
    97   185   184    1
    98   126   125    1
    99   126   135   am
   100   133   131   ar
   101   129   131   ar
   102   129   128    1
   103    29    27   ar
   104   137   136    1
   105   125   128    1
   106   125   124    1
   107   183   184   ar
   108   183   181   ar
   109   102    99    1
   110   168   169    2
   111    36    34    1
   112    93    94    1
   113   136   135    1
   114   136   139    1
   115    98    94   am
   116    98    99    1
   117   184   182   ar
   118    26    27    1
   119    26    23    1
   120    27    28   ar
   121    94    95    2
   122   181   179   ar
   123    99   100    1
   124    34    35    1
   125    34    31    1
   126   141   143   ar
   127   141   140   ar
   128   139   140    1
   129   182   180   ar
   130   143   145   ar
   131   140   142   ar
   132    22    23    1
   133    30    31    1
   134    30    24   am
   135    23    24    1
   136   100   101    2
   137   179   180   ar
   138   179   178    1
   139    31    32    1
   140    24    25    2
   141   145   144   ar
   142   142   144   ar
   143   122   120   ar
   144   122   123   ar
   145   178   175    1
   146   113   112    2
   147   120   117   ar
   148   123   121   ar
   149    32    33    2
   150   109   108    1
   151   174   175    1
   152   112   111    1
   153   108   105    1
   154   175   176    1
   155   104   105    1
   156    43    41    1
   157   121   119   ar
   158   117   119   ar
   159   117   115   ar
   160   111   114    1
   161   111   110    1
   162   105   106    1
   163    49    48    1
   164    41    42    1
   165    41    38    1
   166   119   118   ar
   167   176   177    2
   168   114   115    1
   169   115   116   ar
   170   106   107    2
   171    37    38    1
   172    48    50    1
   173    48    45    1
   174    38    39    1
   175   118   116   ar
   176    44    39   am
   177    44    45    1
   178    39    40    2
   179    45    46    1
   180    46    47    2
