@<TRIPOS>MOLECULE
tmp/5jqhA01.pdb
 87 80 0 0 0
SMALL
GASTEIGER

@<TRIPOS>ATOM
      1  N         15.2050  -23.7290  -39.4210 N.3   134  ILE134     -0.1245
      2  CA        16.3060  -24.6230  -39.0700 C.3   134  ILE134      0.1561
      3  C         17.0960  -24.0530  -37.9000 C.2   134  ILE134      0.2260
      4  O         17.4410  -24.7670  -36.9510 O.2   134  ILE134     -0.2867
      5  CB        17.2140  -24.8660  -40.2890 C.3   134  ILE134      0.0252
      6  CG1       16.4130  -25.4280  -41.4670 C.3   134  ILE134      0.0019
      7  CG2       18.3670  -25.7890  -39.9180 C.3   134  ILE134      0.0019
      8  CD1       15.8130  -26.7860  -41.2160 C.3   134  ILE134      0.0001
      9  N         17.6150  -25.6340  -34.0830 N.3   138  ALA138     -0.1245
     10  CA        18.9680  -26.0970  -33.7980 C.3   138  ALA138      0.1562
     11  C         19.6360  -25.3050  -32.6830 C.2   138  ALA138      0.2260
     12  O         20.5790  -25.8090  -32.0630 O.2   138  ALA138     -0.2867
     13  CB        19.8230  -26.0350  -35.0650 C.3   138  ALA138      0.0290
     14  N         12.2390  -29.8420  -39.1000 N.3   152  THR152     -0.1218
     15  CA        13.5610  -29.5990  -39.6670 C.3   152  THR152      0.1862
     16  C         13.7580  -30.3940  -40.9520 C.2   152  THR152      0.2287
     17  O         14.2950  -29.8730  -41.9370 O.2   152  THR152     -0.2866
     18  CB        14.6440  -29.9520  -38.6450 C.3   152  THR152      0.1770
     19  OG1       14.5100  -29.1100  -37.4930 O.3   152  THR152     -0.2211
     20  CG2       16.0350  -29.7710  -39.2420 C.3   152  THR152      0.0375
     21  N         14.1510  -28.5950  -44.5200 N.3   156  CYS156     -0.1235
     22  CA        15.2870  -28.8940  -45.3870 C.3   156  CYS156      0.1677
     23  C         14.8240  -29.2210  -46.7990 C.2   156  CYS156      0.2270
     24  O         15.4640  -28.8240  -47.7790 O.2   156  CYS156     -0.2867
     25  CB        16.1060  -30.0520  -44.8150 C.3   156  CYS156      0.0956
     26  SG        17.1480  -29.6300  -43.4020 S.3   156  CYS156     -0.0801
     27  N         13.9970  -26.0740  -48.3200 N.3   159  LEU159     -0.1231
     28  CA        15.2010  -25.2660  -48.4930 C.3   159  LEU159      0.1693
     29  C         15.9220  -25.6200  -49.7890 C.2   159  LEU159      0.2591
     30  O         16.3740  -24.7280  -50.5170 O.2   159  LEU159     -0.2718
     31  CB        16.1280  -25.4470  -47.2910 C.3   159  LEU159      0.0284
     32  CG        17.4440  -24.6680  -47.2970 C.3   159  LEU159      0.0019
     33  CD1       17.1800  -23.1710  -47.3410 C.3   159  LEU159      0.0001
     34  CD2       18.2880  -25.0350  -46.0860 C.3   159  LEU159      0.0001
     35  N         16.0390  -26.9160  -50.0940 N.am  160  VAL160     -0.1980
     36  CA        16.6730  -27.3320  -51.3410 C.3   160  VAL160      0.1595
     37  C         15.8530  -26.8760  -52.5410 C.2   160  VAL160      0.2287
     38  O         16.4090  -26.5720  -53.6050 O.2   160  VAL160     -0.2864
     39  CB        16.8860  -28.8590  -51.3440 C.3   160  VAL160      0.0276
     40  CG1       17.6260  -29.2990  -52.6000 C.3   160  VAL160      0.0022
     41  CG2       17.6480  -29.2850  -50.1030 C.3   160  VAL160      0.0022
     42  N         16.8500  -23.5570  -53.4610 N.3   163  LEU163     -0.1231
     43  CA        18.2770  -23.4840  -53.7500 C.3   163  LEU163      0.1693
     44  C         18.7150  -24.3170  -54.9430 C.2   163  LEU163      0.2591
     45  O         19.7660  -24.0150  -55.5250 O.2   163  LEU163     -0.2718
     46  CB        19.0980  -23.9110  -52.5230 C.3   163  LEU163      0.0284
     47  CG        19.0880  -22.9620  -51.3220 C.3   163  LEU163      0.0019
     48  CD1       19.7440  -23.6100  -50.1090 C.3   163  LEU163      0.0001
     49  CD2       19.7820  -21.6560  -51.6710 C.3   163  LEU163      0.0001
     50  N         17.9670  -25.3480  -55.3250 N.am  164  ALA164     -0.1980
     51  CA        18.3350  -26.2010  -56.4500 C.3   164  ALA164      0.1597
     52  C         17.2140  -26.3940  -57.4550 C.2   164  ALA164      0.2287
     53  O         17.5030  -26.7350  -58.6060 O.2   164  ALA164     -0.2864
     54  CB        18.8130  -27.5730  -55.9450 C.3   164  ALA164      0.0319
     55  N         22.6530  -32.1440  -65.7560 N.3   184  TRP184     -0.1241
     56  CA        21.9450  -31.4590  -64.6830 C.3   184  TRP184      0.1605
     57  C         20.4380  -31.4360  -64.9100 C.2   184  TRP184      0.2264
     58  O         19.6840  -31.3140  -63.9400 O.2   184  TRP184     -0.2867
     59  CB        22.4820  -30.0330  -64.5290 C.3   184  TRP184      0.0550
     60  CG        21.9660  -29.3140  -63.3150 C.ar  184  TRP184      0.0003
     61  CD1       20.9710  -28.3820  -63.2760 C.ar  184  TRP184      0.0946
     62  CD2       22.4210  -29.4710  -61.9640 C.ar  184  TRP184      0.0152
     63  NE1       20.7780  -27.9470  -61.9870 N.ar  184  TRP184     -0.2442
     64  CE2       21.6550  -28.6000  -61.1620 C.ar  184  TRP184      0.0810
     65  CE3       23.4010  -30.2610  -61.3540 C.ar  184  TRP184      0.0012
     66  CZ2       21.8380  -28.4990  -59.7840 C.ar  184  TRP184      0.0191
     67  CZ3       23.5810  -30.1590  -59.9850 C.ar  184  TRP184      0.0001
     68  CH2       22.8030  -29.2840  -59.2160 C.ar  184  TRP184      0.0015
     69  N         15.9510  -33.9970  -58.1790 N.3   191  ILE191     -0.1245
     70  CA        15.8100  -33.2510  -56.9320 C.3   191  ILE191      0.1561
     71  C         14.3850  -32.7340  -56.7840 C.2   191  ILE191      0.2260
     72  O         13.8180  -32.7380  -55.6840 O.2   191  ILE191     -0.2867
     73  CB        16.8350  -32.1030  -56.8770 C.3   191  ILE191      0.0252
     74  CG1       18.2610  -32.6530  -56.9190 C.3   191  ILE191      0.0019
     75  CG2       16.6300  -31.2550  -55.6310 C.3   191  ILE191      0.0019
     76  CD1       19.3190  -31.5770  -56.8600 C.3   191  ILE191      0.0001
     77  N         15.6260  -39.4360  -35.7990 N.3   230  ARG230     -0.1245
     78  CA        16.5820  -39.2740  -36.8890 C.3   230  ARG230      0.1563
     79  C         16.6020  -40.4940  -37.8010 C.2   230  ARG230      0.2260
     80  O         16.8560  -40.3620  -39.0040 O.2   230  ARG230     -0.2867
     81  CB        17.9790  -39.0050  -36.3290 C.3   230  ARG230      0.0307
     82  CG        18.0530  -37.7920  -35.4170 C.3   230  ARG230      0.0489
     83  CD        19.4820  -37.5080  -34.9870 C.3   230  ARG230      0.2205
     84  NE        19.5660  -36.3470  -34.1050 N.pl3 230  ARG230     -0.0865
     85  CZ        19.7020  -35.0940  -34.5290 C.cat 230  ARG230      0.5346
     86  NH1       19.7660  -34.8350  -35.8280 N.pl3 230  ARG230      0.1354
     87  NH2       19.7720  -34.1000  -33.6550 N.pl3 230  ARG230      0.1354
@<TRIPOS>BOND
     1    55    56    1
     2    57    56    1
     3    57    58    2
     4    56    59    1
     5    59    60    1
     6    60    61   ar
     7    60    62   ar
     8    61    63   ar
     9    63    64   ar
    10    62    65   ar
    11    62    64   ar
    12    65    67   ar
    13    64    66   ar
    14    67    68   ar
    15    66    68   ar
    16    53    52    2
    17    69    70    1
    18    52    51    1
    19    70    73    1
    20    70    71    1
    21    74    73    1
    22    74    76    1
    23    73    75    1
    24    71    72    2
    25    51    54    1
    26    51    50    1
    27    45    44    2
    28    50    44   am
    29    44    43    1
    30    43    42    1
    31    43    46    1
    32    38    37    2
    33    40    39    1
    34    37    36    1
    35    46    47    1
    36    49    47    1
    37    39    36    1
    38    39    41    1
    39    36    35    1
    40    47    48    1
    41    30    29    2
    42    35    29   am
    43    29    28    1
    44    28    27    1
    45    28    31    1
    46    24    23    2
    47    33    32    1
    48    32    31    1
    49    32    34    1
    50    23    22    1
    51    22    25    1
    52    22    21    1
    53    25    26    1
    54    17    16    2
    55     6     8    1
    56     6     5    1
    57    16    15    1
    58     5     7    1
    59     5     2    1
    60    15    14    1
    61    15    18    1
    62     1     2    1
    63    20    18    1
    64     2     3    1
    65    80    79    2
    66    18    19    1
    67     3     4    2
    68    79    78    1
    69    78    81    1
    70    78    77    1
    71    81    82    1
    72    86    85    1
    73    82    83    1
    74    13    10    1
    75    83    84    1
    76    85    84    2
    77    85    87    1
    78     9    10    1
    79    10    11    1
    80    11    12    2
