@<TRIPOS>MOLECULE
tmp/5jqjA01.pdb
 107 101 0 0 0
SMALL
GASTEIGER

@<TRIPOS>ATOM
      1  N        -16.0670  -22.9600    9.6090 N.3    23  LEU23      -0.1245
      2  CA       -16.1990  -22.1290   10.8670 C.3    23  LEU23       0.1561
      3  C        -17.6300  -21.6640   11.1560 C.2    23  LEU23       0.2260
      4  O        -18.5290  -21.9500   10.3720 O.2    23  LEU23      -0.2867
      5  CB       -15.2200  -20.9310   10.9530 C.3    23  LEU23       0.0270
      6  CG       -15.3630  -19.6430   10.0980 C.3    23  LEU23       0.0019
      7  CD1      -15.1240  -18.3610   10.9110 C.3    23  LEU23       0.0001
      8  CD2      -14.4360  -19.7230    8.8730 C.3    23  LEU23       0.0001
      9  N        -19.7550  -18.1860   11.8230 N.3    25  MET25      -0.1245
     10  CA       -20.1730  -16.7850   11.9800 C.3    25  MET25       0.1570
     11  C        -21.4370  -16.8150   12.8290 C.2    25  MET25       0.2261
     12  O        -22.4210  -17.4290   12.4160 O.2    25  MET25      -0.2867
     13  CB       -20.5620  -16.1430   10.6370 C.3    25  MET25       0.0387
     14  CG       -19.5340  -16.1320    9.5130 C.3    25  MET25       0.0595
     15  SD       -20.2640  -15.3720    8.0330 S.3    25  MET25      -0.1393
     16  CE       -20.3330  -13.6240    8.4680 C.3    25  MET25       0.0692
     17  N        -19.6670  -22.0680    7.9470 N.3    31  VAL31      -0.1245
     18  CA       -19.1960  -22.0790    6.5420 C.3    31  VAL31       0.1561
     19  C        -17.6820  -22.3680    6.2630 C.2    31  VAL31       0.2260
     20  O        -16.7940  -22.1110    7.1050 O.2    31  VAL31      -0.2867
     21  CB       -19.7260  -20.8000    5.8520 C.3    31  VAL31       0.0252
     22  CG1      -18.8340  -19.6120    6.1500 C.3    31  VAL31       0.0019
     23  CG2      -19.9930  -21.0500    4.3740 C.3    31  VAL31       0.0019
     24  N         -9.5990  -10.6650    7.7950 N.3    80  HIS80      -0.1226
     25  CA       -10.8910  -11.2390    8.1620 C.3    80  HIS80       0.1752
     26  C        -10.6160  -12.5250    8.8920 C.2    80  HIS80       0.2596
     27  O         -9.5940  -13.1710    8.6790 O.2    80  HIS80      -0.2718
     28  CB       -11.8050  -11.5930    6.9680 C.3    80  HIS80       0.0759
     29  CG       -12.6630  -10.4730    6.5270 C.ar   80  HIS80       0.0818
     30  ND1      -13.3640  -10.4480    5.3080 N.ar   80  HIS80      -0.2268
     31  CD2      -12.8750   -9.2820    7.1150 C.ar   80  HIS80       0.1154
     32  CE1      -14.0390   -9.3030    5.2720 C.ar   80  HIS80       0.1986
     33  NE2      -13.7460   -8.5890    6.3120 N.ar   80  HIS80      -0.2212
     34  N        -11.5170  -12.9310    9.7890 N.am   81  GLN81      -0.1965
     35  CA       -11.2290  -14.1260   10.6670 C.3    81  GLN81       0.1733
     36  C        -11.0440  -15.4590    9.8900 C.2    81  GLN81       0.2616
     37  O        -10.2970  -16.3200   10.3190 O.2    81  GLN81      -0.2715
     38  CB       -12.3110  -14.2300   11.8100 C.3    81  GLN81       0.0408
     39  CG       -12.2390  -15.4710   12.7100 C.3    81  GLN81       0.0908
     40  CD       -11.3150  -15.3400   13.9180 C.2    81  GLN81       0.2608
     41  OE1      -11.0790  -16.3210   14.6500 O.2    81  GLN81      -0.2717
     42  NE2      -10.7930  -14.1340   14.1430 N.am   81  GLN81      -0.0878
     43  N        -11.6930  -15.6400    8.7260 N.am   82  ASP82      -0.1971
     44  CA       -11.4470  -16.8590    7.9310 C.3    82  ASP82       0.1709
     45  C        -10.0550  -17.0030    7.3640 C.2    82  ASP82       0.2293
     46  O         -9.5880  -18.1080    7.1660 O.2    82  ASP82      -0.2864
     47  CB       -12.5370  -17.0140    6.8700 C.3    82  ASP82       0.1436
     48  CG       -12.6210  -15.8430    5.8610 C.2    82  ASP82       0.3671
     49  OD1      -12.2560  -14.6970    6.1240 O.co2  82  ASP82      -0.2456
     50  OD2      -13.0460  -16.1630    4.7100 O.co2  82  ASP82      -0.2456
     51  N        -13.5290   -7.6360   -2.6660 N.3   147  HIS147     -0.1241
     52  CA       -14.1690   -8.1930   -1.4850 C.3   147  HIS147      0.1621
     53  C        -13.9140   -7.3460   -0.2530 C.2   147  HIS147      0.2264
     54  O        -14.8100   -7.1120    0.5820 O.2   147  HIS147     -0.2867
     55  CB       -13.7180   -9.6530   -1.3350 C.3   147  HIS147      0.0745
     56  CG       -13.9830  -10.2540    0.0120 C.ar  147  HIS147      0.0817
     57  ND1      -15.2130  -10.8000    0.3240 N.ar  147  HIS147     -0.2268
     58  CD2      -13.1930  -10.4410    1.1000 C.ar  147  HIS147      0.1154
     59  CE1      -15.1670  -11.2790    1.5580 C.ar  147  HIS147      0.1986
     60  NE2      -13.9410  -11.1170    2.0220 N.ar  147  HIS147     -0.2212
     61  N        -10.9440  -14.6590   -1.1730 N.3   166  CYS166     -0.1235
     62  CA       -12.4060  -14.3820   -1.0670 C.3   166  CYS166      0.1677
     63  C        -12.8320  -13.4500   -2.1980 C.2   166  CYS166      0.2270
     64  O        -14.0250  -13.2000   -2.3880 O.2   166  CYS166     -0.2867
     65  CB       -12.8110  -13.8120    0.2800 C.3   166  CYS166      0.0956
     66  SG       -12.2010  -14.8100    1.6480 S.3   166  CYS166     -0.0801
     67  N        -15.3590  -16.0850   -6.8180 N.3   169  ARG169     -0.1245
     68  CA       -16.4840  -16.9900   -6.5560 C.3   169  ARG169      0.1563
     69  C        -16.4680  -17.9990   -7.7200 C.2   169  ARG169      0.2260
     70  O        -15.9990  -17.6840   -8.8250 O.2   169  ARG169     -0.2867
     71  CB       -17.7970  -16.2130   -6.5900 C.3   169  ARG169      0.0307
     72  CG       -17.7630  -14.8720   -5.8630 C.3   169  ARG169      0.0489
     73  CD       -17.8810  -15.0580   -4.3560 C.3   169  ARG169      0.2205
     74  NE       -19.1930  -15.5210   -3.8780 N.pl3 169  ARG169     -0.0865
     75  CZ       -19.5090  -15.8040   -2.6180 C.cat 169  ARG169      0.5346
     76  NH1      -18.6410  -15.7500   -1.5970 N.pl3 169  ARG169      0.1354
     77  NH2      -20.7690  -16.1950   -2.3500 N.pl3 169  ARG169      0.1354
     78  N        -21.8510  -12.5960   -4.9650 N.3   176  LEU176     -0.1231
     79  CA       -20.4730  -12.2680   -4.5180 C.3   176  LEU176      0.1693
     80  C        -20.2790  -12.4330   -3.0140 C.2   176  LEU176      0.2593
     81  O        -19.1960  -12.1250   -2.4820 O.2   176  LEU176     -0.2718
     82  CB       -20.1260  -10.8370   -4.8850 C.3   176  LEU176      0.0284
     83  CG       -20.1260  -10.5970   -6.3950 C.3   176  LEU176      0.0019
     84  CD1      -20.2820   -9.1440   -6.6630 C.3   176  LEU176      0.0001
     85  CD2      -18.8660  -11.1930   -6.9760 C.3   176  LEU176      0.0001
     86  N        -21.3110  -12.8640   -2.3140 N.am  177  GLY177     -0.1942
     87  CA       -21.2230  -12.9640   -0.8720 C.3   177  GLY177      0.2014
     88  C        -21.5090  -11.6430   -0.1490 C.2   177  GLY177      0.2638
     89  O        -22.1720  -10.7320   -0.6500 O.2   177  GLY177     -0.2714
     90  N        -20.9790  -11.5250    1.0620 N.am  178  ASN178     -0.1972
     91  CA       -21.2600  -10.3800    1.8470 C.3   178  ASN178      0.1688
     92  C        -20.4510   -9.1970    1.2810 C.2   178  ASN178      0.2292
     93  O        -19.2500   -9.3400    1.0630 O.2   178  ASN178     -0.2864
     94  CB       -20.8790  -10.6570    3.2900 C.3   178  ASN178      0.1181
     95  CG       -21.2490   -9.5230    4.1680 C.2   178  ASN178      0.2629
     96  OD1      -20.6800   -8.4620    4.0500 O.2   178  ASN178     -0.2716
     97  ND2      -22.2870   -9.7030    4.9900 N.am  178  ASN178     -0.0877
     98  N        -14.1740  -19.9540   -0.7040 N.3   208  HIS208     -0.1241
     99  CA       -15.4560  -20.4920   -0.2380 C.3   208  HIS208      0.1621
    100  C        -16.1330  -21.4250   -1.2580 C.2   208  HIS208      0.2264
    101  O        -17.3420  -21.6620   -1.1900 O.2   208  HIS208     -0.2867
    102  CB       -16.3870  -19.3090    0.1870 C.3   208  HIS208      0.0745
    103  CG       -15.8240  -18.4630    1.2840 C.ar  208  HIS208      0.0817
    104  ND1      -15.4320  -18.9960    2.4870 N.ar  208  HIS208     -0.2268
    105  CD2      -15.4410  -17.1510    1.3250 C.ar  208  HIS208      0.1154
    106  CE1      -14.9200  -18.0480    3.2490 C.ar  208  HIS208      0.1986
    107  NE2      -14.9120  -16.9210    2.5840 N.ar  208  HIS208     -0.2212
@<TRIPOS>BOND
     1    70    69    2
     2    69    68    1
     3    85    83    1
     4    67    68    1
     5    84    83    1
     6    71    68    1
     7    71    72    1
     8    83    82    1
     9    72    73    1
    10    78    79    1
    11    82    79    1
    12    79    80    1
    13    73    74    1
    14    74    75    2
    15    80    81    2
    16    80    86   am
    17    51    52    1
    18    75    77    1
    19    75    76    1
    20    64    63    2
    21    86    87    1
    22    63    62    1
    23    52    55    1
    24    52    53    1
    25    55    56    1
    26   100   101    2
    27   100    99    1
    28    61    62    1
    29    62    65    1
    30    87    88    1
    31    98    99    1
    32    89    88    2
    33    53    54    2
    34    99   102    1
    35    88    90   am
    36    56    57   ar
    37    56    58   ar
    38   102   103    1
    39    65    66    1
    40    57    59   ar
    41    90    91    1
    42    93    92    2
    43    58    60   ar
    44    92    91    1
    45   103   105   ar
    46   103   104   ar
    47   105   107   ar
    48    59    60   ar
    49    91    94    1
    50   104   106   ar
    51   107   106   ar
    52    94    95    1
    53    96    95    2
    54    95    97   am
    55    23    21    1
    56    50    48   ar
    57    32    30   ar
    58    32    33   ar
    59    30    29   ar
    60    21    22    1
    61    21    18    1
    62    48    49   ar
    63    48    47    1
    64    19    18    1
    65    19    20    2
    66    33    31   ar
    67    29    28    1
    68    29    31   ar
    69    18    17    1
    70    47    44    1
    71    28    25    1
    72    46    45    2
    73    45    44    1
    74    24    25    1
    75    44    43    1
    76    15    16    1
    77    15    14    1
    78    25    26    1
    79    27    26    2
    80    43    36   am
    81     8     6    1
    82    26    34   am
    83    14    13    1
    84     1     2    1
    85    34    35    1
    86    36    37    2
    87    36    35    1
    88     6     7    1
    89     6     5    1
    90     4     3    2
    91    13    10    1
    92    35    38    1
    93     2     5    1
    94     2     3    1
    95    38    39    1
    96     9    10    1
    97    10    11    1
    98    12    11    2
    99    39    40    1
   100    40    42   am
   101    40    41    2
