@<TRIPOS>MOLECULE
tmp/5jqoB00.pdb
 138 129 0 0 0
SMALL
GASTEIGER

@<TRIPOS>ATOM
      1  N         29.1180   66.3190   -5.6620 N.3    27  TYR27      -0.1241
      2  CA        29.8760   65.1460   -6.0780 C.3    27  TYR27       0.1605
      3  C         31.3080   65.4560   -6.5080 C.2    27  TYR27       0.2264
      4  O         31.5590   66.4970   -7.1040 O.2    27  TYR27      -0.2867
      5  CB        29.1350   64.4520   -7.2140 C.3    27  TYR27       0.0534
      6  CG        27.7200   64.1150   -6.8090 C.ar   27  TYR27      -0.0201
      7  CD1       27.4590   63.3080   -5.7160 C.ar   27  TYR27      -0.0009
      8  CD2       26.6400   64.6310   -7.5100 C.ar   27  TYR27      -0.0009
      9  CE1       26.1620   63.0280   -5.3420 C.ar   27  TYR27       0.0417
     10  CE2       25.3540   64.3450   -7.1550 C.ar   27  TYR27       0.0417
     11  CZ        25.1130   63.5430   -6.0740 C.ar   27  TYR27       0.1957
     12  OH        23.8120   63.2720   -5.7200 O.3    27  TYR27      -0.2866
     13  N         28.0190   59.3340   -1.6400 N.3    32  SER32      -0.1217
     14  CA        27.3790   59.1180   -2.9330 C.3    32  SER32       0.1889
     15  C         28.2640   58.4570   -3.9920 C.2    32  SER32       0.2288
     16  O         28.6470   59.0920   -4.9730 O.2    32  SER32      -0.2866
     17  CB        26.8120   60.4300   -3.4660 C.3    32  SER32       0.2089
     18  OG        25.6230   60.7930   -2.7810 O.3    32  SER32      -0.2183
     19  N         27.6400   56.2510   -6.1480 N.3    34  HIS34      -0.1241
     20  CA        26.9260   55.9450   -7.3860 C.3    34  HIS34       0.1621
     21  C         26.8290   57.0350   -8.4550 C.2    34  HIS34       0.2264
     22  O         26.4770   56.7480   -9.5990 O.2    34  HIS34      -0.2867
     23  CB        25.5080   55.4750   -7.0290 C.3    34  HIS34       0.0745
     24  CG        24.7300   56.4720   -6.2250 C.ar   34  HIS34       0.0817
     25  ND1       24.3420   57.6940   -6.7290 N.ar   34  HIS34      -0.2268
     26  CD2       24.2890   56.4380   -4.9450 C.ar   34  HIS34       0.1154
     27  CE1       23.6870   58.3670   -5.7990 C.ar   34  HIS34       0.1986
     28  NE2       23.6410   57.6260   -4.7070 N.ar   34  HIS34      -0.2212
     29  N         23.9740   57.9030  -13.1720 N.3    59  LYS59      -0.1231
     30  CA        24.2930   57.0550  -12.0140 C.3    59  LYS59       0.1693
     31  C         24.3220   55.5320  -12.2520 C.2    59  LYS59       0.2593
     32  O         23.7110   55.0040  -13.1810 O.2    59  LYS59      -0.2718
     33  CB        23.2980   57.3290  -10.8740 C.3    59  LYS59       0.0285
     34  CG        23.2100   58.7760  -10.4140 C.3    59  LYS59       0.0035
     35  CD        22.3870   58.8960   -9.1460 C.3    59  LYS59       0.0206
     36  CE        22.2580   60.3370   -8.6840 C.3    59  LYS59       0.1093
     37  NZ        20.9030   60.6370   -8.1510 N.3    59  LYS59      -0.1314
     38  N         25.0430   54.8650  -11.3480 N.am   60  SER60      -0.1938
     39  CA        25.1410   53.4130  -11.1530 C.3    60  SER60       0.2055
     40  C         24.1500   52.8020  -10.1630 C.2    60  SER60       0.2644
     41  O         23.6230   53.4940   -9.2930 O.2    60  SER60      -0.2714
     42  CB        26.5530   53.0870  -10.6690 C.3    60  SER60       0.2130
     43  OG        26.8220   53.6910   -9.4230 O.3    60  SER60      -0.2179
     44  N         23.9050   51.4980  -10.3080 N.am   61  GLY61      -0.1939
     45  CA        23.0130   50.7640   -9.4220 C.3    61  GLY61       0.2014
     46  C         22.8840   49.2990   -9.8050 C.2    61  GLY61       0.2638
     47  O         23.4310   48.8650  -10.8160 O.2    61  GLY61      -0.2714
     48  N         22.1600   48.5320   -8.9930 N.am   62  LYS62      -0.1977
     49  CA        21.9630   47.1080   -9.2520 C.3    62  LYS62       0.1596
     50  C         20.4920   46.7150   -9.1610 C.2    62  LYS62       0.2287
     51  O         19.8170   47.0080   -8.1770 O.2    62  LYS62      -0.2864
     52  CB        22.7770   46.2820   -8.2490 C.3    62  LYS62       0.0298
     53  CG        23.0520   44.8330   -8.6340 C.3    62  LYS62       0.0038
     54  CD        23.7420   44.7420   -9.9920 C.3    62  LYS62       0.0206
     55  CE        25.1860   44.2740   -9.9040 C.3    62  LYS62       0.1093
     56  NZ        26.1130   45.2280   -9.2610 N.3    62  LYS62      -0.1314
     57  N         22.1220   49.0470  -15.9000 N.3    63  THR63      -0.1218
     58  CA        22.4230   49.3900  -14.5140 C.3    63  THR63       0.1862
     59  C         22.7520   50.8710  -14.3430 C.2    63  THR63       0.2287
     60  O         22.8440   51.3620  -13.2190 O.2    63  THR63      -0.2866
     61  CB        23.5860   48.5490  -13.9530 C.3    63  THR63       0.1770
     62  OG1       24.7380   48.7950  -14.7450 O.3    63  THR63      -0.2211
     63  CG2       23.2580   47.0690  -13.9300 C.3    63  THR63       0.0375
     64  N         21.6040   54.8740  -15.2280 N.3    65  THR65      -0.1218
     65  CA        20.4570   55.7200  -15.5280 C.3    65  THR65       0.1862
     66  C         20.7930   57.2100  -15.6070 C.2    65  THR65       0.2287
     67  O         21.7520   57.6520  -14.9880 O.2    65  THR65      -0.2866
     68  CB        19.3800   55.4980  -14.4230 C.3    65  THR65       0.1770
     69  OG1       19.0150   54.1130  -14.4090 O.3    65  THR65      -0.2211
     70  CG2       18.1290   56.3380  -14.6190 C.3    65  THR65       0.0375
     71  N         19.5600   61.1750  -15.0820 N.3    67  ILE67      -0.1245
     72  CA        18.7020   61.9780  -14.2520 C.3    67  ILE67       0.1561
     73  C         18.7790   63.4510  -14.6330 C.2    67  ILE67       0.2260
     74  O         19.8600   63.9970  -14.8050 O.2    67  ILE67      -0.2867
     75  CB        19.1430   61.8510  -12.8030 C.3    67  ILE67       0.0252
     76  CG1       19.0700   60.3910  -12.3560 C.3    67  ILE67       0.0019
     77  CG2       18.2760   62.6660  -11.9470 C.3    67  ILE67       0.0019
     78  CD1       19.0300   60.2140  -10.8570 C.3    67  ILE67       0.0001
     79  N         14.3190   66.5690   -9.0710 N.3    84  THR84      -0.1203
     80  CA        15.0620   65.6340   -9.8820 C.3    84  THR84       0.1994
     81  C         14.1200   64.5600  -10.4070 C.2    84  THR84       0.2618
     82  O         13.1390   64.2200   -9.7520 O.2    84  THR84      -0.2717
     83  CB        16.1990   64.9830   -9.0680 C.3    84  THR84       0.1784
     84  OG1       17.1720   64.4280   -9.9440 O.3    84  THR84      -0.2211
     85  CG2       15.6760   63.9120   -8.1170 C.3    84  THR84       0.0376
     86  N         14.3900   64.0440  -11.6040 N.am   85  ARG85      -0.1965
     87  CA        13.7350   62.8220  -12.0710 C.3    85  ARG85       0.1729
     88  C         14.5710   62.0230  -13.0710 C.2    85  ARG85       0.2616
     89  O         15.3970   62.5990  -13.7600 O.2    85  ARG85      -0.2715
     90  CB        12.3480   63.1750  -12.6240 C.3    85  ARG85       0.0348
     91  CG        12.3600   63.8130  -14.0050 C.3    85  ARG85       0.0492
     92  CD        10.9990   63.7940  -14.6810 C.3    85  ARG85       0.2205
     93  NE        10.5160   62.4920  -15.1000 N.pl3  85  ARG85      -0.0865
     94  CZ        10.6320   62.0210  -16.3320 C.cat  85  ARG85       0.5346
     95  NH1       10.1460   60.8310  -16.6310 N.pl3  85  ARG85       0.1354
     96  NH2       11.2430   62.7330  -17.2640 N.pl3  85  ARG85       0.1354
     97  N         14.3670   60.7140  -13.1640 N.am   86  ASN86      -0.1972
     98  CA        15.0040   59.9200  -14.2170 C.3    86  ASN86       0.1688
     99  C         14.4550   60.1560  -15.6240 C.2    86  ASN86       0.2292
    100  O         13.2630   60.3680  -15.8000 O.2    86  ASN86      -0.2864
    101  CB        14.9760   58.4260  -13.8610 C.3    86  ASN86       0.1181
    102  CG        13.5770   57.9110  -13.5630 C.2    86  ASN86       0.2629
    103  OD1       12.8520   58.4800  -12.7460 O.2    86  ASN86      -0.2716
    104  ND2       13.2030   56.8190  -14.2070 N.am   86  ASN86      -0.0877
    105  N         14.1130   54.5110  -18.4600 N.3    89  HIS89      -0.1241
    106  CA        13.4100   53.5100  -17.6710 C.3    89  HIS89       0.1621
    107  C         12.1260   54.0910  -17.1060 C.2    89  HIS89       0.2264
    108  O         11.6240   53.6330  -16.0810 O.2    89  HIS89      -0.2867
    109  CB        14.2710   52.9460  -16.5160 C.3    89  HIS89       0.0745
    110  CG        15.6920   52.6470  -16.8930 C.ar   89  HIS89       0.0817
    111  ND1       16.6420   53.6300  -17.0760 N.ar   89  HIS89      -0.2268
    112  CD2       16.3300   51.4680  -17.0810 C.ar   89  HIS89       0.1154
    113  CE1       17.7960   53.0690  -17.3880 C.ar   89  HIS89       0.1986
    114  NE2       17.6330   51.7580  -17.3960 N.ar   89  HIS89      -0.2212
    115  N          9.7040   52.6830  -13.7390 N.3    93  MET93      -0.1245
    116  CA         9.5300   53.3690  -12.4640 C.3    93  MET93       0.1570
    117  C          9.9400   54.8210  -12.6510 C.2    93  MET93       0.2261
    118  O         10.9930   55.1080  -13.2090 O.2    93  MET93      -0.2867
    119  CB        10.3760   52.6990  -11.3710 C.3    93  MET93       0.0387
    120  CG        11.8770   52.9320  -11.2920 C.3    93  MET93       0.0595
    121  SD        12.3490   52.3070   -9.6550 S.3    93  MET93      -0.1393
    122  CE        14.1210   52.5050   -9.6050 C.3    93  MET93       0.0692
    123  N         10.8380   58.1730  -10.5150 N.3    95  VAL95      -0.1245
    124  CA        11.1420   58.6840   -9.1940 C.3    95  VAL95       0.1561
    125  C         11.4290   60.1640   -9.3060 C.2    95  VAL95       0.2260
    126  O         12.3980   60.5750   -9.9360 O.2    95  VAL95      -0.2867
    127  CB        12.3290   57.9450   -8.5640 C.3    95  VAL95       0.0252
    128  CG1       12.5940   58.4700   -7.1800 C.3    95  VAL95       0.0019
    129  CG2       12.0710   56.4530   -8.5300 C.3    95  VAL95       0.0019
    130  N         11.8700   63.8360   -7.1950 N.3    97  GLU97      -0.1245
    131  CA        12.1130   64.3990   -5.8730 C.3    97  GLU97       0.1567
    132  C         12.0350   65.9060   -5.9410 C.2    97  GLU97       0.2260
    133  O         12.7270   66.5340   -6.7150 O.2    97  GLU97      -0.2867
    134  CB        13.4690   63.9560   -5.3160 C.3    97  GLU97       0.0388
    135  CG        13.8140   64.4990   -3.9370 C.3    97  GLU97       0.1160
    136  CD        15.0900   63.8890   -3.3750 C.2    97  GLU97       0.3649
    137  OE1       15.7840   63.1620   -4.1170 O.co2  97  GLU97      -0.2457
    138  OE2       15.3990   64.1300   -2.1870 O.co2  97  GLU97      -0.2457
@<TRIPOS>BOND
     1   105   106    1
     2   106   107    1
     3   106   109    1
     4   114   113   ar
     5   114   112   ar
     6   113   111   ar
     7    96    94    1
     8   107   108    2
     9   112   110   ar
    10   111   110   ar
    11   110   109    1
    12    95    94    1
    13    94    93    2
    14    57    58    1
    15   100    99    2
    16    99    98    1
    17    66    65    1
    18    66    67    2
    19    65    64    1
    20    65    68    1
    21    93    92    1
    22    71    72    1
    23    74    73    2
    24    62    61    1
    25    92    91    1
    26    73    72    1
    27    70    68    1
    28    58    59    1
    29    58    61    1
    30    68    69    1
    31    59    60    2
    32    72    75    1
    33    98   101    1
    34    98    97    1
    35   104   102   am
    36    91    90    1
    37    61    63    1
    38   101   102    1
    39    89    88    2
    40   115   116    1
    41   102   103    2
    42   118   117    2
    43    32    31    2
    44    29    30    1
    45    97    88   am
    46    88    87    1
    47    75    76    1
    48    75    77    1
    49   117   116    1
    50    90    87    1
    51   116   119    1
    52    76    78    1
    53    31    30    1
    54    31    38   am
    55    87    86    1
    56    30    33    1
    57    86    81   am
    58   119   120    1
    59    38    39    1
    60   120   121    1
    61    39    42    1
    62    39    40    1
    63    33    34    1
    64    47    46    2
    65    42    43    1
    66   123   124    1
    67    34    35    1
    68    81    80    1
    69    81    82    2
    70    44    40   am
    71    44    45    1
    72    40    41    2
    73    54    55    1
    74    54    53    1
    75    84    83    1
    76   126   125    2
    77    55    56    1
    78    80    79    1
    79    80    83    1
    80    46    45    1
    81    46    48   am
    82   121   122    1
    83    22    21    2
    84   125   124    1
    85    49    50    1
    86    49    48    1
    87    49    52    1
    88   124   127    1
    89    50    51    2
    90    35    36    1
    91    83    85    1
    92    36    37    1
    93    53    52    1
    94   127   129    1
    95   127   128    1
    96    21    20    1
    97     8    10   ar
    98     8     6   ar
    99    20    23    1
   100    20    19    1
   101     5     6    1
   102     5     2    1
   103   130   131    1
   104    10    11   ar
   105     4     3    2
   106    23    24    1
   107     6     7   ar
   108    25    24   ar
   109    25    27   ar
   110   133   132    2
   111     3     2    1
   112    24    26   ar
   113     2     1    1
   114    11    12    1
   115    11     9   ar
   116   132   131    1
   117   131   134    1
   118    27    28   ar
   119     7     9   ar
   120   134   135    1
   121    16    15    2
   122    26    28   ar
   123   137   136   ar
   124    15    14    1
   125   135   136    1
   126    17    14    1
   127    17    18    1
   128   136   138   ar
   129    14    13    1
