@<TRIPOS>MOLECULE
tmp/5jqtA00.pdb
 123 117 0 0 0
SMALL
GASTEIGER

@<TRIPOS>ATOM
      1  N         -8.3190    0.6010    5.9350 N.3    67  ASN67      -0.1240
      2  CA        -9.1630    1.5270    6.6890 C.3    67  ASN67       0.1653
      3  C        -10.3670    1.9510    5.8590 C.2    67  ASN67       0.2266
      4  O        -10.1760    2.3810    4.7130 O.2    67  ASN67      -0.2867
      5  CB        -8.4120    2.7950    7.0540 C.3    67  ASN67       0.1155
      6  CG        -7.3210    2.6090    8.0600 C.2    67  ASN67       0.2627
      7  OD1       -7.1290    1.5550    8.6390 O.2    67  ASN67      -0.2716
      8  ND2       -6.5340    3.6910    8.2480 N.am   67  ASN67      -0.0877
      9  N        -12.6170    6.3360   11.3310 N.3    92  GLN92      -0.1245
     10  CA       -12.2980    5.1860   10.4770 C.3    92  GLN92       0.1566
     11  C        -12.5370    3.9170   11.2540 C.2    92  GLN92       0.2260
     12  O        -12.5600    3.9360   12.4750 O.2    92  GLN92      -0.2867
     13  CB       -10.8440    5.2490    9.9440 C.3    92  GLN92       0.0367
     14  CG        -9.7640    5.3490   11.0050 C.3    92  GLN92       0.0905
     15  CD        -8.9640    4.0910   11.2680 C.2    92  GLN92       0.2608
     16  OE1       -9.4530    2.9750   11.2190 O.2    92  GLN92      -0.2717
     17  NE2       -7.7080    4.2950   11.5580 N.am   92  GLN92      -0.0878
     18  N        -11.0440   -0.3490   10.9950 N.3    94  HIS94      -0.1241
     19  CA       -10.1840   -1.3370   10.3560 C.3    94  HIS94       0.1621
     20  C        -10.2230   -2.6020   11.1990 C.2    94  HIS94       0.2264
     21  O        -10.8390   -2.6400   12.2750 O.2    94  HIS94      -0.2867
     22  CB        -8.7340   -0.7890   10.2950 C.3    94  HIS94       0.0745
     23  CG        -8.1810   -0.5080   11.6520 C.ar   94  HIS94       0.0817
     24  ND1       -8.3150    0.7000   12.2760 N.ar   94  HIS94      -0.2268
     25  CD2       -7.5760   -1.3370   12.5490 C.ar   94  HIS94       0.1154
     26  CE1       -7.7800    0.6350   13.4890 C.ar   94  HIS94       0.1986
     27  NE2       -7.3170   -0.5880   13.6770 N.ar   94  HIS94      -0.2212
     28  N         -7.8650   -6.3350   12.4490 N.3    96  HIS96      -0.1241
     29  CA        -6.6960   -7.1430   12.6430 C.3    96  HIS96       0.1621
     30  C         -7.1240   -8.5600   12.5130 C.2    96  HIS96       0.2264
     31  O         -8.1670   -8.9480   13.0330 O.2    96  HIS96      -0.2867
     32  CB        -6.0330   -6.8820   14.0160 C.3    96  HIS96       0.0745
     33  CG        -5.7670   -5.4530   14.2710 C.ar   96  HIS96       0.0817
     34  ND1       -4.5170   -4.8930   14.1050 N.ar   96  HIS96      -0.2268
     35  CD2       -6.5820   -4.4290   14.6800 C.ar   96  HIS96       0.1154
     36  CE1       -4.5680   -3.6110   14.4070 C.ar   96  HIS96       0.1986
     37  NE2       -5.8040   -3.2990   14.7220 N.ar   96  HIS96      -0.2212
     38  N        -11.8240   -2.5410   14.9260 N.3   119  HIS119     -0.1241
     39  CA       -11.5840   -1.3150   15.6470 C.3   119  HIS119      0.1621
     40  C        -12.3080   -0.1860   14.9690 C.2   119  HIS119      0.2264
     41  O        -11.9300    0.2030   13.8540 O.2   119  HIS119     -0.2867
     42  CB       -10.0700   -1.0200   15.7310 C.3   119  HIS119      0.0745
     43  CG        -9.3510   -1.9920   16.5920 C.ar  119  HIS119      0.0817
     44  ND1       -7.9700   -2.1850   16.5850 N.ar  119  HIS119     -0.2268
     45  CD2       -9.8410   -2.8300   17.5540 C.ar  119  HIS119      0.1154
     46  CE1       -7.6490   -3.1090   17.4630 C.ar  119  HIS119      0.1986
     47  NE2       -8.7650   -3.5270   18.0670 N.ar  119  HIS119     -0.2212
     48  N        -12.6980    3.6110   15.3000 N.3   121  VAL121     -0.1245
     49  CA       -11.8420    4.6120   15.9140 C.3   121  VAL121      0.1561
     50  C        -12.5580    5.9640   15.9480 C.2   121  VAL121      0.2260
     51  O        -13.0350    6.4640   14.9360 O.2   121  VAL121     -0.2867
     52  CB       -10.5370    4.7640   15.0820 C.3   121  VAL121      0.0252
     53  CG1       -9.6460    5.8670   15.6630 C.3   121  VAL121      0.0019
     54  CG2       -9.8230    3.4080   14.9820 C.3   121  VAL121      0.0019
     55  N         -8.3220   14.7350   14.8170 N.3   130  PHE130     -0.1241
     56  CA        -7.6360   13.5050   15.2000 C.3   130  PHE130      0.1605
     57  C         -6.1670   13.7810   15.6150 C.2   130  PHE130      0.2264
     58  O         -5.6810   13.1820   16.6000 O.2   130  PHE130     -0.2867
     59  CB        -7.6990   12.4990   14.0590 C.3   130  PHE130      0.0534
     60  CG        -7.0050   11.1980   14.3420 C.ar  130  PHE130     -0.0203
     61  CD1       -7.6470   10.1560   14.9340 C.ar  130  PHE130     -0.0042
     62  CD2       -5.7110   11.0110   13.9810 C.ar  130  PHE130     -0.0042
     63  CE1       -7.0250    8.9710   15.1980 C.ar  130  PHE130     -0.0003
     64  CE2       -5.0530    9.8130   14.2320 C.ar  130  PHE130     -0.0003
     65  CZ        -5.7250    8.7800   14.8420 C.ar  130  PHE130     -0.0000
     66  N         -8.8050    9.5200   22.2550 N.3   140  LEU140     -0.1245
     67  CA        -9.4570    8.5520   21.3940 C.3   140  LEU140      0.1561
     68  C        -10.3440    7.6120   22.2220 C.2   140  LEU140      0.2260
     69  O        -10.0730    7.3030   23.3820 O.2   140  LEU140     -0.2867
     70  CB        -8.4610    7.6880   20.6170 C.3   140  LEU140      0.0270
     71  CG        -7.5120    8.4390   19.6620 C.3   140  LEU140      0.0019
     72  CD1       -6.7130    7.3910   18.8910 C.3   140  LEU140      0.0001
     73  CD2       -8.2180    9.3490   18.7000 C.3   140  LEU140      0.0001
     74  N        -11.7780    3.7800   21.1930 N.3   142  VAL142     -0.1245
     75  CA       -11.8440    2.7090   20.2280 C.3   142  VAL142      0.1561
     76  C        -12.8400    1.6590   20.6990 C.2   142  VAL142      0.2260
     77  O        -12.7030    1.1380   21.7930 O.2   142  VAL142     -0.2867
     78  CB       -10.4760    2.0880   19.8640 C.3   142  VAL142      0.0252
     79  CG1      -10.6420    1.0720   18.7570 C.3   142  VAL142      0.0019
     80  CG2       -9.5140    3.1590   19.3880 C.3   142  VAL142      0.0019
     81  N         -2.7680    3.0400   21.2290 N.3   197  LEU197     -0.1231
     82  CA        -2.7430    2.4520   19.8850 C.3   197  LEU197      0.1693
     83  C         -2.0360    1.0980   19.9840 C.2   197  LEU197      0.2593
     84  O         -1.1020    0.9490   20.7510 O.2   197  LEU197     -0.2718
     85  CB        -1.9650    3.3590   18.9460 C.3   197  LEU197      0.0284
     86  CG        -2.4180    4.7950   18.7510 C.3   197  LEU197      0.0019
     87  CD1       -1.5550    5.4530   17.6600 C.3   197  LEU197      0.0001
     88  CD2       -3.8550    5.0270   18.4850 C.3   197  LEU197      0.0001
     89  N         -2.4150    0.1770   19.0930 N.am  198  THR198     -0.1939
     90  CA        -1.7690   -1.1170   19.0420 C.3   198  THR198      0.2028
     91  C         -0.7470   -1.2260   17.8940 C.2   198  THR198      0.2642
     92  O         -0.1320   -2.2750   17.7190 O.2   198  THR198     -0.2714
     93  CB        -2.7710   -2.2500   18.8840 C.3   198  THR198      0.1808
     94  OG1       -3.4160   -2.1370   17.6070 O.3   198  THR198     -0.2208
     95  CG2       -3.8050   -2.2580   20.0170 C.3   198  THR198      0.0379
     96  N         -0.4800   -0.0820   17.2490 N.am  199  THR199     -0.1950
     97  CA         0.4800    0.0660   16.1540 C.3   199  THR199      0.1897
     98  C          1.3130    1.2870   16.4740 C.2   199  THR199      0.2313
     99  O          0.8390    2.2220   17.1070 O.2   199  THR199     -0.2863
    100  CB        -0.2300    0.2560   14.8310 C.3   199  THR199      0.1794
    101  OG1       -1.1820    1.3490   14.9160 O.3   199  THR199     -0.2208
    102  CG2       -0.8640   -0.9730   14.3820 C.3   199  THR199      0.0378
    103  N         -5.9690    6.1500   24.3210 N.3   206  VAL206     -0.1245
    104  CA        -7.1850    5.4160   24.0350 C.3   206  VAL206      0.1561
    105  C         -7.9490    4.9910   25.2640 C.2   206  VAL206      0.2260
    106  O         -7.4050    4.3350   26.1230 O.2   206  VAL206     -0.2867
    107  CB        -6.9060    4.1950   23.1530 C.3   206  VAL206      0.0252
    108  CG1       -8.1840    3.5000   22.7820 C.3   206  VAL206      0.0019
    109  CG2       -6.0910    4.5630   21.9010 C.3   206  VAL206      0.0019
    110  N        -10.3070    2.2480   25.6910 N.3   208  TRP208     -0.1241
    111  CA       -10.8070    1.0580   25.0240 C.3   208  TRP208      0.1605
    112  C        -12.1580    0.6500   25.5480 C.2   208  TRP208      0.2264
    113  O        -12.3430    0.5590   26.7540 O.2   208  TRP208     -0.2867
    114  CB        -9.7950   -0.1230   25.1780 C.3   208  TRP208      0.0550
    115  CG        -8.6290   -0.0110   24.2380 C.ar  208  TRP208      0.0003
    116  CD1       -7.4420    0.5740   24.4790 C.ar  208  TRP208      0.0946
    117  CD2       -8.6640   -0.3740   22.8860 C.ar  208  TRP208      0.0152
    118  NE1       -6.6940    0.5750   23.3210 N.ar  208  TRP208     -0.2442
    119  CE2       -7.4220   -0.0170   22.3400 C.ar  208  TRP208      0.0810
    120  CE3       -9.5980   -1.0000   22.0950 C.ar  208  TRP208      0.0012
    121  CZ2       -7.0950   -0.2340   20.9950 C.ar  208  TRP208      0.0191
    122  CZ3       -9.2680   -1.2510   20.7620 C.ar  208  TRP208      0.0001
    123  CH2       -8.0110   -0.8890   20.2290 C.ar  208  TRP208      0.0015
@<TRIPOS>BOND
     1     4     3    2
     2     3     2    1
     3     1     2    1
     4     2     5    1
     5     5     6    1
     6     6     8   am
     7     6     7    2
     8    13    10    1
     9    13    14    1
    10    22    19    1
    11    22    23    1
    12    19    18    1
    13    19    20    1
    14    10    11    1
    15    10     9    1
    16    14    15    1
    17    20    21    2
    18    16    15    2
    19    11    12    2
    20    15    17   am
    21    23    24   ar
    22    23    25   ar
    23    24    26   ar
    24    28    29    1
    25    30    29    1
    26    30    31    2
    27    25    27   ar
    28    29    32    1
    29    26    27   ar
    30    41    40    2
    31    62    64   ar
    32    62    60   ar
    33    32    33    1
    34    59    60    1
    35    59    56    1
    36    34    33   ar
    37    34    36   ar
    38    64    65   ar
    39    33    35   ar
    40    60    61   ar
    41   102   100    1
    42    36    37   ar
    43    35    37   ar
    44    55    56    1
    45   100   101    1
    46   100    97    1
    47    65    63   ar
    48    38    39    1
    49    61    63   ar
    50    51    50    2
    51    40    39    1
    52    54    52    1
    53    52    53    1
    54    52    49    1
    55    56    57    1
    56    48    49    1
    57    57    58    2
    58    39    42    1
    59    42    43    1
    60    49    50    1
    61    97    98    1
    62    97    96    1
    63    98    99    2
    64    44    43   ar
    65    44    46   ar
    66    43    45   ar
    67    96    91   am
    68    46    47   ar
    69    45    47   ar
    70    94    93    1
    71    87    86    1
    72    92    91    2
    73    91    90    1
    74    88    86    1
    75    73    71    1
    76    86    85    1
    77    79    78    1
    78    93    90    1
    79    93    95    1
    80    72    71    1
    81    85    82    1
    82    90    89    1
    83    89    83   am
    84    80    78    1
    85    71    70    1
    86    78    75    1
    87    82    83    1
    88    82    81    1
    89    83    84    2
    90    75    76    1
    91    75    74    1
    92   123   122   ar
    93   123   121   ar
    94    70    67    1
    95    76    77    2
    96   122   120   ar
    97   121   119   ar
    98    67    68    1
    99    67    66    1
   100   109   107    1
   101   120   117   ar
   102    68    69    2
   103   119   117   ar
   104   119   118   ar
   105   108   107    1
   106   117   115   ar
   107   107   104    1
   108   118   116   ar
   109   104   103    1
   110   104   105    1
   111   115   116   ar
   112   115   114    1
   113   111   114    1
   114   111   112    1
   115   111   110    1
   116   105   106    2
   117   112   113    2
