@<TRIPOS>MOLECULE
tmp/5jqtA04.pdb
 103 98 0 0 0
SMALL
GASTEIGER

@<TRIPOS>ATOM
      1  N          9.5590   -3.2620   -0.3210 N.3     1  MET1       -0.1245
      2  CA        10.8110   -2.5310   -0.6320 C.3     1  MET1        0.1570
      3  C         11.0850   -1.3130    0.2630 C.2     1  MET1        0.2261
      4  O         12.2540   -0.9660    0.4120 O.2     1  MET1       -0.2867
      5  CB        10.8290   -2.0920   -2.1040 C.3     1  MET1        0.0387
      6  CG        10.7400   -3.2310   -3.0860 C.3     1  MET1        0.0595
      7  SD        11.4000   -2.6660   -4.6600 S.3     1  MET1       -0.1393
      8  CE        13.1880   -2.5930   -4.3390 C.3     1  MET1        0.0692
      9  N          9.9730    0.3170    6.8010 N.3     4  HIS4       -0.1241
     10  CA         8.7510    0.4590    7.5500 C.3     4  HIS4        0.1621
     11  C          8.6700   -0.5380    8.7290 C.2     4  HIS4        0.2264
     12  O          9.1420   -1.6760    8.6700 O.2     4  HIS4       -0.2867
     13  CB         7.5550    0.1960    6.5920 C.3     4  HIS4        0.0745
     14  CG         7.4390   -1.2320    6.0830 C.ar    4  HIS4        0.0817
     15  ND1        8.3130   -1.8110    5.1590 N.ar    4  HIS4       -0.2268
     16  CD2        6.5110   -2.1830    6.3720 C.ar    4  HIS4        0.1154
     17  CE1        7.9330   -3.0590    4.9070 C.ar    4  HIS4        0.1986
     18  NE2        6.8690   -3.2880    5.6560 N.ar    4  HIS4       -0.2212
     19  N          6.3890   -3.2260   10.6890 N.3     6  GLY6       -0.1210
     20  CA         5.3560   -4.1440   10.2140 C.3     6  GLY6        0.1956
     21  C          5.1030   -5.2630   11.1850 C.2     6  GLY6        0.2612
     22  O          5.1250   -5.0250   12.3830 O.2     6  GLY6       -0.2717
     23  N          4.8390   -6.4390   10.6490 N.am    7  TYR7       -0.1962
     24  CA         4.4950   -7.5850   11.4690 C.3     7  TYR7        0.1771
     25  C          5.4300   -8.7660   11.2700 C.2     7  TYR7        0.2620
     26  O          5.2270   -9.8410   11.9100 O.2     7  TYR7       -0.2715
     27  CB         3.0080   -7.9530   11.2880 C.3     7  TYR7        0.0574
     28  CG         2.1100   -6.9070   11.8310 C.ar    7  TYR7       -0.0198
     29  CD1        1.7030   -6.9320   13.1890 C.ar    7  TYR7       -0.0009
     30  CD2        1.6080   -5.8910   11.0190 C.ar    7  TYR7       -0.0009
     31  CE1        0.8480   -5.9610   13.6410 C.ar    7  TYR7        0.0417
     32  CE2        0.7640   -4.9340   11.4870 C.ar    7  TYR7        0.0417
     33  CZ         0.3820   -4.9570   12.8240 C.ar    7  TYR7        0.1957
     34  OH        -0.4700   -4.0170   13.2680 O.3     7  TYR7       -0.2866
     35  N          6.4330   -8.5850   10.4060 N.am    8  GLY8       -0.1954
     36  CA         7.4300   -9.6590   10.1690 C.3     8  GLY8        0.1869
     37  C          8.3550   -9.9090   11.3340 C.2     8  GLY8        0.2309
     38  O          8.4950   -9.0770   12.2860 O.2     8  GLY8       -0.2863
     39  N         10.6940   -6.8420   11.5210 N.3    11  ASN11      -0.1240
     40  CA        10.1730   -5.4900   11.7230 C.3    11  ASN11       0.1653
     41  C          8.8970   -5.4480   12.5880 C.2    11  ASN11       0.2266
     42  O          8.2400   -4.4290   12.6510 O.2    11  ASN11      -0.2867
     43  CB         9.9460   -4.7510   10.3840 C.3    11  ASN11       0.1155
     44  CG         8.8210   -5.3320    9.5780 C.2    11  ASN11       0.2627
     45  OD1        8.3270   -6.4130    9.8930 O.2    11  ASN11      -0.2716
     46  ND2        8.4280   -4.6340    8.4990 N.am   11  ASN11      -0.0877
     47  N         -0.9020   -0.6230    4.0100 N.3    63  GLY63      -0.1225
     48  CA         0.2610   -1.4940    4.1640 C.3    63  GLY63       0.1811
     49  C          0.2660   -2.2660    5.4740 C.2    63  GLY63       0.2280
     50  O          1.1040   -3.1650    5.6490 O.2    63  GLY63      -0.2866
     51  N         -0.4900   -2.1300   -0.9590 N.3   169  LYS169     -0.1245
     52  CA        -0.2540   -0.9360   -0.1930 C.3   169  LYS169      0.1561
     53  C         -0.3500    0.3270   -0.9950 C.2   169  LYS169      0.2260
     54  O          0.2850    0.4920   -2.0540 O.2   169  LYS169     -0.2867
     55  CB         1.1680   -0.9920    0.4260 C.3   169  LYS169      0.0271
     56  CG         1.5680    0.2380    1.2310 C.3   169  LYS169      0.0035
     57  CD         2.9260    0.1000    1.8490 C.3   169  LYS169      0.0206
     58  CE         4.0030   -0.1680    0.8110 C.3   169  LYS169      0.1093
     59  NZ         4.5500    1.0890    0.2390 N.3   169  LYS169     -0.1314
     60  N          0.6540   -6.8960    2.1470 N.3   230  PHE230     -0.1227
     61  CA         1.4270   -5.8460    2.8100 C.3   230  PHE230      0.1736
     62  C          2.2470   -4.9890    1.8200 C.2   230  PHE230      0.2595
     63  O          2.5100   -3.8300    2.0680 O.2   230  PHE230     -0.2718
     64  CB         2.4660   -6.4620    3.7800 C.3   230  PHE230      0.0547
     65  CG         1.8720   -7.0700    5.0520 C.ar  230  PHE230     -0.0202
     66  CD1        1.1250   -6.3080    5.9490 C.ar  230  PHE230     -0.0042
     67  CD2        2.1840   -8.3870    5.4490 C.ar  230  PHE230     -0.0042
     68  CE1        0.6460   -6.8390    7.1460 C.ar  230  PHE230     -0.0003
     69  CE2        1.6750   -8.8950    6.6470 C.ar  230  PHE230     -0.0003
     70  CZ         0.9690   -8.1150    7.5100 C.ar  230  PHE230     -0.0000
     71  N          2.7140   -5.6410    0.7580 N.am  231  ASN231     -0.1974
     72  CA         3.5560   -5.0110   -0.2580 C.3   231  ASN231      0.1688
     73  C          2.7660   -4.0800   -1.1420 C.2   231  ASN231      0.2292
     74  O          1.5380   -4.1920   -1.2890 O.2   231  ASN231     -0.2864
     75  CB         4.2090   -6.0880   -1.1430 C.3   231  ASN231      0.1181
     76  CG         3.1690   -7.0630   -1.7160 C.2   231  ASN231      0.2629
     77  OD1        2.6740   -7.9340   -1.0140 O.2   231  ASN231     -0.2716
     78  ND2        2.7790   -6.8440   -2.9360 N.am  231  ASN231     -0.0877
     79  N          5.7820   -5.3250   -6.3690 N.3   235  GLU235     -0.1182
     80  CA         6.7480   -5.8520   -5.4090 C.3   235  GLU235      0.1900
     81  C          6.3830   -7.3320   -5.1040 C.2   235  GLU235      0.2476
     82  O          5.2460   -7.7910   -5.3340 O.2   235  GLU235     -0.2729
     83  CB         6.7430   -5.0510   -4.0740 C.2   235  GLU235      0.0084
     84  CG         7.0890   -3.5400   -4.0860 C.2   235  GLU235      0.0835
     85  CD         6.8100   -2.6980   -2.7350 C.2   235  GLU235      0.3877
     86  OE1        6.4060   -3.2040   -1.5620 O.co2 235  GLU235     -0.2406
     87  OE2        7.0470   -1.4180   -2.8480 O.co2 235  GLU235     -0.2406
     88  N          7.3300   -8.0990   -4.5670 N.am  236  PRO236     -0.2726
     89  CA         6.9740   -9.4620   -4.2250 C.3   236  PRO236      0.1402
     90  C          5.8370   -9.5870   -3.2140 C.2   236  PRO236      0.2269
     91  O          5.7370   -8.8200   -2.2480 O.2   236  PRO236     -0.2865
     92  CB         8.2460  -10.0050   -3.6350 C.3   236  PRO236      0.0296
     93  CG         9.3350   -9.2450   -4.3570 C.3   236  PRO236      0.0237
     94  CD         8.7780   -7.8540   -4.3960 C.3   236  PRO236      0.0939
     95  N          3.5510  -10.4860   -0.2930 N.3   238  GLU238     -0.1245
     96  CA         3.5550  -10.8930    1.0950 C.3   238  GLU238      0.1567
     97  C          2.1500  -10.6940    1.6160 C.2   238  GLU238      0.2260
     98  O          1.6520   -9.5620    1.7380 O.2   238  GLU238     -0.2867
     99  CB         4.5940  -10.1420    1.9130 C.3   238  GLU238      0.0388
    100  CG         4.7680  -10.6810    3.3310 C.3   238  GLU238      0.1160
    101  CD         5.3190  -12.1110    3.4950 C.2   238  GLU238      0.3649
    102  OE1        6.0980  -12.5760    2.7230 O.co2 238  GLU238     -0.2457
    103  OE2        5.0910  -12.7780    4.4870 O.co2 238  GLU238     -0.2457
@<TRIPOS>BOND
     1    79    80    1
     2    80    81    1
     3    80    83    1
     4    82    81    2
     5    81    88   am
     6     7     8    1
     7     7     6    1
     8    88    94    1
     9    88    89    1
    10    94    93    1
    11    93    92    1
    12    89    92    1
    13    89    90    1
    14    84    83    2
    15    84    85    1
    16    90    91    2
    17     6     5    1
    18    78    76   am
    19    87    85   ar
    20    85    86   ar
    21     5     2    1
    22    54    53    2
    23    76    75    1
    24    76    77    2
    25    74    73    2
    26    75    72    1
    27    73    72    1
    28    53    52    1
    29    51    52    1
    30     2     1    1
    31     2     3    1
    32    95    96    1
    33    72    71    1
    34    52    55    1
    35    59    58    1
    36     3     4    2
    37    55    56    1
    38    71    62   am
    39    58    57    1
    40    96    97    1
    41    96    99    1
    42    56    57    1
    43    97    98    2
    44    62    63    2
    45    62    61    1
    46    99   100    1
    47    60    61    1
    48   102   101   ar
    49    61    64    1
    50   100   101    1
    51   101   103   ar
    52    64    65    1
    53    47    48    1
    54    48    49    1
    55    17    15   ar
    56    17    18   ar
    57    65    67   ar
    58    65    66   ar
    59    15    14   ar
    60    67    69   ar
    61    49    50    2
    62    18    16   ar
    63    66    68   ar
    64    14    16   ar
    65    14    13    1
    66    13    10    1
    67    69    70   ar
    68     9    10    1
    69    68    70   ar
    70    10    11    1
    71    46    44   am
    72    12    11    2
    73    44    45    2
    74    44    43    1
    75    36    35    1
    76    36    37    1
    77    20    19    1
    78    20    21    1
    79    43    40    1
    80    35    25   am
    81    23    21   am
    82    23    24    1
    83    30    32   ar
    84    30    28   ar
    85    21    22    2
    86    25    24    1
    87    25    26    2
    88    27    24    1
    89    27    28    1
    90    37    38    2
    91    32    33   ar
    92    39    40    1
    93    40    41    1
    94    28    29   ar
    95    41    42    2
    96    33    34    1
    97    33    31   ar
    98    29    31   ar
