@<TRIPOS>MOLECULE
tmp/5jqwA00.pdb
 182 173 0 0 0
SMALL
GASTEIGER

@<TRIPOS>ATOM
      1  N        -21.0590   21.9550   -7.8050 N.3    96  ARG96      -0.1245
      2  CA       -20.3470   20.7390   -8.1930 C.3    96  ARG96       0.1563
      3  C        -19.4870   20.9650   -9.4300 C.2    96  ARG96       0.2260
      4  O        -18.3930   20.4000   -9.5460 O.2    96  ARG96      -0.2867
      5  CB       -21.3340   19.6000   -8.4390 C.3    96  ARG96       0.0307
      6  CG       -21.6940   18.8120   -7.1850 C.3    96  ARG96       0.0489
      7  CD       -22.6060   17.6400   -7.5020 C.3    96  ARG96       0.2205
      8  NE       -23.9600   17.8600   -7.0070 N.pl3  96  ARG96      -0.0865
      9  CZ       -24.3420   17.6710   -5.7470 C.cat  96  ARG96       0.5346
     10  NH1      -25.5980   17.9040   -5.3990 N.pl3  96  ARG96       0.1354
     11  NH2      -23.4740   17.2550   -4.8330 N.pl3  96  ARG96       0.1354
     12  N        -14.1670   12.2260  -10.6120 N.3   110  ALA110     -0.1245
     13  CA       -14.9440   11.5170  -11.6140 C.3   110  ALA110      0.1562
     14  C        -15.0330   12.3440  -12.8910 C.2   110  ALA110      0.2260
     15  O        -14.9670   13.5760  -12.8640 O.2   110  ALA110     -0.2867
     16  CB       -16.3460   11.2140  -11.0900 C.3   110  ALA110      0.0290
     17  N        -24.6650    9.5430  -13.4240 N.3   133  ILE133     -0.1245
     18  CA       -25.5930   10.2660  -12.5640 C.3   133  ILE133      0.1561
     19  C        -25.6930   11.7050  -13.0500 C.2   133  ILE133      0.2260
     20  O        -24.6710   12.3550  -13.2950 O.2   133  ILE133     -0.2867
     21  CB       -25.1540   10.2260  -11.0870 C.3   133  ILE133      0.0252
     22  CG1      -25.0790    8.7820  -10.5870 C.3   133  ILE133      0.0019
     23  CG2      -26.1160   11.0230  -10.2240 C.3   133  ILE133      0.0019
     24  CD1      -23.7420    8.4150   -9.9830 C.3   133  ILE133      0.0001
     25  N        -26.7540   15.2860  -11.7940 N.3   135  LYS135     -0.1245
     26  CA       -26.9220   15.9720  -10.5230 C.3   135  LYS135      0.1561
     27  C        -27.1790   17.4560  -10.7440 C.2   135  LYS135      0.2260
     28  O        -26.7680   18.0320  -11.7560 O.2   135  LYS135     -0.2867
     29  CB       -25.6840   15.8180   -9.6320 C.3   135  LYS135      0.0271
     30  CG       -25.2290   14.3920   -9.4040 C.3   135  LYS135      0.0035
     31  CD       -23.9630   14.3700   -8.5640 C.3   135  LYS135      0.0206
     32  CE       -23.4840   12.9540   -8.3010 C.3   135  LYS135      0.1093
     33  NZ       -22.2930   12.9410   -7.4070 N.3   135  LYS135     -0.1314
     34  N        -29.4370   20.4130   -2.8630 N.3   140  GLY140     -0.1210
     35  CA       -29.6060   18.9740   -2.8740 C.3   140  GLY140      0.1956
     36  C        -28.5380   18.2750   -2.0600 C.2   140  GLY140      0.2612
     37  O        -27.3420   18.4470   -2.3140 O.2   140  GLY140     -0.2717
     38  N        -28.9540   17.4830   -1.0740 N.am  141  TYR141     -0.1962
     39  CA       -28.0250   16.8170   -0.1750 C.3   141  TYR141      0.1771
     40  C        -28.5220   15.4090    0.1190 C.2   141  TYR141      0.2620
     41  O        -29.7000   15.0920   -0.0670 O.2   141  TYR141     -0.2715
     42  CB       -27.8440   17.6070    1.1280 C.3   141  TYR141      0.0574
     43  CG       -29.0880   18.3460    1.5640 C.ar  141  TYR141     -0.0198
     44  CD1      -29.2540   19.6940    1.2740 C.ar  141  TYR141     -0.0009
     45  CD2      -30.0990   17.6950    2.2580 C.ar  141  TYR141     -0.0009
     46  CE1      -30.3890   20.3750    1.6680 C.ar  141  TYR141      0.0417
     47  CE2      -31.2390   18.3680    2.6560 C.ar  141  TYR141      0.0417
     48  CZ       -31.3790   19.7080    2.3580 C.ar  141  TYR141      0.1957
     49  OH       -32.5110   20.3830    2.7510 O.3   141  TYR141     -0.2866
     50  N        -27.5950   14.5650    0.5770 N.am  142  ASP142     -0.1957
     51  CA       -27.8750   13.1640    0.9000 C.3   142  ASP142      0.1840
     52  C        -28.4240   12.4030   -0.3040 C.2   142  ASP142      0.2623
     53  O        -29.2070   11.4620   -0.1530 O.2   142  ASP142     -0.2715
     54  CB       -28.8320   13.0470    2.0900 C.3   142  ASP142      0.1450
     55  CG       -28.3180   13.7630    3.3240 C.2   142  ASP142      0.3671
     56  OD1      -27.0830   13.8510    3.4900 O.co2 142  ASP142     -0.2456
     57  OD2      -29.1490   14.2380    4.1270 O.co2 142  ASP142     -0.2456
     58  N        -28.0170   12.8040   -1.5080 N.am  143  GLY143     -0.1940
     59  CA       -28.4590   12.1590   -2.7240 C.3   143  GLY143      0.2014
     60  C        -29.7040   12.7480   -3.3510 C.2   143  GLY143      0.2638
     61  O        -30.0610   12.3510   -4.4680 O.2   143  GLY143     -0.2714
     62  N        -30.3740   13.6780   -2.6760 N.am  144  LYS144     -0.1977
     63  CA       -31.5860   14.2710   -3.2200 C.3   144  LYS144      0.1596
     64  C        -31.2620   15.1640   -4.4140 C.2   144  LYS144      0.2287
     65  O        -30.1820   15.7540   -4.5070 O.2   144  LYS144     -0.2864
     66  CB       -32.3160   15.0750   -2.1440 C.3   144  LYS144      0.0298
     67  CG       -32.6940   14.2580   -0.9190 C.3   144  LYS144      0.0038
     68  CD       -34.0050   14.7340   -0.3140 C.3   144  LYS144      0.0206
     69  CE       -34.6520   13.6470    0.5310 C.3   144  LYS144      0.1093
     70  NZ       -34.6270   13.9740    1.9830 N.3   144  LYS144     -0.1314
     71  N        -31.0820   14.1440   -7.6930 N.3   146  GLN146     -0.1245
     72  CA       -30.2310   13.4630   -8.6560 C.3   146  GLN146      0.1566
     73  C        -31.0420   12.3820   -9.3560 C.2   146  GLN146      0.2260
     74  O        -32.0970   11.9610   -8.8760 O.2   146  GLN146     -0.2867
     75  CB       -28.9950   12.8410   -7.9880 C.3   146  GLN146      0.0367
     76  CG       -28.1260   13.8220   -7.2160 C.3   146  GLN146      0.0905
     77  CD       -26.9910   13.1370   -6.4780 C.2   146  GLN146      0.2608
     78  OE1      -26.8220   11.9210   -6.5680 O.2   146  GLN146     -0.2717
     79  NE2      -26.2110   13.9160   -5.7370 N.am  146  GLN146     -0.0878
     80  N        -21.9740   13.0890  -14.2040 N.3   172  GLU172     -0.1231
     81  CA       -20.9110   12.4070  -13.4770 C.3   172  GLU172      0.1699
     82  C        -20.8800   10.9440  -13.8840 C.2   172  GLU172      0.2592
     83  O        -21.9110   10.2650  -13.8490 O.2   172  GLU172     -0.2718
     84  CB       -21.0950   12.5200  -11.9590 C.3   172  GLU172      0.0402
     85  CG       -20.7210   13.8690  -11.3740 C.3   172  GLU172      0.1161
     86  CD       -20.4050   13.7830   -9.8950 C.2   172  GLU172      0.3649
     87  OE1      -19.9270   12.7170   -9.4530 O.co2 172  GLU172     -0.2457
     88  OE2      -20.6380   14.7760   -9.1730 O.co2 172  GLU172     -0.2457
     89  N        -19.7010   10.4630  -14.2670 N.am  173  ALA173     -0.1966
     90  CA       -19.5250    9.0550  -14.5830 C.3   173  ALA173      0.1728
     91  C        -19.4190    8.2400  -13.3010 C.2   173  ALA173      0.2616
     92  O        -18.8430    8.6920  -12.3070 O.2   173  ALA173     -0.2715
     93  CB       -18.2780    8.8480  -15.4430 C.3   173  ALA173      0.0334
     94  N        -19.9850    7.0360  -13.3270 N.am  174  PHE174     -0.1960
     95  CA       -19.9580    6.1720  -12.1550 C.3   174  PHE174      0.1771
     96  C        -18.5300    5.7250  -11.8690 C.2   174  PHE174      0.2619
     97  O        -17.8140    5.2800  -12.7710 O.2   174  PHE174     -0.2715
     98  CB       -20.8640    4.9610  -12.3710 C.3   174  PHE174      0.0574
     99  CG       -21.5230    4.4640  -11.1160 C.ar  174  PHE174     -0.0200
    100  CD1      -22.7750    4.9270  -10.7480 C.ar  174  PHE174     -0.0042
    101  CD2      -20.8920    3.5350  -10.3060 C.ar  174  PHE174     -0.0042
    102  CE1      -23.3870    4.4720   -9.5950 C.ar  174  PHE174     -0.0003
    103  CE2      -21.4980    3.0760   -9.1520 C.ar  174  PHE174     -0.0003
    104  CZ       -22.7470    3.5460   -8.7960 C.ar  174  PHE174     -0.0000
    105  N        -18.1170    5.8460  -10.6120 N.am  175  VAL175     -0.1977
    106  CA       -16.7450    5.5550  -10.2130 C.3   175  VAL175      0.1596
    107  C        -16.6560    4.1170   -9.7230 C.2   175  VAL175      0.2287
    108  O        -17.4290    3.6950   -8.8550 O.2   175  VAL175     -0.2864
    109  CB       -16.2700    6.5330   -9.1270 C.3   175  VAL175      0.0276
    110  CG1      -14.8300    6.2340   -8.7370 C.3   175  VAL175      0.0022
    111  CG2      -16.4110    7.9630   -9.6080 C.3   175  VAL175      0.0022
    112  N        -14.9410    2.0560   -7.4050 N.3   177  PHE177     -0.1241
    113  CA       -14.1380    2.2170   -6.2040 C.3   177  PHE177      0.1605
    114  C        -14.3970    1.0590   -5.2500 C.2   177  PHE177      0.2264
    115  O        -15.4550    0.4240   -5.2770 O.2   177  PHE177     -0.2867
    116  CB       -14.4250    3.5560   -5.5030 C.3   177  PHE177      0.0534
    117  CG       -15.8310    3.6880   -4.9840 C.ar  177  PHE177     -0.0203
    118  CD1      -16.1410    3.3310   -3.6820 C.ar  177  PHE177     -0.0042
    119  CD2      -16.8390    4.1790   -5.7960 C.ar  177  PHE177     -0.0042
    120  CE1      -17.4310    3.4540   -3.2020 C.ar  177  PHE177     -0.0003
    121  CE2      -18.1320    4.3040   -5.3210 C.ar  177  PHE177     -0.0003
    122  CZ       -18.4280    3.9410   -4.0230 C.ar  177  PHE177     -0.0000
    123  N        -14.6890    4.0810    0.6240 N.3   180  GLU180     -0.1245
    124  CA       -14.6670    5.5330    0.7260 C.3   180  GLU180      0.1567
    125  C        -14.0120    5.9620    2.0300 C.2   180  GLU180      0.2260
    126  O        -14.2430    5.3580    3.0820 O.2   180  GLU180     -0.2867
    127  CB       -16.0810    6.1160    0.6470 C.3   180  GLU180      0.0388
    128  CG       -16.7380    5.9670   -0.7100 C.3   180  GLU180      0.1160
    129  CD       -18.1640    6.4690   -0.7160 C.2   180  GLU180      0.3649
    130  OE1      -19.0800    5.6720   -0.4190 O.co2 180  GLU180     -0.2457
    131  OE2      -18.3680    7.6660   -1.0060 O.co2 180  GLU180     -0.2457
    132  N        -21.7560    4.3910    3.4120 N.3   203  HIS203     -0.1241
    133  CA       -22.9810    5.0470    2.9870 C.3   203  HIS203      0.1621
    134  C        -24.0820    4.0200    2.7620 C.2   203  HIS203      0.2264
    135  O        -23.8220    2.8780    2.3720 O.2   203  HIS203     -0.2867
    136  CB       -22.7630    5.8580    1.7070 C.3   203  HIS203      0.0745
    137  CG       -21.9170    7.0770    1.9000 C.ar  203  HIS203      0.0817
    138  ND1      -20.5390    7.0360    1.8950 N.ar  203  HIS203     -0.2268
    139  CD2      -22.2530    8.3740    2.0950 C.ar  203  HIS203      0.1154
    140  CE1      -20.0640    8.2540    2.0820 C.ar  203  HIS203      0.1986
    141  NE2      -21.0830    9.0850    2.2070 N.ar  203  HIS203     -0.2212
    142  N        -27.1790    6.8090   -0.2390 N.3   206  GLY206     -0.1225
    143  CA       -26.7380    8.1800   -0.3680 C.3   206  GLY206      0.1811
    144  C        -26.4310    8.8950    0.9290 C.2   206  GLY206      0.2280
    145  O        -25.8860   10.0070    0.8880 O.2   206  GLY206     -0.2866
    146  N        -13.9390   14.2930    0.9610 N.3   244  GLU244     -0.1245
    147  CA       -14.3820   12.9110    0.8290 C.3   244  GLU244      0.1567
    148  C        -13.7750   12.3020   -0.4270 C.2   244  GLU244      0.2260
    149  O        -13.7950   12.9210   -1.4960 O.2   244  GLU244     -0.2867
    150  CB       -15.9080   12.8270    0.7790 C.3   244  GLU244      0.0388
    151  CG       -16.6050   13.5590    1.9160 C.3   244  GLU244      0.1160
    152  CD       -18.0990   13.3020    1.9460 C.2   244  GLU244      0.3649
    153  OE1      -18.5070   12.2210    2.4210 O.co2 244  GLU244     -0.2457
    154  OE2      -18.8660   14.1770    1.4910 O.co2 244  GLU244     -0.2457
    155  N        -13.0620    8.7490   -3.0260 N.3   246  PHE246     -0.1241
    156  CA       -13.2210    7.3690   -3.4550 C.3   246  PHE246      0.1605
    157  C        -11.8520    6.7020   -3.4630 C.2   246  PHE246      0.2264
    158  O        -10.8360    7.3380   -3.7540 O.2   246  PHE246     -0.2867
    159  CB       -13.8450    7.2780   -4.8500 C.3   246  PHE246      0.0534
    160  CG       -15.2010    7.9140   -4.9610 C.ar  246  PHE246     -0.0203
    161  CD1      -16.2730    7.4300   -4.2300 C.ar  246  PHE246     -0.0042
    162  CD2      -15.4090    8.9810   -5.8200 C.ar  246  PHE246     -0.0042
    163  CE1      -17.5240    8.0110   -4.3410 C.ar  246  PHE246     -0.0003
    164  CE2      -16.6550    9.5640   -5.9360 C.ar  246  PHE246     -0.0003
    165  CZ       -17.7140    9.0790   -5.1950 C.ar  246  PHE246     -0.0000
    166  N        -14.3000   12.9570   -4.2020 N.3   255  ASN255     -0.1225
    167  CA       -15.7430   12.9990   -4.4300 C.3   255  ASN255      0.1785
    168  C        -16.2540   14.4340   -4.3260 C.2   255  ASN255      0.2597
    169  O        -16.7210   15.0150   -5.3100 O.2   255  ASN255     -0.2718
    170  CB       -16.4570   12.0820   -3.4310 C.3   255  ASN255      0.1169
    171  CG       -17.9680   12.1280   -3.5680 C.2   255  ASN255      0.2627
    172  OD1      -18.5010   12.4800   -4.6200 O.2   255  ASN255     -0.2716
    173  ND2      -18.6670   11.7660   -2.4980 N.am  255  ASN255     -0.0877
    174  N        -16.1660   15.0160   -3.1330 N.am  256  GLU256     -0.1979
    175  CA       -16.5750   16.3950   -2.9080 C.3   256  GLU256      0.1602
    176  C        -15.8650   16.9060   -1.6640 C.2   256  GLU256      0.2287
    177  O        -15.2800   16.1380   -0.8980 O.2   256  GLU256     -0.2864
    178  CB       -18.0950   16.5140   -2.7570 C.3   256  GLU256      0.0415
    179  CG       -18.6570   15.7490   -1.5700 C.3   256  GLU256      0.1163
    180  CD       -20.1350   16.0080   -1.3570 C.2   256  GLU256      0.3649
    181  OE1      -20.7040   16.8470   -2.0860 O.co2 256  GLU256     -0.2457
    182  OE2      -20.7270   15.3740   -0.4590 O.co2 256  GLU256     -0.2457
@<TRIPOS>BOND
     1    93    90    1
     2    90    89    1
     3    90    91    1
     4    89    82   am
     5    80    81    1
     6    82    83    2
     7    82    81    1
     8    81    84    1
     9    17    18    1
    10    94    91   am
    11    94    95    1
    12    91    92    2
    13    20    19    2
    14    19    18    1
    15    14    15    2
    16    14    13    1
    17    97    96    2
    18    18    21    1
    19    98    95    1
    20    98    99    1
    21    95    96    1
    22    84    85    1
    23    96   105   am
    24    25    26    1
    25    28    27    2
    26    13    16    1
    27    13    12    1
    28    85    86    1
    29    99   100   ar
    30    99   101   ar
    31    21    22    1
    32    21    23    1
    33   100   102   ar
    34    27    26    1
    35   105   106    1
    36    22    24    1
    37    26    29    1
    38   101   103   ar
    39   106   107    1
    40   106   109    1
    41    86    87   ar
    42    86    88   ar
    43   107   108    2
    44    29    30    1
    45   111   109    1
    46   102   104   ar
    47     4     3    2
    48     3     2    1
    49    30    31    1
    50    73    74    2
    51    73    72    1
    52   103   104   ar
    53   109   110    1
    54    72    75    1
    55    72    71    1
    56    31    32    1
    57     5     2    1
    58     5     6    1
    59    32    33    1
    60     2     1    1
    61    75    76    1
    62     7     6    1
    63     7     8    1
    64   112   113    1
    65    76    77    1
    66     8     9    2
    67    78    77    2
    68    77    79   am
    69   113   116    1
    70   113   114    1
    71   164   162   ar
    72   164   165   ar
    73   162   160   ar
    74   119   121   ar
    75   119   117   ar
    76     9    10    1
    77     9    11    1
    78   116   117    1
    79   121   122   ar
    80   169   168    2
    81   115   114    2
    82   165   163   ar
    83   117   118   ar
    84   160   159    1
    85   160   161   ar
    86   159   156    1
    87   172   171    2
    88    65    64    2
    89    61    60    2
    90   167   168    1
    91   167   166    1
    92   167   170    1
    93    64    63    1
    94   163   161   ar
    95   168   174   am
    96   122   120   ar
    97   158   157    2
    98   118   120   ar
    99   171   170    1
   100   171   173   am
   101   157   156    1
   102   156   155    1
   103    60    59    1
   104    60    62   am
   105    63    62    1
   106    63    66    1
   107   174   175    1
   108   175   178    1
   109   175   176    1
   110    35    34    1
   111    35    36    1
   112   178   179    1
   113    59    58    1
   114    37    36    2
   115    66    67    1
   116   181   180   ar
   117    36    38   am
   118   176   177    2
   119   179   180    1
   120    58    52   am
   121   149   148    2
   122   180   182   ar
   123    38    39    1
   124   131   129   ar
   125    67    68    1
   126   129   128    1
   127   129   130   ar
   128   128   127    1
   129   148   147    1
   130   143   142    1
   131   143   144    1
   132    68    69    1
   133    52    53    2
   134    52    51    1
   135    39    40    1
   136    39    42    1
   137    41    40    2
   138    40    50   am
   139    69    70    1
   140    50    51    1
   141   123   124    1
   142   127   124    1
   143   124   125    1
   144   150   147    1
   145   150   151    1
   146   147   146    1
   147   145   144    2
   148    51    54    1
   149    42    43    1
   150    44    43   ar
   151    44    46   ar
   152   154   152   ar
   153    43    45   ar
   154    46    48   ar
   155   136   137    1
   156   136   133    1
   157   138   137   ar
   158   138   140   ar
   159   137   139   ar
   160   151   152    1
   161   152   153   ar
   162   125   126    2
   163   140   141   ar
   164    54    55    1
   165   139   141   ar
   166    45    47   ar
   167    48    47   ar
   168    48    49    1
   169   135   134    2
   170   134   133    1
   171   133   132    1
   172    55    56   ar
   173    55    57   ar
