@<TRIPOS>MOLECULE
tmp/5jr2B02.pdb
 79 77 0 0 0
SMALL
GASTEIGER

@<TRIPOS>ATOM
      1  N          1.2500  -29.0380  184.4010 N.3    79  THR79      -0.1203
      2  CA         0.2330  -28.0310  184.3170 C.3    79  THR79       0.1994
      3  C         -0.4200  -28.0720  182.9380 C.2    79  THR79       0.2617
      4  O          0.2000  -28.4460  181.9520 O.2    79  THR79      -0.2717
      5  CB         0.8200  -26.6010  184.6150 C.3    79  THR79       0.1784
      6  OG1       -0.1760  -25.6080  184.3580 O.3    79  THR79      -0.2211
      7  CG2        2.0000  -26.3100  183.7420 C.3    79  THR79       0.0376
      8  N         -1.7140  -27.7500  182.9300 N.am   80  LEU80      -0.1979
      9  CA        -2.4950  -27.6990  181.7020 C.3    80  LEU80       0.1596
     10  C         -3.0990  -26.3360  181.5940 C.2    80  LEU80       0.2287
     11  O         -3.4000  -25.6780  182.6060 O.2    80  LEU80      -0.2864
     12  CB        -3.6400  -28.6790  181.7660 C.3    80  LEU80       0.0297
     13  CG        -3.2890  -30.1380  181.6690 C.3    80  LEU80       0.0022
     14  CD1       -3.9410  -30.9030  182.7820 C.3    80  LEU80       0.0001
     15  CD2       -3.7120  -30.7100  180.3200 C.3    80  LEU80       0.0001
     16  N         -5.7980  -32.7580  185.8800 N.3   125  ALA125     -0.1231
     17  CA        -5.6160  -31.8620  187.0410 C.3   125  ALA125      0.1694
     18  C         -6.6890  -32.2650  188.0440 C.2   125  ALA125      0.2592
     19  O         -7.8700  -32.4420  187.6730 O.2   125  ALA125     -0.2718
     20  CB        -5.7630  -30.4100  186.6370 C.3   125  ALA125      0.0304
     21  N         -6.3220  -32.5240  189.2790 N.am  126  ASP126     -0.1960
     22  CA        -7.2870  -32.9570  190.2560 C.3   126  ASP126      0.1840
     23  C         -7.0000  -32.0610  191.4770 C.2   126  ASP126      0.2622
     24  O         -6.6830  -30.8920  191.2850 O.2   126  ASP126     -0.2715
     25  CB        -7.1580  -34.4610  190.5050 C.3   126  ASP126      0.1450
     26  CG        -8.3710  -35.0820  191.2270 C.2   126  ASP126      0.3671
     27  OD1       -9.4000  -34.4030  191.4670 O.co2 126  ASP126     -0.2456
     28  OD2       -8.2790  -36.2820  191.5680 O.co2 126  ASP126     -0.2456
     29  N         -7.0360  -32.6010  192.6750 N.am  127  GLU127     -0.1963
     30  CA        -7.0340  -31.7570  193.8790 C.3   127  GLU127      0.1733
     31  C         -5.6300  -31.3530  194.3370 C.2   127  GLU127      0.2617
     32  O         -5.4220  -30.3490  195.0660 O.2   127  GLU127     -0.2715
     33  CB        -7.6280  -32.5660  195.0320 C.3   127  GLU127      0.0429
     34  CG        -8.9770  -33.2370  194.8350 C.3   127  GLU127      0.1163
     35  CD        -9.3610  -34.1510  196.0010 C.2   127  GLU127      0.3649
     36  OE1       -8.5870  -34.2740  196.9760 O.co2 127  GLU127     -0.2457
     37  OE2      -10.4360  -34.7820  195.9340 O.co2 127  GLU127     -0.2457
     38  N         -4.6430  -32.1130  193.9000 N.am  128  SER128     -0.1936
     39  CA        -3.3560  -32.0670  194.5400 C.3   128  SER128      0.2055
     40  C         -2.4110  -31.1890  193.7660 C.2   128  SER128      0.2643
     41  O         -2.2870  -31.3440  192.5490 O.2   128  SER128     -0.2714
     42  CB        -2.7870  -33.4840  194.6220 C.3   128  SER128      0.2130
     43  OG        -3.6540  -34.2820  195.3810 O.3   128  SER128     -0.2179
     44  N         -1.7370  -30.2850  194.4750 N.am  129  PHE129     -0.1973
     45  CA        -0.7750  -29.3950  193.8560 C.3   129  PHE129      0.1639
     46  C          0.4980  -29.3190  194.6490 C.2   129  PHE129      0.2290
     47  O          0.5640  -29.6960  195.8150 O.2   129  PHE129     -0.2864
     48  CB        -1.3470  -27.9930  193.5080 C.3   129  PHE129      0.0560
     49  CG        -1.6090  -27.1370  194.6670 C.ar  129  PHE129     -0.0200
     50  CD1       -2.8320  -27.1430  195.2900 C.ar  129  PHE129     -0.0042
     51  CD2       -0.6240  -26.2430  195.1330 C.ar  129  PHE129     -0.0042
     52  CE1       -3.0790  -26.3160  196.3750 C.ar  129  PHE129     -0.0003
     53  CE2       -0.8640  -25.4200  196.2270 C.ar  129  PHE129     -0.0003
     54  CZ        -2.0870  -25.4620  196.8490 C.ar  129  PHE129     -0.0000
     55  N          3.2150  -23.2190  190.3130 N.3   140  LYS140     -0.1231
     56  CA         2.1480  -23.9270  190.9910 C.3   140  LYS140      0.1693
     57  C          1.6820  -25.0150  190.0310 C.2   140  LYS140      0.2592
     58  O          1.1810  -24.7330  188.9320 O.2   140  LYS140     -0.2718
     59  CB         0.9620  -23.0420  191.3460 C.3   140  LYS140      0.0285
     60  CG        -0.0840  -23.8160  192.1260 C.3   140  LYS140      0.0035
     61  CD        -1.2340  -22.9400  192.6150 C.3   140  LYS140      0.0206
     62  CE        -2.3680  -23.8070  193.1410 C.3   140  LYS140      0.1093
     63  NZ        -3.3250  -23.0260  193.9780 N.3   140  LYS140     -0.1314
     64  N          1.9420  -26.2490  190.3980 N.am  141  LEU141     -0.1966
     65  CA         1.7750  -27.3770  189.4900 C.3   141  LEU141      0.1728
     66  C          0.8540  -28.4240  190.1020 C.2   141  LEU141      0.2616
     67  O          0.8780  -28.6400  191.3220 O.2   141  LEU141     -0.2715
     68  CB         3.1380  -28.0330  189.2540 C.3   141  LEU141      0.0311
     69  CG         4.1830  -27.1030  188.6010 C.3   141  LEU141      0.0022
     70  CD1        5.5400  -27.7800  188.5760 C.3   141  LEU141      0.0001
     71  CD2        3.7580  -26.6530  187.2220 C.3   141  LEU141      0.0001
     72  N          0.0900  -29.1010  189.2590 N.am  142  ASN142     -0.1972
     73  CA        -0.5820  -30.3100  189.7070 C.3   142  ASN142      0.1688
     74  C          0.4650  -31.3700  189.9810 C.2   142  ASN142      0.2292
     75  O          1.5060  -31.4170  189.3000 O.2   142  ASN142     -0.2864
     76  CB        -1.5230  -30.8120  188.6470 C.3   142  ASN142      0.1181
     77  CG        -2.5810  -29.7890  188.3150 C.2   142  ASN142      0.2629
     78  OD1       -2.4940  -29.1170  187.2930 O.2   142  ASN142     -0.2716
     79  ND2       -3.5560  -29.6630  189.1590 N.am  142  ASN142     -0.0877
@<TRIPOS>BOND
     1    15    13    1
     2    10     9    1
     3    10    11    2
     4    13    12    1
     5    13    14    1
     6     9    12    1
     7     9     8    1
     8     4     3    2
     9     8     3   am
    10     3     2    1
    11     7     5    1
    12     2     1    1
    13     2     5    1
    14     6     5    1
    15    16    17    1
    16    20    17    1
    17    17    18    1
    18    71    69    1
    19    78    77    2
    20    19    18    2
    21    18    21   am
    22    77    76    1
    23    77    79   am
    24    70    69    1
    25    69    68    1
    26    76    73    1
    27    58    57    2
    28    68    65    1
    29    72    73    1
    30    72    66   am
    31    21    22    1
    32    75    74    2
    33    65    66    1
    34    65    64    1
    35    73    74    1
    36    57    64   am
    37    57    56    1
    38    66    67    2
    39    22    25    1
    40    22    23    1
    41    55    56    1
    42    25    26    1
    43    56    59    1
    44    26    27   ar
    45    26    28   ar
    46    24    23    2
    47    59    60    1
    48    23    29   am
    49    60    61    1
    50    41    40    2
    51    61    62    1
    52    29    30    1
    53    62    63    1
    54    48    45    1
    55    48    49    1
    56    40    44   am
    57    40    39    1
    58    45    44    1
    59    45    46    1
    60    30    31    1
    61    30    33    1
    62    38    31   am
    63    38    39    1
    64    31    32    2
    65    39    42    1
    66    42    43    1
    67    46    47    2
    68    49    51   ar
    69    49    50   ar
    70    34    33    1
    71    34    35    1
    72    51    53   ar
    73    50    52   ar
    74    37    35   ar
    75    35    36   ar
    76    53    54   ar
    77    52    54   ar
