@<TRIPOS>MOLECULE
tmp/5jr3A01.pdb
 142 137 0 0 0
SMALL
GASTEIGER

@<TRIPOS>ATOM
      1  N        -46.0960  -30.0090    4.2210 N.3    96  TRP96      -0.1241
      2  CA       -47.3780  -30.1160    4.9090 C.3    96  TRP96       0.1605
      3  C        -48.5470  -30.3300    3.9580 C.2    96  TRP96       0.2264
      4  O        -49.6560  -30.6190    4.4230 O.2    96  TRP96      -0.2867
      5  CB       -47.6330  -28.8710    5.7580 C.3    96  TRP96       0.0550
      6  CG       -46.8900  -28.9560    7.1050 C.ar   96  TRP96       0.0003
      7  CD1      -45.6000  -28.6130    7.3390 C.ar   96  TRP96       0.0946
      8  CD2      -47.4090  -29.4620    8.3560 C.ar   96  TRP96       0.0152
      9  NE1      -45.2760  -28.8520    8.6650 N.ar   96  TRP96      -0.2442
     10  CE2      -46.3680  -29.3770    9.3050 C.ar   96  TRP96       0.0810
     11  CE3      -48.6530  -29.9740    8.7590 C.ar   96  TRP96       0.0012
     12  CZ2      -46.5280  -29.7760   10.6500 C.ar   96  TRP96       0.0191
     13  CZ3      -48.8180  -30.3650   10.0970 C.ar   96  TRP96       0.0001
     14  CH2      -47.7510  -30.2670   11.0210 C.ar   96  TRP96       0.0015
     15  N        -49.0870  -36.0170    7.2050 N.3   103  VAL103     -0.1245
     16  CA       -50.2330  -35.2010    7.6100 C.3   103  VAL103      0.1561
     17  C        -51.2180  -35.0370    6.4630 C.2   103  VAL103      0.2260
     18  O        -52.4280  -35.1900    6.6500 O.2   103  VAL103     -0.2867
     19  CB       -49.7780  -33.8410    8.1640 C.3   103  VAL103      0.0252
     20  CG1      -50.9790  -32.9010    8.3490 C.3   103  VAL103      0.0019
     21  CG2      -49.0760  -34.0400    9.5470 C.3   103  VAL103      0.0019
     22  N        -43.8480  -37.9610    9.7980 N.3   146  PHE146     -0.1241
     23  CA       -44.5530  -37.2630   10.8830 C.3   146  PHE146      0.1605
     24  C        -43.5710  -36.5870   11.8400 C.2   146  PHE146      0.2264
     25  O        -43.7160  -35.3950   12.1570 O.2   146  PHE146     -0.2867
     26  CB       -45.4420  -38.2640   11.6340 C.3   146  PHE146      0.0534
     27  CG       -46.2680  -37.6520   12.7600 C.ar  146  PHE146     -0.0203
     28  CD1      -47.3640  -36.8430   12.4850 C.ar  146  PHE146     -0.0042
     29  CD2      -45.9260  -37.8890   14.0980 C.ar  146  PHE146     -0.0042
     30  CE1      -48.1270  -36.2960   13.5050 C.ar  146  PHE146     -0.0003
     31  CE2      -46.6890  -37.3410   15.1240 C.ar  146  PHE146     -0.0003
     32  CZ       -47.7810  -36.5570   14.8260 C.ar  146  PHE146     -0.0000
     33  N        -43.2360  -32.3390   12.5100 N.3   150  LEU150     -0.1245
     34  CA       -43.3830  -31.6360   13.7800 C.3   150  LEU150      0.1561
     35  C        -42.0770  -31.0040   14.2350 C.2   150  LEU150      0.2260
     36  O        -42.1030  -29.9730   14.9130 O.2   150  LEU150     -0.2867
     37  CB       -43.8990  -32.5870   14.8620 C.3   150  LEU150      0.0270
     38  CG       -45.2870  -33.1920   14.7000 C.3   150  LEU150      0.0019
     39  CD1      -45.8020  -33.6790   16.0640 C.3   150  LEU150      0.0001
     40  CD2      -46.2650  -32.2370   14.0610 C.3   150  LEU150      0.0001
     41  N        -47.8080  -30.9190   22.7210 N.3   243  PHE243     -0.1241
     42  CA       -48.6310  -31.4620   21.6400 C.3   243  PHE243      0.1605
     43  C        -48.8680  -32.9590   21.8180 C.2   243  PHE243      0.2264
     44  O        -48.7790  -33.7600   20.8810 O.2   243  PHE243     -0.2867
     45  CB       -48.0080  -31.1230   20.2830 C.3   243  PHE243      0.0534
     46  CG       -48.1800  -29.6760   19.9230 C.ar  243  PHE243     -0.0203
     47  CD1      -47.1450  -28.7670   20.0950 C.ar  243  PHE243     -0.0042
     48  CD2      -49.4080  -29.2120   19.4640 C.ar  243  PHE243     -0.0042
     49  CE1      -47.3240  -27.4220   19.7830 C.ar  243  PHE243     -0.0003
     50  CE2      -49.5940  -27.8710   19.1560 C.ar  243  PHE243     -0.0003
     51  CZ       -48.5520  -26.9780   19.3120 C.ar  243  PHE243     -0.0000
     52  N        -53.6910  -33.1580   23.1590 N.3   246  LEU246     -0.1231
     53  CA       -54.6720  -32.9650   22.0830 C.3   246  LEU246      0.1693
     54  C        -54.8590  -34.2090   21.2090 C.2   246  LEU246      0.2592
     55  O        -55.8420  -34.2710   20.4490 O.2   246  LEU246     -0.2718
     56  CB       -54.2830  -31.7680   21.1920 C.3   246  LEU246      0.0284
     57  CG       -53.2290  -31.9910   20.0970 C.3   246  LEU246      0.0019
     58  CD1      -53.0360  -30.7410   19.1950 C.3   246  LEU246      0.0001
     59  CD2      -51.8980  -32.3700   20.7150 C.3   246  LEU246      0.0001
     60  N        -53.9390  -35.1850   21.2620 N.am  247  ASN247     -0.1974
     61  CA       -54.1000  -36.4280   20.5080 C.3   247  ASN247      0.1688
     62  C        -55.1510  -37.3450   21.1180 C.2   247  ASN247      0.2292
     63  O        -55.4200  -38.4070   20.5470 O.2   247  ASN247     -0.2864
     64  CB       -52.7970  -37.2580   20.4670 C.3   247  ASN247      0.1181
     65  CG       -51.6580  -36.6190   19.6750 C.2   247  ASN247      0.2629
     66  OD1      -50.5420  -37.1590   19.6860 O.2   247  ASN247     -0.2716
     67  ND2      -51.8990  -35.4960   19.0170 N.am  247  ASN247     -0.0877
     68  N        -58.6810  -25.8370   12.4790 N.3   289  GLU289     -0.1231
     69  CA       -57.9430  -26.7910   11.6520 C.3   289  GLU289      0.1699
     70  C        -57.2660  -27.8410   12.5100 C.2   289  GLU289      0.2592
     71  O        -57.2970  -29.0390   12.2010 O.2   289  GLU289     -0.2718
     72  CB       -56.8870  -26.0960   10.8050 C.3   289  GLU289      0.0402
     73  CG       -56.1090  -27.0930    9.9570 C.3   289  GLU289      0.1161
     74  CD       -55.0520  -26.4200    9.0990 C.2   289  GLU289      0.3649
     75  OE1      -54.2440  -25.6340    9.6470 O.co2 289  GLU289     -0.2457
     76  OE2      -55.0340  -26.6800    7.8840 O.co2 289  GLU289     -0.2457
     77  N        -56.6080  -27.4020   13.5790 N.am  290  LEU290     -0.1980
     78  CA       -55.9270  -28.3700   14.4280 C.3   290  LEU290      0.1596
     79  C        -56.9420  -29.2210   15.1750 C.2   290  LEU290      0.2287
     80  O        -56.7930  -30.4510   15.2660 O.2   290  LEU290     -0.2864
     81  CB       -54.9860  -27.6360   15.3890 C.3   290  LEU290      0.0297
     82  CG       -54.1550  -28.5140   16.3260 C.3   290  LEU290      0.0022
     83  CD1      -53.4710  -29.6670   15.5870 C.3   290  LEU290      0.0001
     84  CD2      -53.0950  -27.6090   17.0400 C.3   290  LEU290      0.0001
     85  N        -58.5160  -31.7400   12.7720 N.3   293  ARG293     -0.1231
     86  CA       -57.5660  -32.8020   12.4550 C.3   293  ARG293      0.1694
     87  C        -57.4660  -33.7980   13.6080 C.2   293  ARG293      0.2591
     88  O        -57.4330  -35.0110   13.3920 O.2   293  ARG293     -0.2718
     89  CB       -56.1830  -32.2270   12.1460 C.3   293  ARG293      0.0321
     90  CG       -56.0230  -31.7420   10.7070 C.3   293  ARG293      0.0489
     91  CD       -54.5940  -31.2100   10.5080 C.3   293  ARG293      0.2205
     92  NE       -54.3360  -31.0800    9.0710 N.pl3 293  ARG293     -0.0865
     93  CZ       -53.4680  -30.2300    8.5290 C.cat 293  ARG293      0.5346
     94  NH1      -52.7810  -29.3990    9.2950 N.pl3 293  ARG293      0.1354
     95  NH2      -53.3050  -30.2010    7.2030 N.pl3 293  ARG293      0.1354
     96  N        -57.3860  -33.3040   14.8450 N.am  294  MET294     -0.1979
     97  CA       -57.3000  -34.2480   15.9570 C.3   294  MET294      0.1605
     98  C        -58.5400  -35.1300   16.0140 C.2   294  MET294      0.2287
     99  O        -58.4490  -36.3120   16.3620 O.2   294  MET294     -0.2864
    100  CB       -57.1010  -33.5130   17.2810 C.3   294  MET294      0.0413
    101  CG       -55.7220  -32.8670   17.3810 C.3   294  MET294      0.0598
    102  SD       -54.3940  -34.0920   17.2240 S.3   294  MET294     -0.1393
    103  CE       -53.8510  -33.7700   15.5400 C.3   294  MET294      0.0692
    104  N        -58.1540  -37.6400   12.7650 N.3   297  PHE297     -0.1227
    105  CA       -56.9500  -38.4880   12.8200 C.3   297  PHE297      0.1736
    106  C        -57.0050  -39.4460   13.9950 C.2   297  PHE297      0.2595
    107  O        -56.5420  -40.5930   13.9020 O.2   297  PHE297     -0.2718
    108  CB       -55.6420  -37.6910   13.0490 C.3   297  PHE297      0.0547
    109  CG       -55.2310  -36.7330   11.9530 C.ar  297  PHE297     -0.0202
    110  CD1      -55.9910  -36.5350   10.8180 C.ar  297  PHE297     -0.0042
    111  CD2      -54.0280  -36.0350   12.0850 C.ar  297  PHE297     -0.0042
    112  CE1      -55.5880  -35.6250    9.8470 C.ar  297  PHE297     -0.0003
    113  CE2      -53.6020  -35.1270   11.1260 C.ar  297  PHE297     -0.0003
    114  CZ       -54.4000  -34.9250    9.9880 C.ar  297  PHE297     -0.0000
    115  N        -57.4820  -38.9500   15.1380 N.am  298  LEU298     -0.1980
    116  CA       -57.1680  -39.5530   16.4330 C.3   298  LEU298      0.1596
    117  C        -58.3260  -39.6010   17.4190 C.2   298  LEU298      0.2287
    118  O        -58.2190  -40.3330   18.4150 O.2   298  LEU298     -0.2864
    119  CB       -55.9930  -38.7840   17.0780 C.3   298  LEU298      0.0297
    120  CG       -54.5910  -39.1510   16.5610 C.3   298  LEU298      0.0022
    121  CD1      -53.5960  -38.0090   16.7470 C.3   298  LEU298      0.0001
    122  CD2      -54.0820  -40.4070   17.3020 C.3   298  LEU298      0.0001
    123  N        -48.8760  -18.0170   14.9230 N.3   332  TYR332     -0.1241
    124  CA       -49.5690  -19.2080   15.4130 C.3   332  TYR332      0.1605
    125  C        -49.5180  -19.1660   16.9370 C.2   332  TYR332      0.2264
    126  O        -48.4880  -19.4770   17.5410 O.2   332  TYR332     -0.2867
    127  CB       -48.9580  -20.4930   14.8700 C.3   332  TYR332      0.0534
    128  CG       -49.9350  -21.6340   14.9470 C.ar  332  TYR332     -0.0201
    129  CD1      -50.7270  -21.9670   13.8570 C.ar  332  TYR332     -0.0009
    130  CD2      -50.1060  -22.3500   16.1280 C.ar  332  TYR332     -0.0009
    131  CE1      -51.6390  -22.9980   13.9310 C.ar  332  TYR332      0.0417
    132  CE2      -51.0190  -23.3820   16.2120 C.ar  332  TYR332      0.0417
    133  CZ       -51.7800  -23.7010   15.1100 C.ar  332  TYR332      0.1957
    134  OH       -52.6880  -24.7220   15.1840 O.3   332  TYR332     -0.2866
    135  N        -49.5510  -19.9940   20.5890 N.3   334  LEU334     -0.1245
    136  CA       -49.3480  -21.1530   21.4410 C.3   334  LEU334      0.1561
    137  C        -49.1220  -20.6840   22.8660 C.2   334  LEU334      0.2260
    138  O        -48.7730  -19.5260   23.1160 O.2   334  LEU334     -0.2867
    139  CB       -48.1570  -22.0100   20.9690 C.3   334  LEU334      0.0270
    140  CG       -48.3160  -22.6870   19.6020 C.3   334  LEU334      0.0019
    141  CD1      -47.0440  -23.4390   19.2420 C.3   334  LEU334      0.0001
    142  CD2      -49.5230  -23.6310   19.6120 C.3   334  LEU334      0.0001
@<TRIPOS>BOND
     1     3     4    2
     2     3     2    1
     3     1     2    1
     4     2     5    1
     5     5     6    1
     6    17    18    2
     7    17    16    1
     8     6     7   ar
     9     6     8   ar
    10    95    93    1
    11    15    16    1
    12     7     9   ar
    13    16    19    1
    14    76    74   ar
    15    19    20    1
    16    19    21    1
    17     8    11   ar
    18     8    10   ar
    19    93    92    2
    20    93    94    1
    21     9    10   ar
    22    11    13   ar
    23    92    91    1
    24    74    75   ar
    25    74    73    1
    26    10    12   ar
    27    22    23    1
    28   112   114   ar
    29   112   110   ar
    30    73    72    1
    31   114   113   ar
    32    13    14   ar
    33    91    90    1
    34    12    14   ar
    35    90    89    1
    36    72    69    1
    37   110   109   ar
    38    23    26    1
    39    23    24    1
    40   113   111   ar
    41    26    27    1
    42    69    68    1
    43    69    70    1
    44    24    25    2
    45   109   111   ar
    46   109   108    1
    47    89    86    1
    48    71    70    2
    49    86    85    1
    50    86    87    1
    51    28    27   ar
    52    28    30   ar
    53    70    77   am
    54    33    34    1
    55    27    29   ar
    56   104   105    1
    57   105   108    1
    58   105   106    1
    59    88    87    2
    60    30    32   ar
    61    77    78    1
    62    87    96   am
    63    34    35    1
    64    34    37    1
    65   129   131   ar
    66   129   128   ar
    67   107   106    2
    68   131   133   ar
    69   106   115   am
    70    40    38    1
    71    29    31   ar
    72    35    36    2
    73    78    79    1
    74    78    81    1
    75    38    37    1
    76    38    39    1
    77    32    31   ar
    78    96    97    1
    79   127   128    1
    80   127   124    1
    81   123   124    1
    82   128   130   ar
    83   133   134    1
    84   133   132   ar
    85   115   116    1
    86    79    80    2
    87    81    82    1
    88   124   125    1
    89   103   102    1
    90    83    82    1
    91    97    98    1
    92    97   100    1
    93    98    99    2
    94   130   132   ar
    95    82    84    1
    96   116   119    1
    97   116   117    1
    98   120   121    1
    99   120   119    1
   100   120   122    1
   101   125   126    2
   102   102   101    1
   103   100   101    1
   104   117   118    2
   105    67    65   am
   106    50    51   ar
   107    50    48   ar
   108    58    57    1
   109   141   140    1
   110    51    49   ar
   111    48    46   ar
   112   140   142    1
   113   140   139    1
   114    65    66    2
   115    65    64    1
   116    49    47   ar
   117    46    47   ar
   118    46    45    1
   119    57    59    1
   120    57    56    1
   121    45    42    1
   122    55    54    2
   123    64    61    1
   124    61    62    1
   125    61    60    1
   126    63    62    2
   127   135   136    1
   128    44    43    2
   129   139   136    1
   130    56    53    1
   131    54    60   am
   132    54    53    1
   133   136   137    1
   134    42    43    1
   135    42    41    1
   136    53    52    1
   137   137   138    2
