@<TRIPOS>MOLECULE
tmp/5jr6A00.pdb
 221 211 0 0 0
SMALL
GASTEIGER

@<TRIPOS>ATOM
      1  N        -46.3310   66.5410  235.0330 N.3    34  GLU34      -0.1231
      2  CA       -45.7950   66.3790  236.3780 C.3    34  GLU34       0.1699
      3  C        -46.7920   66.8260  237.4310 C.2    34  GLU34       0.2592
      4  O        -46.9520   66.1750  238.4520 O.2    34  GLU34      -0.2718
      5  CB       -44.4970   67.1670  236.5510 C.3    34  GLU34       0.0402
      6  CG       -43.2640   66.3470  236.4200 C.3    34  GLU34       0.1161
      7  CD       -42.0400   67.1050  236.8980 C.2    34  GLU34       0.3649
      8  OE1      -40.9170   66.5600  236.7810 O.co2  34  GLU34      -0.2457
      9  OE2      -42.2120   68.2450  237.3960 O.co2  34  GLU34      -0.2457
     10  N        -47.4320   67.9630  237.1860 N.am   35  ILE35      -0.1980
     11  CA       -48.4450   68.4950  238.0830 C.3    35  ILE35       0.1595
     12  C        -49.8180   68.3100  237.4640 C.2    35  ILE35       0.2287
     13  O        -50.0710   68.8010  236.3750 O.2    35  ILE35      -0.2864
     14  CB       -48.2340   69.9940  238.3780 C.3    35  ILE35       0.0276
     15  CG1      -46.8430   70.2470  238.9580 C.3    35  ILE35       0.0022
     16  CG2      -49.3460   70.5250  239.2930 C.3    35  ILE35       0.0022
     17  CD1      -46.6070   69.5620  240.2750 C.3    35  ILE35       0.0001
     18  N        -43.3700   57.2280  245.9400 N.3    68  ASN68      -0.1240
     19  CA       -41.9390   57.4570  245.8100 C.3    68  ASN68       0.1653
     20  C        -41.3040   57.6570  247.1830 C.2    68  ASN68       0.2266
     21  O        -41.9900   57.9810  248.1500 O.2    68  ASN68      -0.2867
     22  CB       -41.6920   58.6800  244.9280 C.3    68  ASN68       0.1155
     23  CG       -40.2540   58.8070  244.4920 C.2    68  ASN68       0.2627
     24  OD1      -39.3580   59.0440  245.3060 O.2    68  ASN68      -0.2716
     25  ND2      -40.0230   58.6670  243.1930 N.am   68  ASN68      -0.0877
     26  N        -39.4490   60.0830  248.2310 N.3    70  LEU70      -0.1231
     27  CA       -39.4610   61.4790  248.6750 C.3    70  LEU70       0.1693
     28  C        -40.7860   61.8530  249.3380 C.2    70  LEU70       0.2592
     29  O        -40.8650   62.8310  250.0800 O.2    70  LEU70      -0.2718
     30  CB       -39.1830   62.4310  247.5000 C.3    70  LEU70       0.0284
     31  CG       -37.8990   62.2350  246.6820 C.3    70  LEU70       0.0019
     32  CD1      -37.6010   63.4700  245.8360 C.3    70  LEU70       0.0001
     33  CD2      -36.6930   61.8690  247.5480 C.3    70  LEU70       0.0001
     34  N        -41.8300   61.0870  249.0510 N.am   71  TYR71      -0.1976
     35  CA       -43.1660   61.3620  249.5810 C.3    71  TYR71       0.1639
     36  C        -43.5400   60.4940  250.7910 C.2    71  TYR71       0.2290
     37  O        -44.6530   60.5770  251.3120 O.2    71  TYR71      -0.2864
     38  CB       -44.2040   61.2060  248.4470 C.3    71  TYR71       0.0560
     39  CG       -43.9580   62.1720  247.3090 C.ar   71  TYR71      -0.0198
     40  CD1      -44.7970   63.2560  247.1020 C.ar   71  TYR71      -0.0009
     41  CD2      -42.8580   62.0240  246.4670 C.ar   71  TYR71      -0.0009
     42  CE1      -44.5560   64.1570  246.0750 C.ar   71  TYR71       0.0417
     43  CE2      -42.6080   62.9200  245.4460 C.ar   71  TYR71       0.0417
     44  CZ       -43.4610   63.9820  245.2540 C.ar   71  TYR71       0.1957
     45  OH       -43.2150   64.8710  244.2330 O.3    71  TYR71      -0.2866
     46  N        -35.2130   53.6370  244.1950 N.3    91  ILE91      -0.1245
     47  CA       -34.3880   53.2450  243.0560 C.3    91  ILE91       0.1561
     48  C        -34.0180   51.7620  243.1610 C.2    91  ILE91       0.2260
     49  O        -33.7650   51.0960  242.1530 O.2    91  ILE91      -0.2867
     50  CB       -33.1070   54.1130  242.9630 C.3    91  ILE91       0.0252
     51  CG1      -33.5110   55.5400  242.5390 C.3    91  ILE91       0.0019
     52  CG2      -32.0960   53.5030  242.0230 C.3    91  ILE91       0.0019
     53  CD1      -32.4060   56.5520  242.6700 C.3    91  ILE91       0.0001
     54  N        -43.8760   79.4310  238.7920 N.3   390  SER390     -0.1202
     55  CA       -43.5870   78.3400  237.8540 C.3   390  SER390      0.2020
     56  C        -43.6700   76.9710  238.5200 C.2   390  SER390      0.2619
     57  O        -43.5200   75.9540  237.8540 O.2   390  SER390     -0.2717
     58  CB       -42.2010   78.5170  237.2220 C.3   390  SER390      0.2103
     59  OG       -41.2060   78.5710  238.2300 O.3   390  SER390     -0.2182
     60  N        -43.9260   76.9650  239.8270 N.am  391  PHE391     -0.1961
     61  CA       -44.1400   75.7550  240.5960 C.3   391  PHE391      0.1771
     62  C        -44.4560   76.2390  241.9780 C.2   391  PHE391      0.2620
     63  O        -44.3130   77.4190  242.2630 O.2   391  PHE391     -0.2715
     64  CB       -42.9020   74.8130  240.6130 C.3   391  PHE391      0.0574
     65  CG       -41.6270   75.4640  241.1140 C.ar  391  PHE391     -0.0200
     66  CD1      -41.3170   75.4880  242.4750 C.ar  391  PHE391     -0.0042
     67  CD2      -40.7370   76.0370  240.2280 C.ar  391  PHE391     -0.0042
     68  CE1      -40.1380   76.0820  242.9420 C.ar  391  PHE391     -0.0003
     69  CE2      -39.5360   76.6280  240.6850 C.ar  391  PHE391     -0.0003
     70  CZ       -39.2460   76.6470  242.0470 C.ar  391  PHE391     -0.0000
     71  N        -44.8840   75.3350  242.8430 N.am  392  SER392     -0.1950
     72  CA       -45.2340   75.7060  244.1970 C.3   392  SER392      0.1924
     73  C        -43.9760   75.9960  245.0500 C.2   392  SER392      0.2314
     74  O        -43.1300   75.1300  245.2470 O.2   392  SER392     -0.2863
     75  CB       -46.0510   74.5970  244.8430 C.3   392  SER392      0.2116
     76  OG       -46.4050   74.9750  246.1530 O.3   392  SER392     -0.2180
     77  N        -41.1650   76.4170  247.6080 N.3   394  ILE394     -0.1245
     78  CA       -40.6800   75.7270  248.7860 C.3   394  ILE394      0.1561
     79  C        -40.0940   76.7610  249.7350 C.2   394  ILE394      0.2260
     80  O        -39.0910   77.4220  249.4460 O.2   394  ILE394     -0.2867
     81  CB       -39.6250   74.6540  248.4250 C.3   394  ILE394      0.0252
     82  CG1      -40.2400   73.6490  247.4550 C.3   394  ILE394      0.0019
     83  CG2      -39.1390   73.9310  249.6850 C.3   394  ILE394      0.0019
     84  CD1      -39.2360   72.7690  246.7450 C.3   394  ILE394      0.0001
     85  N        -37.0140   67.6210  250.9180 N.3   404  ILE404     -0.1231
     86  CA       -36.6150   68.1730  249.6260 C.3   404  ILE404      0.1692
     87  C        -37.7360   68.9570  248.9220 C.2   404  ILE404      0.2592
     88  O        -37.5190   70.0630  248.3980 O.2   404  ILE404     -0.2718
     89  CB       -36.0980   67.0530  248.6980 C.3   404  ILE404      0.0266
     90  CG1      -34.7110   66.5940  249.1590 C.3   404  ILE404      0.0019
     91  CG2      -36.0460   67.5340  247.2450 C.3   404  ILE404      0.0020
     92  CD1      -34.1120   65.4890  248.3160 C.3   404  ILE404      0.0001
     93  N        -38.9210   68.3650  248.8900 N.am  405  HIS405     -0.1976
     94  CA       -40.0700   68.9520  248.2070 C.3   405  HIS405      0.1656
     95  C        -41.0470   69.6780  249.1300 C.2   405  HIS405      0.2291
     96  O        -42.1780   69.9570  248.7360 O.2   405  HIS405     -0.2864
     97  CB       -40.7600   67.8860  247.3670 C.3   405  HIS405      0.0771
     98  CG       -40.0010   67.5640  246.1180 C.ar  405  HIS405      0.0820
     99  ND1      -39.3470   68.5340  245.3850 N.ar  405  HIS405     -0.2267
    100  CD2      -39.7430   66.3860  245.5000 C.ar  405  HIS405      0.1154
    101  CE1      -38.7420   67.9710  244.3540 C.ar  405  HIS405      0.1986
    102  NE2      -38.9650   66.6690  244.4020 N.ar  405  HIS405     -0.2212
    103  N        -36.9260   77.7820  247.5340 N.3   424  ASP424     -0.1239
    104  CA       -36.8600   77.2930  246.1680 C.3   424  ASP424      0.1674
    105  C        -38.0990   77.8810  245.4730 C.2   424  ASP424      0.2266
    106  O        -39.2300   77.5750  245.8490 O.2   424  ASP424     -0.2867
    107  CB       -36.8610   75.7600  246.1530 C.3   424  ASP424      0.1410
    108  CG       -36.5160   75.1700  244.7880 C.2   424  ASP424      0.3668
    109  OD1      -36.3890   75.9420  243.8100 O.co2 424  ASP424     -0.2456
    110  OD2      -36.3460   73.9190  244.7000 O.co2 424  ASP424     -0.2456
    111  N        -36.1680   79.1240  237.7320 N.3   435  ASP435     -0.1239
    112  CA       -36.1250   78.2380  238.8820 C.3   435  ASP435      0.1674
    113  C        -34.8560   78.5240  239.7030 C.2   435  ASP435      0.2266
    114  O        -33.7610   78.3010  239.2080 O.2   435  ASP435     -0.2867
    115  CB       -36.1300   76.8000  238.3760 C.3   435  ASP435      0.1410
    116  CG       -36.2490   75.7820  239.4710 C.2   435  ASP435      0.3668
    117  OD1      -36.4080   74.6120  239.1000 O.co2 435  ASP435     -0.2456
    118  OD2      -36.1890   76.1150  240.6810 O.co2 435  ASP435     -0.2456
    119  N        -30.1720   62.8920  247.1810 N.3   493  ASN493     -0.1225
    120  CA       -31.0460   61.8960  246.5920 C.3   493  ASN493      0.1785
    121  C        -31.8010   62.4240  245.3760 C.2   493  ASN493      0.2597
    122  O        -32.9170   62.0150  245.1080 O.2   493  ASN493     -0.2718
    123  CB       -32.0130   61.3250  247.6210 C.3   493  ASN493      0.1169
    124  CG       -32.7230   60.0810  247.1020 C.2   493  ASN493      0.2627
    125  OD1      -32.2250   59.4150  246.1910 O.2   493  ASN493     -0.2716
    126  ND2      -33.9060   59.7900  247.6430 N.am  493  ASN493     -0.0877
    127  N        -31.2740   63.4530  244.7320 N.am  494  HIS494     -0.1961
    128  CA       -31.8660   63.8670  243.4640 C.3   494  HIS494      0.1787
    129  C        -30.8200   64.2050  242.3980 C.2   494  HIS494      0.2620
    130  O        -29.6250   64.2390  242.6780 O.2   494  HIS494     -0.2715
    131  CB       -32.7650   65.0750  243.7220 C.3   494  HIS494      0.0785
    132  CG       -32.0460   66.2350  244.3500 C.ar  494  HIS494      0.0821
    133  ND1      -31.1890   67.0550  243.6390 N.ar  494  HIS494     -0.2267
    134  CD2      -32.0600   66.7140  245.6160 C.ar  494  HIS494      0.1154
    135  CE1      -30.7360   68.0090  244.4320 C.ar  494  HIS494      0.1986
    136  NE2      -31.2370   67.8190  245.6430 N.ar  494  HIS494     -0.2212
    137  N        -31.2780   64.5080  241.1910 N.am  495  GLY495     -0.1954
    138  CA       -30.3970   64.8990  240.1000 C.3   495  GLY495      0.1869
    139  C        -29.8440   66.2980  240.3040 C.2   495  GLY495      0.2309
    140  O        -30.3370   67.0560  241.1440 O.2   495  GLY495     -0.2863
    141  N        -29.2170   68.6610  237.6820 N.3   497  GLY497     -0.1210
    142  CA       -29.8270   69.6450  236.8050 C.3   497  GLY497      0.1956
    143  C        -30.8060   69.0360  235.8200 C.2   497  GLY497      0.2611
    144  O        -30.6920   67.8630  235.4380 O.2   497  GLY497     -0.2717
    145  N        -31.7560   69.8590  235.4000 N.am  498  HIS498     -0.1975
    146  CA       -32.7480   69.5150  234.3910 C.3   498  HIS498      0.1656
    147  C        -32.7930   70.6320  233.3470 C.2   498  HIS498      0.2291
    148  O        -32.4100   71.7830  233.6320 O.2   498  HIS498     -0.2864
    149  CB       -34.1270   69.3290  235.0340 C.3   498  HIS498      0.0771
    150  CG       -34.5580   70.4840  235.8940 C.ar  498  HIS498      0.0820
    151  ND1      -35.0270   71.6700  235.3670 N.ar  498  HIS498     -0.2267
    152  CD2      -34.6040   70.6260  237.2440 C.ar  498  HIS498      0.1154
    153  CE1      -35.3370   72.4980  236.3560 C.ar  498  HIS498      0.1986
    154  NE2      -35.0870   71.8940  237.5030 N.ar  498  HIS498     -0.2212
    155  N        -41.1880   73.9540  234.0800 N.3   506  VAL506     -0.1231
    156  CA       -39.9590   74.2000  234.7740 C.3   506  VAL506      0.1692
    157  C        -39.0520   72.9790  234.6260 C.2   506  VAL506      0.2592
    158  O        -37.8420   73.1130  234.6570 O.2   506  VAL506     -0.2718
    159  CB       -40.2090   74.5280  236.2530 C.3   506  VAL506      0.0266
    160  CG1      -40.7290   73.2910  236.9990 C.3   506  VAL506      0.0020
    161  CG2      -38.9510   75.0780  236.8900 C.3   506  VAL506      0.0020
    162  N        -39.6400   71.7980  234.4360 N.am  507  HIS507     -0.1976
    163  CA       -38.8640   70.5940  234.1380 C.3   507  HIS507      0.1656
    164  C        -39.0830   70.1800  232.7030 C.2   507  HIS507      0.2291
    165  O        -40.1390   69.6950  232.3450 O.2   507  HIS507     -0.2864
    166  CB       -39.2380   69.4500  235.0730 C.3   507  HIS507      0.0771
    167  CG       -38.8540   69.6990  236.4910 C.ar  507  HIS507      0.0820
    168  ND1      -39.5930   69.2350  237.5560 N.ar  507  HIS507     -0.2267
    169  CD2      -37.8220   70.3910  237.0270 C.ar  507  HIS507      0.1154
    170  CE1      -39.0290   69.6200  238.6850 C.ar  507  HIS507      0.1986
    171  NE2      -37.9520   70.3270  238.3910 N.ar  507  HIS507     -0.2212
    172  N        -30.2770   66.8840  230.4240 N.3   512  SER512     -0.1202
    173  CA       -30.2830   66.9800  231.8750 C.3   512  SER512      0.2020
    174  C        -28.8490   66.8660  232.3750 C.2   512  SER512      0.2618
    175  O        -27.9310   66.6210  231.5930 O.2   512  SER512     -0.2717
    176  CB       -31.1430   65.8730  232.4900 C.3   512  SER512      0.2103
    177  OG       -30.5580   64.6070  232.2140 O.3   512  SER512     -0.2182
    178  N        -28.6710   67.0770  233.6720 N.am  513  ILE513     -0.1979
    179  CA       -27.4260   66.7510  234.3390 C.3   513  ILE513      0.1595
    180  C        -27.7410   65.8410  235.5320 C.2   513  ILE513      0.2287
    181  O        -28.1300   66.3090  236.6100 O.2   513  ILE513     -0.2864
    182  CB       -26.6950   68.0430  234.7780 C.3   513  ILE513      0.0276
    183  CG1      -26.4200   68.9300  233.5510 C.3   513  ILE513      0.0022
    184  CG2      -25.3940   67.7180  235.5230 C.3   513  ILE513      0.0022
    185  CD1      -26.0060   70.3790  233.8890 C.3   513  ILE513      0.0001
    186  N        -27.0720   61.4750  237.2870 N.3   515  PRO515     -0.2116
    187  CA       -26.2450   60.2680  237.4560 C.3   515  PRO515      0.1372
    188  C        -26.6040   59.0900  236.5390 C.2   515  PRO515      0.2244
    189  O        -25.7430   58.2500  236.2400 O.2   515  PRO515     -0.2868
    190  CB       -26.4930   59.8890  238.9190 C.3   515  PRO515      0.0268
    191  CG       -27.8870   60.3850  239.1870 C.3   515  PRO515      0.0207
    192  CD       -27.9890   61.6860  238.4240 C.3   515  PRO515      0.0892
    193  N        -28.0800   72.4560  240.6790 N.3   530  GLU530     -0.1245
    194  CA       -28.6860   72.5210  242.0040 C.3   530  GLU530      0.1567
    195  C        -28.2810   71.4000  242.9460 C.2   530  GLU530      0.2260
    196  O        -29.1330   70.6270  243.3900 O.2   530  GLU530     -0.2867
    197  CB       -30.2220   72.5520  241.8750 C.3   530  GLU530      0.0388
    198  CG       -30.8220   71.4670  240.9750 C.3   530  GLU530      0.1160
    199  CD       -32.3230   71.6660  240.7390 C.2   530  GLU530      0.3649
    200  OE1      -33.0560   71.9830  241.7110 O.co2 530  GLU530     -0.2457
    201  OE2      -32.7500   71.5470  239.5640 O.co2 530  GLU530     -0.2457
    202  N        -29.7800   73.7310  249.6880 N.3   542  ARG542     -0.1245
    203  CA       -29.7250   73.5260  248.2520 C.3   542  ARG542      0.1563
    204  C        -29.3680   74.8660  247.6510 C.2   542  ARG542      0.2260
    205  O        -29.7710   75.9110  248.1600 O.2   542  ARG542     -0.2867
    206  CB       -31.0530   72.9700  247.6950 C.3   542  ARG542      0.0307
    207  CG       -31.1110   72.8590  246.1480 C.3   542  ARG542      0.0489
    208  CD       -32.2810   71.9500  245.6430 C.3   542  ARG542      0.2205
    209  NE       -33.6130   72.4660  245.9770 N.pl3 542  ARG542     -0.0865
    210  CZ       -34.3590   72.0010  246.9710 C.cat 542  ARG542      0.5346
    211  NH1      -33.9070   70.9990  247.7210 N.pl3 542  ARG542      0.1354
    212  NH2      -35.5570   72.5310  247.2210 N.pl3 542  ARG542      0.1354
    213  N        -29.2220   76.6900  243.8450 N.3   544  GLU544     -0.1245
    214  CA       -29.6230   76.4330  242.4790 C.3   544  GLU544      0.1567
    215  C        -29.5770   77.6530  241.6020 C.2   544  GLU544      0.2260
    216  O        -30.1250   78.7010  241.9450 O.2   544  GLU544     -0.2867
    217  CB       -31.0300   75.8600  242.4530 C.3   544  GLU544      0.0388
    218  CG       -31.6220   75.7690  241.0730 C.3   544  GLU544      0.1160
    219  CD       -33.0600   75.3210  241.1190 C.2   544  GLU544      0.3649
    220  OE1      -33.6860   75.4540  242.1990 O.co2 544  GLU544     -0.2457
    221  OE2      -33.5380   74.8080  240.0910 O.co2 544  GLU544     -0.2457
@<TRIPOS>BOND
     1   172   173    1
     2   175   174    2
     3   173   174    1
     4   173   176    1
     5   177   176    1
     6   165   164    2
     7   174   178   am
     8   164   163    1
     9   147   148    2
    10   147   146    1
    11   183   185    1
    12   183   182    1
    13   178   179    1
    14   155   156    1
    15   163   162    1
    16   163   166    1
    17   179   182    1
    18   179   180    1
    19   146   149    1
    20   146   145    1
    21   162   157   am
    22   157   158    2
    23   157   156    1
    24   156   159    1
    25   182   184    1
    26     1     2    1
    27   149   150    1
    28   166   167    1
    29   151   150   ar
    30   151   153   ar
    31   145   143   am
    32   144   143    2
    33   180   181    2
    34   143   142    1
    35   150   152   ar
    36   189   188    2
    37   159   161    1
    38   159   160    1
    39   153   154   ar
    40    13    12    2
    41     2     5    1
    42     2     3    1
    43     6     5    1
    44     6     7    1
    45   167   169   ar
    46   167   168   ar
    47   188   187    1
    48     8     7   ar
    49   142   141    1
    50     7     9   ar
    51   169   171   ar
    52    10     3   am
    53    10    11    1
    54    58    55    1
    55    58    59    1
    56   152   154   ar
    57   186   187    1
    58   186   192    1
    59     3     4    2
    60   187   190    1
    61    12    11    1
    62   168   170   ar
    63   111   112    1
    64    57    56    2
    65    55    56    1
    66    55    54    1
    67    11    14    1
    68   115   112    1
    69   115   116    1
    70    14    15    1
    71    14    16    1
    72   171   170   ar
    73   192   191    1
    74    56    60   am
    75   112   113    1
    76   190   191    1
    77    15    17    1
    78   117   116   ar
    79   114   113    2
    80   116   118   ar
    81   201   199   ar
    82    60    61    1
    83   221   219   ar
    84   138   139    1
    85   138   137    1
    86    67    69   ar
    87    67    65   ar
    88   139   140    2
    89    61    64    1
    90    61    62    1
    91    64    65    1
    92   193   194    1
    93    69    70   ar
    94   199   198    1
    95   199   200   ar
    96   198   197    1
    97   218   219    1
    98   218   217    1
    99    65    66   ar
   100   219   220   ar
   101   137   129   am
   102   215   216    2
   103   215   214    1
   104   197   194    1
   105    62    63    2
   106    62    71   am
   107   194   195    1
   108    52    50    1
   109    70    68   ar
   110    49    48    2
   111   129   130    2
   112   129   128    1
   113   217   214    1
   114    66    68   ar
   115   214   213    1
   116    51    53    1
   117    51    50    1
   118    71    72    1
   119   195   196    2
   120    50    47    1
   121    47    48    1
   122    47    46    1
   123    25    23   am
   124   128   131    1
   125   128   127    1
   126   133   132   ar
   127   133   135   ar
   128   131   132    1
   129   109   108   ar
   130    72    75    1
   131    72    73    1
   132    45    44    1
   133   132   134   ar
   134   101   102   ar
   135   101    99   ar
   136   102   100   ar
   137   135   136   ar
   138    23    22    1
   139    23    24    2
   140   110   108   ar
   141   127   121   am
   142   108   107    1
   143    75    76    1
   144    22    19    1
   145    73    74    2
   146   122   121    2
   147    44    43   ar
   148    44    42   ar
   149   121   120    1
   150    99    98   ar
   151    43    41   ar
   152   105   106    2
   153   105   104    1
   154   100    98   ar
   155   134   136   ar
   156   208   209    1
   157   208   207    1
   158    19    18    1
   159    19    20    1
   160    32    31    1
   161   209   210    2
   162    42    40   ar
   163    98    97    1
   164   207   206    1
   165   107   104    1
   166   104   103    1
   167   125   124    2
   168    41    39   ar
   169   120   119    1
   170   120   123    1
   171    31    30    1
   172    31    33    1
   173    84    82    1
   174   210   212    1
   175   210   211    1
   176    40    39   ar
   177   124   123    1
   178   124   126   am
   179    20    21    2
   180    91    89    1
   181    39    38    1
   182    97    94    1
   183    82    81    1
   184    30    27    1
   185    77    78    1
   186   204   205    2
   187   204   203    1
   188   206   203    1
   189    94    93    1
   190    94    95    1
   191    26    27    1
   192   203   202    1
   193    92    90    1
   194    88    87    2
   195    81    78    1
   196    81    83    1
   197    38    35    1
   198    27    28    1
   199    89    90    1
   200    89    86    1
   201    96    95    2
   202    78    79    1
   203    93    87   am
   204    87    86    1
   205    34    28   am
   206    34    35    1
   207    28    29    2
   208    80    79    2
   209    35    36    1
   210    86    85    1
   211    36    37    2
