@<TRIPOS>MOLECULE
tmp/5jrfA01.pdb
 88 84 0 0 0
SMALL
GASTEIGER

@<TRIPOS>ATOM
      1  N         21.9470   34.3050   25.5170 N.3    72  LEU72      -0.1245
      2  CA        22.2950   33.2300   24.5910 C.3    72  LEU72       0.1561
      3  C         21.0290   32.6850   23.8570 C.2    72  LEU72       0.2260
      4  O         21.1040   32.2830   22.7000 O.2    72  LEU72      -0.2867
      5  CB        23.1190   32.1730   25.3230 C.3    72  LEU72       0.0270
      6  CG        24.6000   32.5360   25.5850 C.3    72  LEU72       0.0019
      7  CD1       25.1850   31.5920   26.6180 C.3    72  LEU72       0.0001
      8  CD2       25.4510   32.4540   24.3400 C.3    72  LEU72       0.0001
      9  N         23.0490   26.6060   14.5690 N.3   103  ASN103     -0.1240
     10  CA        24.1480   26.3230   15.4260 C.3   103  ASN103      0.1653
     11  C         23.6500   26.1230   16.8640 C.2   103  ASN103      0.2266
     12  O         23.0200   27.0150   17.4410 O.2   103  ASN103     -0.2867
     13  CB        25.1350   27.4640   15.3600 C.3   103  ASN103      0.1155
     14  CG        26.4990   27.0400   15.8290 C.2   103  ASN103      0.2627
     15  OD1       26.6260   26.2220   16.7520 O.2   103  ASN103     -0.2716
     16  ND2       27.5400   27.5650   15.1870 N.am  103  ASN103     -0.0877
     17  N         25.7060   25.7380   19.4580 N.3   105  GLY105     -0.1210
     18  CA        26.6300   26.3380   20.3740 C.3   105  GLY105      0.1956
     19  C         26.0280   27.2700   21.4000 C.2   105  GLY105      0.2611
     20  O         26.4000   27.1910   22.6030 O.2   105  GLY105     -0.2717
     21  N         25.0810   28.1080   20.9700 N.am  106  TYR106     -0.1976
     22  CA        24.5220   29.1260   21.8720 C.3   106  TYR106      0.1639
     23  C         23.8640   28.4840   23.0940 C.2   106  TYR106      0.2290
     24  O         24.0800   28.8760   24.2480 O.2   106  TYR106     -0.2864
     25  CB        23.5180   30.0350   21.1590 C.3   106  TYR106      0.0560
     26  CG        24.1100   30.8340   20.0230 C.ar  106  TYR106     -0.0198
     27  CD1       24.9750   31.8810   20.2700 C.ar  106  TYR106     -0.0009
     28  CD2       23.7770   30.5450   18.6800 C.ar  106  TYR106     -0.0009
     29  CE1       25.5400   32.6020   19.2290 C.ar  106  TYR106      0.0417
     30  CE2       24.3190   31.2810   17.6240 C.ar  106  TYR106      0.0417
     31  CZ        25.2080   32.2970   17.9130 C.ar  106  TYR106      0.1957
     32  OH        25.7740   33.0180   16.9090 O.3   106  TYR106     -0.2866
     33  N         24.2900   25.0750   24.0760 N.3   108  TYR108     -0.1227
     34  CA        25.2590   24.2820   24.8390 C.3   108  TYR108      0.1736
     35  C         26.1350   25.2080   25.6830 C.2   108  TYR108      0.2595
     36  O         26.4330   24.8700   26.7890 O.2   108  TYR108     -0.2718
     37  CB        26.0720   23.3370   23.9460 C.3   108  TYR108      0.0548
     38  CG        25.3030   22.0560   23.5760 C.ar  108  TYR108     -0.0200
     39  CD1       24.3200   22.0540   22.5980 C.ar  108  TYR108     -0.0009
     40  CD2       25.5760   20.8590   24.2080 C.ar  108  TYR108     -0.0009
     41  CE1       23.6180   20.9160   22.2910 C.ar  108  TYR108      0.0417
     42  CE2       24.8780   19.7090   23.8890 C.ar  108  TYR108      0.0417
     43  CZ        23.9000   19.7490   22.9400 C.ar  108  TYR108      0.1957
     44  OH        23.2320   18.6010   22.6340 O.3   108  TYR108     -0.2866
     45  N         26.4920   26.3970   25.2020 N.am  109  LEU109     -0.1980
     46  CA        27.2630   27.2860   26.0420 C.3   109  LEU109      0.1596
     47  C         26.4470   27.7130   27.2310 C.2   109  LEU109      0.2287
     48  O         26.9070   27.6640   28.3470 O.2   109  LEU109     -0.2864
     49  CB        27.7570   28.4810   25.3030 C.3   109  LEU109      0.0297
     50  CG        28.6200   29.4440   26.0910 C.3   109  LEU109      0.0022
     51  CD1       29.8920   28.8240   26.6650 C.3   109  LEU109      0.0001
     52  CD2       28.9690   30.5880   25.1510 C.3   109  LEU109      0.0001
     53  N         26.5840   24.9610   29.8980 N.3   112  LEU112     -0.1245
     54  CA        27.8720   24.9210   30.5980 C.3   112  LEU112      0.1561
     55  C         27.9290   25.9470   31.7050 C.2   112  LEU112      0.2260
     56  O         28.3740   25.6570   32.7970 O.2   112  LEU112     -0.2867
     57  CB        29.0210   25.1640   29.6200 C.3   112  LEU112      0.0270
     58  CG        30.4760   24.8680   30.0280 C.3   112  LEU112      0.0019
     59  CD1       30.7370   23.3970   30.2510 C.3   112  LEU112      0.0001
     60  CD2       31.3860   25.3920   28.9170 C.3   112  LEU112      0.0001
     61  N         27.6100   18.1130   30.1050 N.3   148  ILE148     -0.1231
     62  CA        27.4380   19.0460   29.0010 C.3   148  ILE148      0.1692
     63  C         28.4670   18.7970   27.8830 C.2   148  ILE148      0.2591
     64  O         28.0990   18.7230   26.7380 O.2   148  ILE148     -0.2718
     65  CB        27.4790   20.5340   29.4760 C.3   148  ILE148      0.0266
     66  CG1       26.4190   20.7980   30.5520 C.3   148  ILE148      0.0019
     67  CG2       27.2220   21.5080   28.3090 C.3   148  ILE148      0.0020
     68  CD1       24.9980   20.3560   30.1810 C.3   148  ILE148      0.0001
     69  N         29.7410   18.6520   28.2290 N.am  149  ILE149     -0.1980
     70  CA        30.8090   18.4790   27.2560 C.3   149  ILE149      0.1595
     71  C         30.5920   17.2200   26.3910 C.2   149  ILE149      0.2287
     72  O         30.6360   17.2860   25.1350 O.2   149  ILE149     -0.2864
     73  CB        32.1460   18.4090   27.9760 C.3   149  ILE149      0.0276
     74  CG1       32.5190   19.8200   28.5020 C.3   149  ILE149      0.0022
     75  CG2       33.2260   17.8730   27.0530 C.3   149  ILE149      0.0022
     76  CD1       33.5210   19.8290   29.6450 C.3   149  ILE149      0.0001
     77  N         27.7430   17.7570   24.1050 N.3   152  TYR152     -0.1241
     78  CA        28.2210   18.5890   22.9970 C.3   152  TYR152      0.1605
     79  C         29.0110   17.7660   21.9370 C.2   152  TYR152      0.2264
     80  O         28.7230   17.8580   20.7430 O.2   152  TYR152     -0.2867
     81  CB        29.0610   19.7600   23.5240 C.3   152  TYR152      0.0534
     82  CG        29.3750   20.7900   22.4660 C.ar  152  TYR152     -0.0201
     83  CD1       28.3530   21.4020   21.7560 C.ar  152  TYR152     -0.0009
     84  CD2       30.6880   21.1390   22.1520 C.ar  152  TYR152     -0.0009
     85  CE1       28.6250   22.3410   20.7780 C.ar  152  TYR152      0.0417
     86  CE2       30.9690   22.0800   21.1700 C.ar  152  TYR152      0.0417
     87  CZ        29.9390   22.6760   20.4790 C.ar  152  TYR152      0.1957
     88  OH        30.1760   23.6290   19.4940 O.3   152  TYR152     -0.2866
@<TRIPOS>BOND
     1     9    10    1
     2    16    14   am
     3    13    10    1
     4    13    14    1
     5    10    11    1
     6    14    15    2
     7    11    12    2
     8    32    31    1
     9    30    31   ar
    10    30    28   ar
    11    31    29   ar
    12    28    26   ar
    13    29    27   ar
    14    17    18    1
    15    88    87    1
    16    26    27   ar
    17    26    25    1
    18    18    19    1
    19    87    85   ar
    20    87    86   ar
    21    80    79    2
    22    85    83   ar
    23    21    19   am
    24    21    22    1
    25    25    22    1
    26    86    84   ar
    27    19    20    2
    28    83    82   ar
    29    22    23    1
    30    79    78    1
    31    84    82   ar
    32    41    39   ar
    33    41    43   ar
    34    82    81    1
    35    39    38   ar
    36    44    43    1
    37     4     3    2
    38    43    42   ar
    39    78    81    1
    40    78    77    1
    41    23    24    2
    42    38    37    1
    43    38    40   ar
    44     3     2    1
    45    42    40   ar
    46    37    34    1
    47    33    34    1
    48     8     6    1
    49     2     5    1
    50     2     1    1
    51    34    35    1
    52    72    71    2
    53    52    50    1
    54    45    35   am
    55    45    46    1
    56    49    46    1
    57    49    50    1
    58     5     6    1
    59     6     7    1
    60    35    36    2
    61    46    47    1
    62    50    51    1
    63    71    70    1
    64    64    63    2
    65    75    73    1
    66    47    48    2
    67    70    73    1
    68    70    69    1
    69    63    69   am
    70    63    62    1
    71    73    74    1
    72    67    65    1
    73    74    76    1
    74    60    58    1
    75    62    65    1
    76    62    61    1
    77    65    66    1
    78    57    58    1
    79    57    54    1
    80    53    54    1
    81    58    59    1
    82    68    66    1
    83    54    55    1
    84    55    56    2
