@<TRIPOS>MOLECULE
tmp/5jrhA00.pdb
 137 127 0 0 0
SMALL
GASTEIGER

@<TRIPOS>ATOM
      1  N         26.8940   12.8900    4.0160 N.3   136  PRO136     -0.2116
      2  CA        25.5170   13.3410    4.2010 C.3   136  PRO136      0.1372
      3  C         24.7040   13.0410    2.9480 C.2   136  PRO136      0.2244
      4  O         25.2430   12.5270    1.9630 O.2   136  PRO136     -0.2868
      5  CB        25.6790   14.8420    4.4230 C.3   136  PRO136      0.0268
      6  CG        26.8610   15.1900    3.5600 C.3   136  PRO136      0.0207
      7  CD        27.7920   13.9910    3.6230 C.3   136  PRO136      0.0892
      8  N         26.8090    5.3380    8.2080 N.3   159  PHE159     -0.1227
      9  CA        25.8040    6.3460    8.5530 C.3   159  PHE159      0.1736
     10  C         26.4290    7.5640    9.2290 C.2   159  PHE159      0.2596
     11  O         27.2370    7.4220   10.1600 O.2   159  PHE159     -0.2718
     12  CB        24.7510    5.6900    9.4540 C.3   159  PHE159      0.0547
     13  CG        23.7600    6.6440   10.0620 C.ar  159  PHE159     -0.0202
     14  CD1       22.8500    7.3260    9.2670 C.ar  159  PHE159     -0.0042
     15  CD2       23.6980    6.8030   11.4360 C.ar  159  PHE159     -0.0042
     16  CE1       21.9060    8.1880    9.8410 C.ar  159  PHE159     -0.0003
     17  CE2       22.7550    7.6490   12.0120 C.ar  159  PHE159     -0.0003
     18  CZ        21.8650    8.3440   11.2130 C.ar  159  PHE159     -0.0000
     19  N         26.0670    8.7560    8.7570 N.am  160  GLY160     -0.1942
     20  CA        26.7130    9.9830    9.2040 C.3   160  GLY160      0.2014
     21  C         26.5400   10.2940   10.6880 C.2   160  GLY160      0.2639
     22  O         27.2670   11.1200   11.2420 O.2   160  GLY160     -0.2714
     23  N         25.5730    9.6430   11.3300 N.am  161  GLY161     -0.1954
     24  CA        25.3590    9.8360   12.7510 C.3   161  GLY161      0.1869
     25  C         26.2040    8.9720   13.6640 C.2   161  GLY161      0.2309
     26  O         26.0830    9.0530   14.8870 O.2   161  GLY161     -0.2863
     27  N         21.5600   19.5670    8.3420 N.3   187  ARG187     -0.1245
     28  CA        20.3430   18.8250    8.6480 C.3   187  ARG187      0.1563
     29  C         19.4920   19.6120    9.6350 C.2   187  ARG187      0.2260
     30  O         19.9740   19.9720   10.7080 O.2   187  ARG187     -0.2867
     31  CB        20.7140   17.4480    9.2050 C.3   187  ARG187      0.0307
     32  CG        19.5700   16.4620    9.3210 C.3   187  ARG187      0.0489
     33  CD        20.0890   15.0500    9.6010 C.3   187  ARG187      0.2205
     34  NE        19.0010   14.1030    9.8250 N.pl3 187  ARG187     -0.0865
     35  CZ        18.3720   13.9670   10.9880 C.cat 187  ARG187      0.5346
     36  NH1       18.7170   14.7250   12.0190 N.pl3 187  ARG187      0.1354
     37  NH2       17.3900   13.0850   11.1210 N.pl3 187  ARG187      0.1354
     38  N         20.9050   22.7260   11.1500 N.3   190  ARG190     -0.1245
     39  CA        22.1180   22.5470   11.9460 C.3   190  ARG190      0.1563
     40  C         23.2630   21.9020   11.1510 C.2   190  ARG190      0.2260
     41  O         23.0360   21.2660   10.1260 O.2   190  ARG190     -0.2867
     42  CB        21.8100   21.6950   13.1800 C.3   190  ARG190      0.0307
     43  CG        20.7390   22.2830   14.0860 C.3   190  ARG190      0.0489
     44  CD        20.1570   21.2340   15.0160 C.3   190  ARG190      0.2205
     45  NE        20.6400   21.3710   16.3870 N.pl3 190  ARG190     -0.0865
     46  CZ        20.0240   22.0790   17.3310 C.cat 190  ARG190      0.5346
     47  NH1       20.5370   22.1480   18.5520 N.pl3 190  ARG190      0.1354
     48  NH2       18.9010   22.7270   17.0540 N.pl3 190  ARG190      0.1354
     49  N         26.4900   19.1200   11.1750 N.3   192  ILE192     -0.1245
     50  CA        27.0560   17.9350   11.8090 C.3   192  ILE192      0.1561
     51  C         28.5190   17.7980   11.3650 C.2   192  ILE192      0.2260
     52  O         28.8030   17.8170   10.1770 O.2   192  ILE192     -0.2867
     53  CB        26.2670   16.6420   11.4620 C.3   192  ILE192      0.0252
     54  CG1       24.9950   16.5360   12.3090 C.3   192  ILE192      0.0019
     55  CG2       27.1230   15.4100   11.6910 C.3   192  ILE192      0.0019
     56  CD1       23.8060   17.2850   11.7370 C.3   192  ILE192      0.0001
     57  N         31.3310   16.1480   10.2850 N.3   194  LEU194     -0.1245
     58  CA        31.7390   14.8580    9.7490 C.3   194  LEU194      0.1561
     59  C         33.2570   14.6810    9.6560 C.2   194  LEU194      0.2260
     60  O         33.8070   13.6880   10.1500 O.2   194  LEU194     -0.2867
     61  CB        31.0990   14.6690    8.3660 C.3   194  LEU194      0.0270
     62  CG        29.5750   14.5020    8.3870 C.3   194  LEU194      0.0019
     63  CD1       28.9910   14.5890    6.9820 C.3   194  LEU194      0.0001
     64  CD2       29.2030   13.1670    9.0550 C.3   194  LEU194      0.0001
     65  N         18.0390    7.1210    4.6370 N.3   302  ASP302     -0.1239
     66  CA        19.4390    7.5410    4.5110 C.3   302  ASP302      0.1674
     67  C         20.2960    6.5630    3.7070 C.2   302  ASP302      0.2266
     68  O         20.1480    5.3420    3.7840 O.2   302  ASP302     -0.2867
     69  CB        20.0750    7.7430    5.8900 C.3   302  ASP302      0.1410
     70  CG        21.3390    8.6010    5.8300 C.2   302  ASP302      0.3668
     71  OD1       21.1990    9.8400    5.7600 O.co2 302  ASP302     -0.2456
     72  OD2       22.4590    8.0470    5.8410 O.co2 302  ASP302     -0.2456
     73  N         15.0410   16.7120    6.9400 N.3   329  VAL329     -0.1245
     74  CA        14.1150   15.9170    7.7320 C.3   329  VAL329      0.1561
     75  C         12.6690   16.2920    7.3680 C.2   329  VAL329      0.2260
     76  O         12.4190   17.3990    6.8970 O.2   329  VAL329     -0.2867
     77  CB        14.3720   16.1080    9.2520 C.3   329  VAL329      0.0252
     78  CG1       15.7570   15.6000    9.6220 C.3   329  VAL329      0.0019
     79  CG2       14.2430   17.5600    9.6270 C.3   329  VAL329      0.0019
     80  N          8.3760    5.7120   11.7740 N.3   355  THR355     -0.1218
     81  CA         8.7460    6.7280   12.7640 C.3   355  THR355      0.1862
     82  C          8.4390    8.1360   12.2390 C.2   355  THR355      0.2287
     83  O          7.9000    8.9720   12.9690 O.2   355  THR355     -0.2866
     84  CB        10.2310    6.6140   13.1540 C.3   355  THR355      0.1770
     85  OG1       10.4110    5.4320   13.9480 O.3   355  THR355     -0.2211
     86  CG2       10.6740    7.8400   13.9610 C.3   355  THR355      0.0375
     87  N         13.5450    4.2040   16.2140 N.3   519  SER519     -0.1217
     88  CA        13.3560    5.1240   15.0950 C.3   519  SER519      0.1889
     89  C         13.8470    4.5760   13.7540 C.2   519  SER519      0.2288
     90  O         14.3290    5.3440   12.9100 O.2   519  SER519     -0.2866
     91  CB        14.0590    6.4570   15.3750 C.3   519  SER519      0.2089
     92  OG        13.5210    7.0980   16.5170 O.3   519  SER519     -0.2183
     93  N         16.3070    2.5700   13.4330 N.3   521  HIS521     -0.1241
     94  CA        17.7090    2.2220   13.5860 C.3   521  HIS521      0.1621
     95  C         17.8610    0.9070   14.3390 C.2   521  HIS521      0.2264
     96  O         17.4160    0.7630   15.4890 O.2   521  HIS521     -0.2867
     97  CB        18.4620    3.3490   14.2970 C.3   521  HIS521      0.0745
     98  CG        18.4060    4.6500   13.5620 C.ar  521  HIS521      0.0817
     99  ND1       18.1470    5.8510   14.1880 N.ar  521  HIS521     -0.2268
    100  CD2       18.5580    4.9340   12.2460 C.ar  521  HIS521      0.1154
    101  CE1       18.1570    6.8210   13.2890 C.ar  521  HIS521      0.1986
    102  NE2       18.3980    6.2910   12.1050 N.ar  521  HIS521     -0.2212
    103  N          9.0350    6.6740   18.3840 N.3   551  LYS551     -0.1245
    104  CA        10.2500    5.9650   17.9820 C.3   551  LYS551      0.1561
    105  C         10.0740    4.4650   17.8220 C.2   551  LYS551      0.2260
    106  O         10.9800    3.7880   17.3330 O.2   551  LYS551     -0.2867
    107  CB        11.3590    6.2320   18.9960 C.3   551  LYS551      0.0271
    108  CG        11.5650    7.7080   19.2470 C.3   551  LYS551      0.0035
    109  CD        12.9330    7.9940   19.8090 C.3   551  LYS551      0.0206
    110  CE        12.9730    7.7920   21.2960 C.3   551  LYS551      0.1093
    111  NZ        14.0360    8.6520   21.8920 N.3   551  LYS551     -0.1314
    112  N         26.5750    8.1290   23.6610 N.3   580  ARG580     -0.1245
    113  CA        26.6580    8.9570   22.4490 C.3   580  ARG580      0.1563
    114  C         28.0850    8.9700   21.8270 C.2   580  ARG580      0.2260
    115  O         28.2340    9.0230   20.6010 O.2   580  ARG580     -0.2867
    116  CB        26.1890   10.3830   22.7540 C.3   580  ARG580      0.0307
    117  CG        26.1870   11.3180   21.5470 C.3   580  ARG580      0.0489
    118  CD        25.9140   12.7590   21.9520 C.3   580  ARG580      0.2205
    119  NE        24.9520   12.8510   23.0490 N.pl3 580  ARG580     -0.0865
    120  CZ        23.6500   13.0700   22.8940 C.cat 580  ARG580      0.5346
    121  NH1       23.1380   13.2260   21.6790 N.pl3 580  ARG580      0.1354
    122  NH2       22.8590   13.1380   23.9600 N.pl3 580  ARG580      0.1354
    123  N         24.6520    9.3730   18.7460 N.3   585  PRO585     -0.2102
    124  CA        23.3800    9.8630   19.2880 C.3   585  PRO585      0.1504
    125  C         22.2130    8.9060   19.0550 C.2   585  PRO585      0.2575
    126  O         21.3360    8.8220   19.9100 O.2   585  PRO585     -0.2718
    127  CB        23.1670   11.1750   18.5330 C.3   585  PRO585      0.0282
    128  CG        24.5460   11.6300   18.1970 C.3   585  PRO585      0.0208
    129  CD        25.3080   10.3790   17.8910 C.3   585  PRO585      0.0893
    130  N         22.2160    8.1780   17.9400 N.am  586  LEU586     -0.1980
    131  CA        21.1490    7.2130   17.6660 C.3   586  LEU586      0.1596
    132  C         20.9790    6.1710   18.7740 C.2   586  LEU586      0.2287
    133  O         19.8770    5.6520   18.9650 O.2   586  LEU586     -0.2864
    134  CB        21.3860    6.4970   16.3200 C.3   586  LEU586      0.0297
    135  CG        22.4090    5.3520   16.2290 C.3   586  LEU586      0.0022
    136  CD1       22.2930    4.6230   14.8730 C.3   586  LEU586      0.0001
    137  CD2       23.8380    5.8290   16.4430 C.3   586  LEU586      0.0001
@<TRIPOS>BOND
     1     4     3    2
     2     3     2    1
     3     6     7    1
     4     6     5    1
     5     7     1    1
     6    67    68    2
     7    67    66    1
     8     1     2    1
     9     2     5    1
    10    66    65    1
    11    66    69    1
    12    71    70   ar
    13    70    72   ar
    14    70    69    1
    15    76    75    2
    16    73    74    1
    17    63    62    1
    18    75    74    1
    19    74    77    1
    20     8     9    1
    21    27    28    1
    22    61    62    1
    23    61    58    1
    24    62    64    1
    25     9    10    1
    26     9    12    1
    27    28    31    1
    28    28    29    1
    29    19    20    1
    30    19    10   am
    31    20    21    1
    32    31    32    1
    33    10    11    2
    34    77    78    1
    35    77    79    1
    36    14    16   ar
    37    14    13   ar
    38    32    33    1
    39    12    13    1
    40    33    34    1
    41    29    30    2
    42    59    58    1
    43    59    60    2
    44    58    57    1
    45    34    35    2
    46    16    18   ar
    47    13    15   ar
    48    41    40    2
    49    52    51    2
    50    21    22    2
    51    21    23   am
    52    35    37    1
    53    35    36    1
    54    38    39    1
    55    40    39    1
    56    49    50    1
    57    18    17   ar
    58    23    24    1
    59    51    50    1
    60    15    17   ar
    61    53    55    1
    62    53    50    1
    63    53    54    1
    64    56    54    1
    65    80    81    1
    66    39    42    1
    67   102   100   ar
    68   102   101   ar
    69    82    81    1
    70    82    83    2
    71   100    98   ar
    72    24    25    1
    73    81    84    1
    74    90    89    2
    75    84    85    1
    76    84    86    1
    77    42    43    1
    78   101    99   ar
    79    93    94    1
    80    98    99   ar
    81    98    97    1
    82    94    97    1
    83    94    95    1
    84    25    26    2
    85    89    88    1
    86    43    44    1
    87    95    96    2
    88   136   135    1
    89    44    45    1
    90    88    91    1
    91    88    87    1
    92    91    92    1
    93   135   134    1
    94   135   137    1
    95   134   131    1
    96    45    46    2
    97    48    46    1
    98    46    47    1
    99   106   105    2
   100   131   130    1
   101   131   132    1
   102   105   104    1
   103   129   128    1
   104   129   123    1
   105   130   125   am
   106   104   103    1
   107   104   107    1
   108   128   127    1
   109   127   124    1
   110   123   124    1
   111   132   133    2
   112   107   108    1
   113   125   124    1
   114   125   126    2
   115   108   109    1
   116   109   110    1
   117   115   114    2
   118   110   111    1
   119   117   118    1
   120   117   116    1
   121   121   120    1
   122   114   113    1
   123   118   119    1
   124   113   116    1
   125   113   112    1
   126   120   119    2
   127   120   122    1
