@<TRIPOS>MOLECULE
tmp/5jrhB00.pdb
 170 160 0 0 0
SMALL
GASTEIGER

@<TRIPOS>ATOM
      1  N         25.5720   27.4760   31.8100 N.3   135  PRO135     -0.2116
      2  CA        24.2270   26.9780   31.5350 C.3   135  PRO135      0.1372
      3  C         23.2990   27.3030   32.7110 C.2   135  PRO135      0.2244
      4  O         23.7660   27.8640   33.7080 O.2   135  PRO135     -0.2868
      5  CB        24.4480   25.4810   31.3930 C.3   135  PRO135      0.0268
      6  CG        25.5510   25.1920   32.3450 C.3   135  PRO135      0.0207
      7  CD        26.4420   26.4130   32.3460 C.3   135  PRO135      0.0892
      8  N         25.6110   35.1240   27.6810 N.3   158  PHE158     -0.1227
      9  CA        24.6810   34.0930   27.2250 C.3   158  PHE158      0.1736
     10  C         25.4360   32.9340   26.5720 C.2   158  PHE158      0.2596
     11  O         26.2990   33.1490   25.7110 O.2   158  PHE158     -0.2718
     12  CB        23.6770   34.7180   26.2570 C.3   158  PHE158      0.0547
     13  CG        22.7780   33.7350   25.5640 C.ar  158  PHE158     -0.0202
     14  CD1       21.8570   32.9930   26.2810 C.ar  158  PHE158     -0.0042
     15  CD2       22.8090   33.6080   24.1740 C.ar  158  PHE158     -0.0042
     16  CE1       21.0060   32.0960   25.6330 C.ar  158  PHE158     -0.0003
     17  CE2       21.9460   32.7290   23.5270 C.ar  158  PHE158     -0.0003
     18  CZ        21.0440   31.9770   24.2640 C.ar  158  PHE158     -0.0000
     19  N         25.1080   31.7150   26.9970 N.am  159  GLY159     -0.1942
     20  CA        25.8510   30.5230   26.6010 C.3   159  GLY159      0.2014
     21  C         25.7650   30.2170   25.1190 C.2   159  GLY159      0.2639
     22  O         26.5260   29.4050   24.5920 O.2   159  GLY159     -0.2714
     23  N         24.8170   30.8520   24.4470 N.am  160  GLY160     -0.1954
     24  CA        24.6600   30.6770   23.0150 C.3   160  GLY160      0.1869
     25  C         25.5690   31.5480   22.1620 C.2   160  GLY160      0.2309
     26  O         25.5410   31.4460   20.9370 O.2   160  GLY160     -0.2863
     27  N         20.8290   20.6220   27.1240 N.3   186  ARG186     -0.1245
     28  CA        19.6490   21.3480   26.6840 C.3   186  ARG186      0.1563
     29  C         18.8950   20.5950   25.6000 C.2   186  ARG186      0.2260
     30  O         19.4560   20.3100   24.5430 O.2   186  ARG186     -0.2867
     31  CB        20.0610   22.7300   26.1730 C.3   186  ARG186      0.0307
     32  CG        18.9150   23.6370   25.8320 C.3   186  ARG186      0.0489
     33  CD        19.4240   25.0470   25.5700 C.3   186  ARG186      0.2205
     34  NE        18.3410   25.9480   25.1920 N.pl3 186  ARG186     -0.0865
     35  CZ        17.8310   26.0080   23.9670 C.cat 186  ARG186      0.5346
     36  NH1       18.3040   25.2130   23.0150 N.pl3 186  ARG186      0.1354
     37  NH2       16.8430   26.8530   23.6960 N.pl3 186  ARG186      0.1354
     38  N         20.5680   17.6460   24.1210 N.3   189  ARG189     -0.1245
     39  CA        21.8340   17.8440   23.4250 C.3   189  ARG189      0.1563
     40  C         22.8850   18.4930   24.3330 C.2   189  ARG189      0.2260
     41  O         22.5450   19.0970   25.3480 O.2   189  ARG189     -0.2867
     42  CB        21.6160   18.6990   22.1750 C.3   189  ARG189      0.0307
     43  CG        20.5130   18.1760   21.2560 C.3   189  ARG189      0.0489
     44  CD        20.1070   19.2120   20.2180 C.3   189  ARG189      0.2205
     45  NE        20.5410   18.8520   18.8700 N.pl3 189  ARG189     -0.0865
     46  CZ        19.7300   18.4060   17.9120 C.cat 189  ARG189      0.5346
     47  NH1       18.4310   18.2620   18.1450 N.pl3 189  ARG189      0.1354
     48  NH2       20.2210   18.1050   16.7170 N.pl3 189  ARG189      0.1354
     49  N         26.0970   21.3130   24.7380 N.3   191  ILE191     -0.1245
     50  CA        26.6020   22.5790   24.2000 C.3   191  ILE191      0.1561
     51  C         28.0320   22.8080   24.6900 C.2   191  ILE191      0.2260
     52  O         28.2450   22.8590   25.8890 O.2   191  ILE191     -0.2867
     53  CB        25.7300   23.7800   24.6450 C.3   191  ILE191      0.0252
     54  CG1       24.2360   23.5030   24.4300 C.3   191  ILE191      0.0019
     55  CG2       26.1770   25.0510   23.9480 C.3   191  ILE191      0.0019
     56  CD1       23.7910   23.5460   22.9880 C.3   191  ILE191      0.0001
     57  N         30.5780   24.5770   25.9740 N.3   193  LEU193     -0.1245
     58  CA        30.9490   25.8520   26.5930 C.3   193  LEU193      0.1561
     59  C         32.4690   26.0370   26.8020 C.2   193  LEU193      0.2260
     60  O         33.0600   27.0340   26.3470 O.2   193  LEU193     -0.2867
     61  CB        30.2100   26.0010   27.9290 C.3   193  LEU193      0.0270
     62  CG        28.6830   26.0840   27.8080 C.3   193  LEU193      0.0019
     63  CD1       28.0380   25.9850   29.1750 C.3   193  LEU193      0.0001
     64  CD2       28.2480   27.3780   27.0980 C.3   193  LEU193      0.0001
     65  N         16.6590   33.0800   30.5060 N.3   301  ASP301     -0.1239
     66  CA        18.0220   32.6730   30.7460 C.3   301  ASP301      0.1674
     67  C         18.7760   33.6620   31.6100 C.2   301  ASP301      0.2266
     68  O         18.5970   34.8880   31.5160 O.2   301  ASP301     -0.2867
     69  CB        18.7740   32.4960   29.4160 C.3   301  ASP301      0.1410
     70  CG        20.0580   31.6910   29.5820 C.2   301  ASP301      0.3668
     71  OD1       19.9770   30.4410   29.6110 O.co2 301  ASP301     -0.2456
     72  OD2       21.1380   32.3020   29.7050 O.co2 301  ASP301     -0.2456
     73  N         14.1430   23.3440   27.8810 N.3   328  VAL328     -0.1231
     74  CA        13.2550   24.1130   27.0080 C.3   328  VAL328      0.1678
     75  C         11.7990   23.6810   27.2280 C.2   328  VAL328      0.2434
     76  O         11.5440   22.5450   27.6390 O.2   328  VAL328     -0.2733
     77  CB        13.6370   23.9480   25.5100 C.3   328  VAL328      0.0265
     78  CG1       15.0280   24.4920   25.2470 C.3   328  VAL328      0.0020
     79  CG2       13.5410   22.5100   25.1080 C.3   328  VAL328      0.0020
     80  N         10.8440   24.5930   26.9690 N.am  329  PRO329     -0.2718
     81  CA         9.4500   24.3770   27.3710 C.3   329  PRO329      0.1535
     82  C          8.7680   23.2180   26.6630 C.2   329  PRO329      0.2598
     83  O          7.7090   22.7850   27.1140 O.2   329  PRO329     -0.2715
     84  CB         8.7640   25.7000   26.9940 C.3   329  PRO329      0.0310
     85  CG         9.6430   26.3040   25.9730 C.3   329  PRO329      0.0237
     86  CD        11.0360   25.9330   26.3950 C.3   329  PRO329      0.0939
     87  N          9.3570   22.7310   25.5770 N.am  330  ASN330     -0.1973
     88  CA         8.7120   21.7030   24.7750 C.3   330  ASN330      0.1688
     89  C          9.5770   20.4640   24.5640 C.2   330  ASN330      0.2292
     90  O          9.3890   19.7360   23.5880 O.2   330  ASN330     -0.2864
     91  CB         8.2960   22.2770   23.4130 C.3   330  ASN330      0.1181
     92  CG         9.4310   22.9660   22.6980 C.2   330  ASN330      0.2629
     93  OD1       10.5660   22.9770   23.1750 O.2   330  ASN330     -0.2716
     94  ND2        9.1370   23.5470   21.5380 N.am  330  ASN330     -0.0877
     95  N          7.6010   34.2010   22.5800 N.3   354  THR354     -0.1203
     96  CA         8.0740   33.2040   21.6140 C.3   354  THR354      0.1994
     97  C          7.7980   31.7770   22.1000 C.2   354  THR354      0.2617
     98  O          7.3640   30.9160   21.3170 O.2   354  THR354     -0.2717
     99  CB         9.5670   33.3860   21.3230 C.3   354  THR354      0.1784
    100  OG1        9.7390   34.6140   20.6150 O.3   354  THR354     -0.2211
    101  CG2       10.1100   32.2360   20.4710 C.3   354  THR354      0.0376
    102  N          8.0290   31.5200   23.3860 N.am  355  ALA355     -0.1979
    103  CA         7.7400   30.1940   23.9270 C.3   355  ALA355      0.1597
    104  C          6.2350   29.9350   23.8510 C.2   355  ALA355      0.2287
    105  O          5.7910   28.8480   23.4600 O.2   355  ALA355     -0.2864
    106  CB         8.2420   30.0590   25.3700 C.3   355  ALA355      0.0319
    107  N          5.2940   29.1010   20.3430 N.3   358  ALA358     -0.1245
    108  CA         5.8000   27.7530   20.0690 C.3   358  ALA358      0.1562
    109  C          4.8650   26.6740   20.6310 C.2   358  ALA358      0.2260
    110  O          4.5570   25.6950   19.9570 O.2   358  ALA358     -0.2867
    111  CB         7.1960   27.5810   20.6320 C.3   358  ALA358      0.0290
    112  N         13.0700   35.9200   18.5730 N.3   518  SER518     -0.1217
    113  CA        12.8090   34.9770   19.6640 C.3   518  SER518      0.1889
    114  C         13.1210   35.5540   21.0520 C.2   518  SER518      0.2288
    115  O         13.5240   34.8240   21.9610 O.2   518  SER518     -0.2866
    116  CB        13.6030   33.6850   19.4580 C.3   518  SER518      0.2089
    117  OG        13.2740   33.0850   18.2240 O.3   518  SER518     -0.2183
    118  N         15.4550   37.7040   21.5310 N.3   520  HIS520     -0.1241
    119  CA        16.8690   38.0780   21.5450 C.3   520  HIS520      0.1621
    120  C         17.0710   39.4060   20.8380 C.2   520  HIS520      0.2264
    121  O         16.7520   39.5530   19.6610 O.2   520  HIS520     -0.2867
    122  CB        17.7380   36.9940   20.8910 C.3   520  HIS520      0.0745
    123  CG        17.6720   35.6750   21.5910 C.ar  520  HIS520      0.0817
    124  ND1       17.5750   34.4770   20.9140 N.ar  520  HIS520     -0.2268
    125  CD2       17.6660   35.3670   22.9090 C.ar  520  HIS520      0.1154
    126  CE1       17.5140   33.4870   21.7880 C.ar  520  HIS520      0.1986
    127  NE2       17.5720   33.9990   23.0040 N.ar  520  HIS520     -0.2212
    128  N          6.3530   32.3800   14.8910 N.3   549  ILE549     -0.1231
    129  CA         6.8860   31.8730   16.1580 C.3   549  ILE549      0.1692
    130  C          7.8840   32.8440   16.7840 C.2   549  ILE549      0.2591
    131  O          7.7800   33.1920   17.9680 O.2   549  ILE549     -0.2718
    132  CB         7.5710   30.4950   15.9840 C.3   549  ILE549      0.0266
    133  CG1        6.5550   29.4510   15.5060 C.3   549  ILE549      0.0019
    134  CG2        8.2170   30.0310   17.2910 C.3   549  ILE549      0.0020
    135  CD1        5.2880   29.4240   16.3170 C.3   549  ILE549      0.0001
    136  N          8.8440   33.2900   15.9810 N.am  550  LYS550     -0.1980
    137  CA         9.9740   34.0500   16.5040 C.3   550  LYS550      0.1596
    138  C          9.7130   35.5400   16.6760 C.2   550  LYS550      0.2287
    139  O         10.5260   36.2430   17.2790 O.2   550  LYS550     -0.2864
    140  CB        11.1850   33.8410   15.6000 C.3   550  LYS550      0.0298
    141  CG        11.6230   32.3930   15.5650 C.3   550  LYS550      0.0038
    142  CD        13.0130   32.2500   15.0180 C.3   550  LYS550      0.0206
    143  CE        13.0420   32.4120   13.5250 C.3   550  LYS550      0.1093
    144  NZ        13.9660   31.3900   12.9530 N.3   550  LYS550     -0.1314
    145  N         26.7920   32.4050   12.2510 N.3   579  ARG579     -0.1245
    146  CA        26.8330   31.5830   13.4680 C.3   579  ARG579      0.1563
    147  C         28.2040   31.6490   14.1930 C.2   579  ARG579      0.2260
    148  O         28.2800   31.6120   15.4290 O.2   579  ARG579     -0.2867
    149  CB        26.4910   30.1240   13.1460 C.3   579  ARG579      0.0307
    150  CG        26.3330   29.2680   14.3890 C.3   579  ARG579      0.0489
    151  CD        26.1390   27.7870   14.0770 C.3   579  ARG579      0.2205
    152  NE        27.4010   27.0530   14.0150 N.pl3 579  ARG579     -0.0865
    153  CZ        28.0870   26.6520   15.0840 C.cat 579  ARG579      0.5346
    154  NH1       29.2230   25.9830   14.9340 N.pl3 579  ARG579      0.1354
    155  NH2       27.6420   26.9250   16.3050 N.pl3 579  ARG579      0.1354
    156  N         24.4920   31.1600   16.9890 N.3   584  PRO584     -0.2102
    157  CA        23.2760   30.6490   16.3490 C.3   584  PRO584      0.1504
    158  C         22.0650   31.5710   16.4960 C.2   584  PRO584      0.2575
    159  O         21.2390   31.5920   15.5820 O.2   584  PRO584     -0.2718
    160  CB        23.0360   29.3220   17.0730 C.3   584  PRO584      0.0282
    161  CG        24.3920   28.8820   17.4960 C.3   584  PRO584      0.0208
    162  CD        25.1440   30.1470   17.8390 C.3   584  PRO584      0.0893
    163  N         21.9680   32.3540   17.5750 N.am  585  LEU585     -0.1980
    164  CA        20.8080   33.2240   17.7470 C.3   585  LEU585      0.1596
    165  C         20.7010   34.2690   16.6370 C.2   585  LEU585      0.2287
    166  O         19.6180   34.7680   16.3670 O.2   585  LEU585     -0.2864
    167  CB        20.8300   33.9140   19.1210 C.3   585  LEU585      0.0297
    168  CG        22.0390   34.6680   19.6900 C.3   585  LEU585      0.0022
    169  CD1       22.4570   35.8530   18.8580 C.3   585  LEU585      0.0001
    170  CD2       21.7170   35.1330   21.1040 C.3   585  LEU585      0.0001
@<TRIPOS>BOND
     1   145   146    1
     2   144   143    1
     3   149   146    1
     4   149   150    1
     5   146   147    1
     6   143   142    1
     7   152   151    1
     8   152   153    2
     9   151   150    1
    10   147   148    2
    11   128   129    1
    12   154   153    1
    13   142   141    1
    14   153   155    1
    15   133   132    1
    16   133   135    1
    17   141   140    1
    18   159   158    2
    19   140   137    1
    20   136   137    1
    21   136   130   am
    22   132   129    1
    23   132   134    1
    24   129   130    1
    25   157   158    1
    26   157   156    1
    27   157   160    1
    28   166   165    2
    29   158   163   am
    30   137   138    1
    31   165   164    1
    32   138   139    2
    33    48    46    1
    34   130   131    2
    35   156   162    1
    36   160   161    1
    37   161   162    1
    38   163   164    1
    39   164   167    1
    40    46    47    1
    41    46    45    2
    42   117   116    1
    43   112   113    1
    44   169   168    1
    45    45    44    1
    46   167   168    1
    47   116   113    1
    48   121   120    2
    49   113   114    1
    50   168   170    1
    51   110   109    2
    52   108   107    1
    53   108   109    1
    54   108   111    1
    55    44    43    1
    56   101    99    1
    57   100    99    1
    58   120   119    1
    59   122   119    1
    60   122   123    1
    61   124   123   ar
    62   124   126   ar
    63    26    25    2
    64   114   115    2
    65    43    42    1
    66    98    97    2
    67    99    96    1
    68   118   119    1
    69    94    92   am
    70   123   125   ar
    71    96    97    1
    72    96    95    1
    73   126   127   ar
    74    97   102   am
    75    25    24    1
    76    42    39    1
    77    92    93    2
    78    92    91    1
    79   125   127   ar
    80    56    54    1
    81    24    23    1
    82    36    35    1
    83   102   103    1
    84    91    88    1
    85    39    38    1
    86    39    40    1
    87   105   104    2
    88    17    15   ar
    89    17    18   ar
    90    90    89    2
    91    37    35    1
    92   104   103    1
    93   103   106    1
    94    55    53    1
    95    35    34    2
    96    15    13   ar
    97    50    53    1
    98    50    51    1
    99    50    49    1
   100    18    16   ar
   101    40    41    2
   102    54    53    1
   103    23    21   am
   104    30    29    2
   105    89    88    1
   106    22    21    2
   107    51    52    2
   108    88    87    1
   109    79    77    1
   110    21    20    1
   111    34    33    1
   112    78    77    1
   113    77    74    1
   114    13    12    1
   115    13    14   ar
   116    33    32    1
   117    87    82   am
   118    29    28    1
   119    16    14   ar
   120    11    10    2
   121    32    31    1
   122    85    86    1
   123    85    84    1
   124    57    58    1
   125    31    28    1
   126    12     9    1
   127    60    59    2
   128    86    80    1
   129    10    19   am
   130    10     9    1
   131    58    59    1
   132    58    61    1
   133    20    19    1
   134    82    83    2
   135    82    81    1
   136    28    27    1
   137    80    75   am
   138    80    81    1
   139    84    81    1
   140    74    75    1
   141    74    73    1
   142    64    62    1
   143     9     8    1
   144    75    76    2
   145    62    61    1
   146    62    63    1
   147    69    70    1
   148    69    66    1
   149    70    71   ar
   150    70    72   ar
   151    65    66    1
   152    66    67    1
   153     5     2    1
   154     5     6    1
   155    68    67    2
   156     2     1    1
   157     2     3    1
   158     1     7    1
   159     6     7    1
   160     3     4    2
