@<TRIPOS>MOLECULE
tmp/5jrhA01.pdb
 158 151 0 0 0
SMALL
GASTEIGER

@<TRIPOS>ATOM
      1  N         20.4910    0.0610    4.5710 N.3   306  VAL306     -0.1245
      2  CA        20.2960   -0.8010    3.4020 C.3   306  VAL306      0.1561
      3  C         19.1840   -0.2750    2.4860 C.2   306  VAL306      0.2260
      4  O         19.2830   -0.4070    1.2790 O.2   306  VAL306     -0.2867
      5  CB        20.0140   -2.2720    3.7980 C.3   306  VAL306      0.0252
      6  CG1       18.6190   -2.4360    4.4360 C.3   306  VAL306      0.0019
      7  CG2       20.1790   -3.2010    2.5770 C.3   306  VAL306      0.0019
      8  N          5.7960    1.9530    3.1340 N.3   381  SER381     -0.1217
      9  CA         6.3330    2.0380    4.4820 C.3   381  SER381      0.1889
     10  C          7.4920    1.0660    4.6600 C.2   381  SER381      0.2288
     11  O          7.3830   -0.1000    4.2870 O.2   381  SER381     -0.2866
     12  CB         5.2310    1.7200    5.4960 C.3   381  SER381      0.2089
     13  OG         5.6950    1.8350    6.8240 O.3   381  SER381     -0.2183
     14  N         10.9710   -0.3880    7.1820 N.3   383  GLY383     -0.1210
     15  CA        12.0470   -0.4220    8.1640 C.3   383  GLY383      0.1956
     16  C         11.7050   -0.7960    9.5890 C.2   383  GLY383      0.2612
     17  O         12.5970   -0.9510   10.4160 O.2   383  GLY383     -0.2717
     18  N         10.4180   -0.9320    9.8800 N.am  384  GLU384     -0.1966
     19  CA         9.9630   -1.2130   11.2360 C.3   384  GLU384      0.1718
     20  C          8.4790   -1.5430   11.1980 C.2   384  GLU384      0.2458
     21  O          7.8120   -1.2900   10.1930 O.2   384  GLU384     -0.2730
     22  CB        10.2220   -0.0130   12.1610 C.3   384  GLU384      0.0428
     23  CG         9.5860    1.2540   11.6610 C.3   384  GLU384      0.1163
     24  CD         9.9770    2.4910   12.4570 C.2   384  GLU384      0.3649
     25  OE1        9.8890    2.4490   13.7040 O.co2 384  GLU384     -0.2457
     26  OE2       10.3660    3.4980   11.8320 O.co2 384  GLU384     -0.2457
     27  N          7.9530   -2.1170   12.2880 N.am  385  PRO385     -0.2727
     28  CA         6.5160   -2.3800   12.3140 C.3   385  PRO385      0.1402
     29  C          5.7280   -1.0800   12.2080 C.2   385  PRO385      0.2269
     30  O          6.1910   -0.0410   12.6640 O.2   385  PRO385     -0.2865
     31  CB         6.3060   -3.0490   13.6790 C.3   385  PRO385      0.0296
     32  CG         7.6360   -3.6230   14.0220 C.3   385  PRO385      0.0237
     33  CD         8.6380   -2.6640   13.4750 C.3   385  PRO385      0.0939
     34  N          3.5780   -1.9780    2.5630 N.3   407  ASP407     -0.1225
     35  CA         4.3070   -2.1880    3.8080 C.3   407  ASP407      0.1805
     36  C          5.2980   -3.3120    3.5600 C.2   407  ASP407      0.2598
     37  O          4.9300   -4.4910    3.5590 O.2   407  ASP407     -0.2718
     38  CB         3.3260   -2.5200    4.9430 C.3   407  ASP407      0.1424
     39  CG         4.0170   -2.9260    6.2370 C.2   407  ASP407      0.3668
     40  OD1        5.2280   -2.6630    6.4010 O.co2 407  ASP407     -0.2456
     41  OD2        3.3290   -3.4950    7.1140 O.co2 407  ASP407     -0.2456
     42  N          6.5520   -2.9450    3.3260 N.am  408  THR408     -0.1939
     43  CA         7.5560   -3.9010    2.8610 C.3   408  THR408      0.2028
     44  C          8.3690   -4.4700    4.0190 C.2   408  THR408      0.2642
     45  O          9.0900   -3.7190    4.6880 O.2   408  THR408     -0.2714
     46  CB         8.5360   -3.2370    1.8700 C.3   408  THR408      0.1808
     47  OG1        9.2180   -2.1810    2.5460 O.3   408  THR408     -0.2208
     48  CG2        7.8040   -2.6430    0.6850 C.3   408  THR408      0.0379
     49  N          8.2740   -5.7830    4.2530 N.am  409  TRP409     -0.1959
     50  CA         9.1670   -6.4130    5.2250 C.3   409  TRP409      0.1771
     51  C         10.3810   -7.0130    4.5240 C.2   409  TRP409      0.2620
     52  O         10.2370   -7.7220    3.5370 O.2   409  TRP409     -0.2715
     53  CB         8.4550   -7.5100    6.0420 C.3   409  TRP409      0.0590
     54  CG         9.4350   -8.1740    6.9820 C.ar  409  TRP409      0.0006
     55  CD1        9.8040   -7.7430    8.2240 C.ar  409  TRP409      0.0946
     56  CD2       10.2130   -9.3560    6.7200 C.ar  409  TRP409      0.0152
     57  NE1       10.7630   -8.5830    8.7530 N.ar  409  TRP409     -0.2442
     58  CE2       11.0360   -9.5730    7.8470 C.ar  409  TRP409      0.0810
     59  CE3       10.2960  -10.2430    5.6360 C.ar  409  TRP409      0.0012
     60  CZ2       11.9150  -10.6630    7.9360 C.ar  409  TRP409      0.0191
     61  CZ3       11.1770  -11.3160    5.7170 C.ar  409  TRP409      0.0001
     62  CH2       11.9770  -11.5170    6.8640 C.ar  409  TRP409      0.0015
     63  N         11.5640   -6.7290    5.0650 N.am  410  TRP410     -0.1960
     64  CA        12.8250   -7.2740    4.5850 C.3   410  TRP410      0.1771
     65  C         13.9080   -6.8580    5.5660 C.2   410  TRP410      0.2620
     66  O         13.6060   -6.2400    6.5860 O.2   410  TRP410     -0.2715
     67  CB        13.1340   -6.8040    3.1630 C.3   410  TRP410      0.0590
     68  CG        13.3330   -5.3210    2.9920 C.ar  410  TRP410      0.0006
     69  CD1       12.4080   -4.3330    3.1850 C.ar  410  TRP410      0.0946
     70  CD2       14.5280   -4.6700    2.5360 C.ar  410  TRP410      0.0152
     71  NE1       12.9630   -3.1010    2.9020 N.ar  410  TRP410     -0.2442
     72  CE2       14.2600   -3.2840    2.4960 C.ar  410  TRP410      0.0810
     73  CE3       15.7970   -5.1280    2.1550 C.ar  410  TRP410      0.0012
     74  CZ2       15.2180   -2.3490    2.0990 C.ar  410  TRP410      0.0191
     75  CZ3       16.7410   -4.2020    1.7540 C.ar  410  TRP410      0.0001
     76  CH2       16.4500   -2.8340    1.7290 C.ar  410  TRP410      0.0015
     77  N         15.1590   -7.2250    5.2890 N.am  411  GLN411     -0.1963
     78  CA        16.2580   -6.9710    6.2300 C.3   411  GLN411      0.1733
     79  C         17.5480   -6.6810    5.5010 C.2   411  GLN411      0.2617
     80  O         17.6640   -6.9560    4.3140 O.2   411  GLN411     -0.2715
     81  CB        16.4920   -8.1730    7.1500 C.3   411  GLN411      0.0408
     82  CG        15.2190   -8.7600    7.7220 C.3   411  GLN411      0.0908
     83  CD        15.4880   -9.9060    8.6680 C.2   411  GLN411      0.2608
     84  OE1       16.1240  -10.8930    8.3000 O.2   411  GLN411     -0.2717
     85  NE2       15.0480   -9.7600    9.9120 N.am  411  GLN411     -0.0878
     86  N         18.5320   -6.1490    6.2230 N.am  412  THR412     -0.1951
     87  CA        19.8340   -5.8800    5.6070 C.3   412  THR412      0.1897
     88  C         20.3740   -7.1470    4.9520 C.2   412  THR412      0.2313
     89  O         20.9310   -7.1110    3.8470 O.2   412  THR412     -0.2863
     90  CB        20.8280   -5.3500    6.6400 C.3   412  THR412      0.1794
     91  OG1       20.3020   -4.1480    7.2110 O.3   412  THR412     -0.2208
     92  CG2       22.1930   -5.0360    5.9910 C.3   412  THR412      0.0378
     93  N          2.2580   -6.8670    6.1420 N.3   433  ALA433     -0.1245
     94  CA         3.1360   -6.9510    4.9690 C.3   433  ALA433      0.1562
     95  C          2.5150   -7.7920    3.8450 C.2   433  ALA433      0.2260
     96  O          2.9360   -7.7050    2.6980 O.2   433  ALA433     -0.2867
     97  CB         4.5080   -7.5140    5.3610 C.3   433  ALA433      0.0290
     98  N         13.0850  -12.2230   13.4090 N.3   496  ASP496     -0.1239
     99  CA        11.7670  -11.6000   13.5730 C.3   496  ASP496      0.1674
    100  C         10.7050  -12.6300   13.9180 C.2   496  ASP496      0.2266
    101  O         10.8270  -13.8030   13.5670 O.2   496  ASP496     -0.2867
    102  CB        11.3330  -10.8670   12.2970 C.3   496  ASP496      0.1410
    103  CG        11.6200   -9.3790   12.3450 C.2   496  ASP496      0.3668
    104  OD1       11.4870   -8.7750   13.4320 O.co2 496  ASP496     -0.2456
    105  OD2       11.9710   -8.8060   11.2960 O.co2 496  ASP496     -0.2456
    106  N          4.1810   -8.8730   10.7710 N.3   508  ILE508     -0.1245
    107  CA         5.4600   -8.9980   11.4690 C.3   508  ILE508      0.1561
    108  C          5.3650   -8.2340   12.7760 C.2   508  ILE508      0.2260
    109  O          5.0220   -7.0540   12.7890 O.2   508  ILE508     -0.2867
    110  CB         6.6500   -8.5070   10.6170 C.3   508  ILE508      0.0252
    111  CG1        6.9340   -9.4970    9.4720 C.3   508  ILE508      0.0019
    112  CG2        7.8960   -8.4580   11.4700 C.3   508  ILE508      0.0019
    113  CD1        5.9600   -9.4500    8.3220 C.3   508  ILE508      0.0001
    114  N          7.7620   -7.9540   15.3840 N.3   510  GLY510     -0.1210
    115  CA         8.9660   -7.3820   15.9730 C.3   510  GLY510      0.1956
    116  C         10.0540   -8.4230   16.1580 C.2   510  GLY510      0.2611
    117  O          9.8140   -9.6160   15.9650 O.2   510  GLY510     -0.2717
    118  N         11.2540   -7.9770   16.5310 N.am  511  ARG511     -0.1979
    119  CA        12.3560   -8.9060   16.7470 C.3   511  ARG511      0.1597
    120  C         12.0710   -9.8200   17.9220 C.2   511  ARG511      0.2287
    121  O         11.4710   -9.4050   18.9230 O.2   511  ARG511     -0.2864
    122  CB        13.6840   -8.1710   16.9970 C.3   511  ARG511      0.0334
    123  CG        14.1300   -7.1910   15.8950 C.3   511  ARG511      0.0492
    124  CD        14.4930   -7.8970   14.5910 C.3   511  ARG511      0.2205
    125  NE        15.7000   -8.7160   14.7000 N.pl3 511  ARG511     -0.0865
    126  CZ        16.5850   -8.8880   13.7190 C.cat 511  ARG511      0.5346
    127  NH1       16.4130   -8.2940   12.5390 N.pl3 511  ARG511      0.1354
    128  NH2       17.6410   -9.6570   13.9210 N.pl3 511  ARG511      0.1354
    129  N         17.7360   -7.7320   19.2630 N.3   515  VAL515     -0.1245
    130  CA        17.9380   -6.5660   18.4110 C.3   515  VAL515      0.1561
    131  C         16.8310   -5.5470   18.6610 C.2   515  VAL515      0.2260
    132  O         15.6550   -5.8980   18.7280 O.2   515  VAL515     -0.2867
    133  CB        17.9880   -6.9840   16.9290 C.3   515  VAL515      0.0252
    134  CG1       17.9780   -5.7810   16.0180 C.3   515  VAL515      0.0019
    135  CG2       19.2290   -7.8470   16.6720 C.3   515  VAL515      0.0019
    136  N         14.9230   -1.7710   17.6750 N.3   517  ASN517     -0.1240
    137  CA        14.5870   -0.9520   16.5110 C.3   517  ASN517      0.1653
    138  C         14.0970    0.4010   17.0140 C.2   517  ASN517      0.2266
    139  O         12.9410    0.5690   17.4120 O.2   517  ASN517     -0.2867
    140  CB        13.5500   -1.6600   15.6280 C.3   517  ASN517      0.1155
    141  CG        13.3930   -0.9990   14.2610 C.2   517  ASN517      0.2627
    142  OD1       13.5320    0.2150   14.1400 O.2   517  ASN517     -0.2716
    143  ND2       13.0890   -1.7960   13.2270 N.am  517  ASN517     -0.0877
    144  N         13.7270    3.2650   13.5570 N.3   520  GLY520     -0.1225
    145  CA        14.1620    2.6380   12.3170 C.3   520  GLY520      0.1811
    146  C         15.6280    2.2320   12.3450 C.2   520  GLY520      0.2280
    147  O         16.1380    1.6230   11.4030 O.2   520  GLY520     -0.2866
    148  N         18.4720   -0.0580   13.6590 N.3   522  ARG522     -0.1245
    149  CA        18.7400   -1.3810   14.2000 C.3   522  ARG522      0.1563
    150  C         19.9600   -1.3400   15.1130 C.2   522  ARG522      0.2260
    151  O         21.0670   -1.0210   14.6600 O.2   522  ARG522     -0.2867
    152  CB        18.9550   -2.3720   13.0440 C.3   522  ARG522      0.0307
    153  CG        19.3560   -3.7650   13.4640 C.3   522  ARG522      0.0489
    154  CD        19.4060   -4.6900   12.2400 C.3   522  ARG522      0.2205
    155  NE        20.0980   -5.9460   12.5300 N.pl3 522  ARG522     -0.0865
    156  CZ        20.1130   -6.9960   11.7170 C.cat 522  ARG522      0.5346
    157  NH1       19.4430   -6.9710   10.5650 N.pl3 522  ARG522      0.1354
    158  NH2       20.7950   -8.0850   12.0550 N.pl3 522  ARG522      0.1354
@<TRIPOS>BOND
     1    48    46    1
     2     4     3    2
     3    76    75   ar
     4    76    74   ar
     5    75    73   ar
     6    46    47    1
     7    46    43    1
     8    74    72   ar
     9    73    70   ar
    10     3     2    1
    11    72    70   ar
    12    72    71   ar
    13    70    68   ar
    14    34    35    1
    15     7     5    1
    16    96    95    2
    17    43    42    1
    18    43    44    1
    19    71    69   ar
    20    68    67    1
    21    68    69   ar
    22     8     9    1
    23    67    64    1
    24    42    36   am
    25     2     5    1
    26     2     1    1
    27    52    51    2
    28    37    36    2
    29    36    35    1
    30     5     6    1
    31    35    38    1
    32    95    94    1
    33    89    88    2
    34    44    49   am
    35    44    45    2
    36    49    50    1
    37    11    10    2
    38    80    79    2
    39     9    10    1
    40     9    12    1
    41    51    63   am
    42    51    50    1
    43    64    63    1
    44    64    65    1
    45    38    39    1
    46    88    87    1
    47    94    97    1
    48    94    93    1
    49    50    53    1
    50    77    65   am
    51    77    78    1
    52    12    13    1
    53    79    86   am
    54    79    78    1
    55    65    66    2
    56    87    86    1
    57    87    90    1
    58    59    61   ar
    59    59    56   ar
    60    61    62   ar
    61    92    90    1
    62    53    54    1
    63    78    81    1
    64    39    40   ar
    65    39    41   ar
    66    90    91    1
    67    56    54   ar
    68    56    58   ar
    69    62    60   ar
    70    54    55   ar
    71    81    82    1
    72    14    15    1
    73    82    83    1
    74    58    60   ar
    75    58    57   ar
    76    15    16    1
    77    55    57   ar
    78    84    83    2
    79   113   111    1
    80    83    85   am
    81   111   110    1
    82    16    18   am
    83    16    17    2
    84    18    19    1
    85    21    20    2
    86   157   156    1
    87   110   107    1
    88   110   112    1
    89   106   107    1
    90    20    19    1
    91    20    27   am
    92    19    22    1
    93   105   103   ar
    94   147   146    2
    95   107   108    1
    96    23    22    1
    97    23    24    1
    98   156   158    1
    99   156   155    2
   100    26    24   ar
   101    29    28    1
   102    29    30    2
   103   154   155    1
   104   154   153    1
   105    27    28    1
   106    27    33    1
   107   102   103    1
   108   102    99    1
   109    28    31    1
   110   145   146    1
   111   145   144    1
   112   103   104   ar
   113    24    25   ar
   114   127   126    1
   115   108   109    2
   116   152   153    1
   117   152   149    1
   118   143   141   am
   119    98    99    1
   120    33    32    1
   121   101   100    2
   122    99   100    1
   123   148   149    1
   124    31    32    1
   125   126   128    1
   126   126   125    2
   127   142   141    2
   128   149   150    1
   129   141   140    1
   130   124   125    1
   131   124   123    1
   132   151   150    2
   133   114   115    1
   134   140   137    1
   135   123   122    1
   136   117   116    2
   137   115   116    1
   138   134   133    1
   139   116   118   am
   140   137   138    1
   141   137   136    1
   142   118   119    1
   143   135   133    1
   144   119   122    1
   145   119   120    1
   146   133   130    1
   147   138   139    2
   148   120   121    2
   149   130   131    1
   150   130   129    1
   151   131   132    2
