@<TRIPOS>MOLECULE
tmp/5jrjA00.pdb
 128 123 0 0 0
SMALL
GASTEIGER

@<TRIPOS>ATOM
      1  N         37.3410   57.3900   35.0240 N.3    67  GLU67      -0.1231
      2  CA        36.0760   57.0990   34.3380 C.3    67  GLU67       0.1699
      3  C         36.3630   56.1680   33.1620 C.2    67  GLU67       0.2593
      4  O         37.4670   56.0780   32.6350 O.2    67  GLU67      -0.2718
      5  CB        35.3110   58.3710   33.8910 C.3    67  GLU67       0.0402
      6  CG        33.8140   58.0910   33.4560 C.3    67  GLU67       0.1161
      7  CD        32.7820   57.9260   34.6260 C.2    67  GLU67       0.3649
      8  OE1       32.9020   58.6990   35.5930 O.co2  67  GLU67      -0.2457
      9  OE2       31.8280   57.0560   34.5730 O.co2  67  GLU67      -0.2457
     10  N         35.3310   55.4010   32.8420 N.am   68  SER68      -0.1938
     11  CA        35.3910   54.3290   31.8500 C.3    68  SER68       0.2055
     12  C         36.4040   53.2300   32.1250 C.2    68  SER68       0.2644
     13  O         36.8410   52.5820   31.1840 O.2    68  SER68      -0.2714
     14  CB        35.6410   54.9210   30.4500 C.3    68  SER68       0.2130
     15  OG        34.7330   55.9850   30.2530 O.3    68  SER68      -0.2179
     16  N         36.7570   52.9800   33.3960 N.am   69  SER69      -0.1935
     17  CA        37.6810   51.8940   33.7010 C.3    69  SER69       0.2055
     18  C         36.9620   50.5730   33.9240 C.2    69  SER69       0.2644
     19  O         37.5750   49.5080   33.8770 O.2    69  SER69      -0.2714
     20  CB        38.5290   52.2170   34.9440 C.3    69  SER69       0.2130
     21  OG        37.6810   52.6520   35.9860 O.3    69  SER69      -0.2179
     22  N         35.6630   50.6410   34.1730 N.am   70  GLY70      -0.1939
     23  CA        34.8970   49.4230   34.3670 C.3    70  GLY70       0.2014
     24  C         34.1380   49.3650   35.6840 C.2    70  GLY70       0.2639
     25  O         33.4990   48.3390   35.9660 O.2    70  GLY70      -0.2714
     26  N         34.1420   50.4530   36.4600 N.am   71  LYS71      -0.1963
     27  CA        33.4410   50.4260   37.7650 C.3    71  LYS71       0.1728
     28  C         31.9540   50.1220   37.6350 C.2    71  LYS71       0.2617
     29  O         31.4290   49.2300   38.3150 O.2    71  LYS71      -0.2715
     30  CB        33.6170   51.7530   38.5280 C.3    71  LYS71       0.0311
     31  CG        35.0420   52.2540   38.6280 C.3    71  LYS71       0.0038
     32  CD        35.1900   53.5330   39.5010 C.3    71  LYS71       0.0206
     33  CE        34.5690   54.7870   38.8320 C.3    71  LYS71       0.1093
     34  NZ        35.0940   55.0890   37.4650 N.3    71  LYS71      -0.1314
     35  N         31.2390   50.8730   36.7980 N.am   72  THR72      -0.1937
     36  CA        29.8150   50.6650   36.6590 C.3    72  THR72       0.2028
     37  C         29.5120   49.2690   36.1160 C.2    72  THR72       0.2642
     38  O         28.6280   48.5730   36.6330 O.2    72  THR72      -0.2714
     39  CB        29.1860   51.7220   35.7290 C.3    72  THR72       0.1808
     40  OG1       29.4950   53.0220   36.2700 O.3    72  THR72      -0.2208
     41  CG2       27.6840   51.5530   35.7380 C.3    72  THR72       0.0379
     42  N         30.3360   48.8290   35.1790 N.am   73  THR73      -0.1950
     43  CA        30.2160   47.4880   34.6230 C.3    73  THR73       0.1897
     44  C         30.2750   46.4350   35.7310 C.2    73  THR73       0.2313
     45  O         29.4130   45.5500   35.8040 O.2    73  THR73      -0.2863
     46  CB        31.3320   47.2290   33.5800 C.3    73  THR73       0.1794
     47  OG1       31.0700   48.0210   32.3920 O.3    73  THR73      -0.2208
     48  CG2       31.3340   45.7950   33.1680 C.3    73  THR73       0.0378
     49  N         22.9410   53.3820   31.5990 N.3    99  ASP99      -0.1239
     50  CA        22.3760   52.9940   30.3280 C.3    99  ASP99       0.1674
     51  C         21.6910   51.6740   30.5480 C.2    99  ASP99       0.2266
     52  O         22.3470   50.6680   30.8360 O.2    99  ASP99      -0.2867
     53  CB        23.4860   52.8840   29.2600 C.3    99  ASP99       0.1410
     54  CG        22.9850   52.3710   27.9150 C.2    99  ASP99       0.3668
     55  OD1       21.9260   51.7500   27.8160 O.co2  99  ASP99      -0.2456
     56  OD2       23.6870   52.5870   26.9200 O.co2  99  ASP99      -0.2456
     57  N         22.4200   48.5660   28.2090 N.3   102  TYR102     -0.1241
     58  CA        23.6980   47.9350   28.6600 C.3   102  TYR102      0.1605
     59  C         23.4450   47.1010   29.9080 C.2   102  TYR102      0.2264
     60  O         23.8700   45.9500   29.9990 O.2   102  TYR102     -0.2867
     61  CB        24.7700   49.0070   28.9240 C.3   102  TYR102      0.0534
     62  CG        26.1550   48.4650   29.2820 C.ar  102  TYR102     -0.0201
     63  CD1       26.7180   47.3950   28.5590 C.ar  102  TYR102     -0.0009
     64  CD2       26.9100   49.0250   30.3370 C.ar  102  TYR102     -0.0009
     65  CE1       28.0020   46.9190   28.8520 C.ar  102  TYR102      0.0417
     66  CE2       28.2170   48.5360   30.6490 C.ar  102  TYR102      0.0417
     67  CZ        28.7290   47.4670   29.8920 C.ar  102  TYR102      0.1957
     68  OH        29.9740   46.9830   30.1550 O.3   102  TYR102     -0.2866
     69  N         21.8530   44.0080   28.8950 N.3   105  LYS105     -0.1245
     70  CA        22.7990   43.1040   28.2060 C.3   105  LYS105      0.1561
     71  C         23.6490   42.3710   29.2520 C.2   105  LYS105      0.2260
     72  O         24.0450   41.2210   29.0600 O.2   105  LYS105     -0.2867
     73  CB        23.7190   43.8520   27.2530 C.3   105  LYS105      0.0271
     74  CG        23.0490   44.5330   26.0480 C.3   105  LYS105      0.0035
     75  CD        24.0800   45.3820   25.2590 C.3   105  LYS105      0.0206
     76  CE        23.5820   46.8010   24.9680 C.3   105  LYS105      0.1093
     77  NZ        24.6960   47.8160   24.9310 N.3   105  LYS105     -0.1314
     78  N         34.9410   57.8320   41.8430 N.3   181  GLN181     -0.1245
     79  CA        35.7760   58.2990   40.7400 C.3   181  GLN181      0.1566
     80  C         37.1100   58.7900   41.2640 C.2   181  GLN181      0.2260
     81  O         37.1810   59.3240   42.3660 O.2   181  GLN181     -0.2867
     82  CB        35.0900   59.4360   39.9830 C.3   181  GLN181      0.0367
     83  CG        33.6260   59.1770   39.6870 C.3   181  GLN181      0.0905
     84  CD        33.4380   58.1150   38.6260 C.2   181  GLN181      0.2608
     85  OE1       34.3390   57.8730   37.8020 O.2   181  GLN181     -0.2717
     86  NE2       32.2600   57.4760   38.6250 N.am  181  GLN181     -0.0878
     87  N         36.8350   47.5480   22.8970 N.3   210  GLY210     -0.1210
     88  CA        36.9580   47.1680   24.2990 C.3   210  GLY210      0.1956
     89  C         38.2520   47.5440   24.9560 C.2   210  GLY210      0.2612
     90  O         39.1150   48.2280   24.3920 O.2   210  GLY210     -0.2717
     91  N         38.4070   47.0840   26.1900 N.am  211  SER211     -0.1952
     92  CA        39.5640   47.4920   26.9200 C.3   211  SER211      0.1924
     93  C         40.1170   46.3850   27.7600 C.2   211  SER211      0.2314
     94  O         39.3670   45.6570   28.3970 O.2   211  SER211     -0.2863
     95  CB        39.2380   48.6800   27.8020 C.3   211  SER211      0.2116
     96  OG        40.4360   49.1330   28.3740 O.3   211  SER211     -0.2180
     97  N         37.0990   43.9600   29.0070 N.3   233  ILE233     -0.1231
     98  CA        35.7480   44.4730   28.9850 C.3   233  ILE233      0.1692
     99  C         35.4080   44.9000   27.5480 C.2   233  ILE233      0.2592
    100  O         36.0780   45.7480   26.9590 O.2   233  ILE233     -0.2718
    101  CB        35.5670   45.6530   29.9240 C.3   233  ILE233      0.0266
    102  CG1       35.7270   45.1890   31.3730 C.3   233  ILE233      0.0019
    103  CG2       34.1620   46.2480   29.7450 C.3   233  ILE233      0.0020
    104  CD1       35.4790   46.2870   32.4030 C.3   233  ILE233      0.0001
    105  N         34.3660   44.2970   27.0010 N.am  234  LEU234     -0.1966
    106  CA        33.9760   44.6010   25.6230 C.3   234  LEU234      0.1728
    107  C         32.7820   45.5250   25.6540 C.2   234  LEU234      0.2616
    108  O         31.8380   45.2860   26.3930 O.2   234  LEU234     -0.2715
    109  CB        33.6430   43.3200   24.8570 C.3   234  LEU234      0.0311
    110  CG        34.8350   42.3800   24.6050 C.3   234  LEU234      0.0022
    111  CD1       34.4660   41.2140   23.7000 C.3   234  LEU234      0.0001
    112  CD2       36.0080   43.1660   24.0300 C.3   234  LEU234      0.0001
    113  N         32.8140   46.5590   24.8210 N.am  235  TYR235     -0.1960
    114  CA        31.6620   47.4280   24.6430 C.3   235  TYR235      0.1771
    115  C         30.4020   46.6240   24.4150 C.2   235  TYR235      0.2620
    116  O         30.3620   45.7300   23.5580 O.2   235  TYR235     -0.2715
    117  CB        31.8900   48.3870   23.4610 C.3   235  TYR235      0.0574
    118  CG        30.7450   49.3820   23.2840 C.ar  235  TYR235     -0.0198
    119  CD1       29.5940   49.0380   22.5750 C.ar  235  TYR235     -0.0009
    120  CD2       30.8160   50.6480   23.8380 C.ar  235  TYR235     -0.0009
    121  CE1       28.5450   49.9370   22.4290 C.ar  235  TYR235      0.0417
    122  CE2       29.7860   51.5560   23.6900 C.ar  235  TYR235      0.0417
    123  CZ        28.6540   51.2020   22.9880 C.ar  235  TYR235      0.1957
    124  OH        27.6340   52.1210   22.8670 O.3   235  TYR235     -0.2866
    125  N         29.3660   46.9020   25.2080 N.am  236  GLY236     -0.1954
    126  CA        28.1330   46.1880   25.0520 C.3   236  GLY236      0.1869
    127  C         28.0420   44.8100   25.6670 C.2   236  GLY236      0.2309
    128  O         26.9610   44.2300   25.6590 O.2   236  GLY236     -0.2863
@<TRIPOS>BOND
     1   121   119   ar
     2   121   123   ar
     3   119   118   ar
     4   124   123    1
     5    87    88    1
     6   123   122   ar
     7   118   117    1
     8   118   120   ar
     9   117   114    1
    10   116   115    2
    11   122   120   ar
    12   111   110    1
    13   112   110    1
    14    88    89    1
    15    90    89    2
    16   115   114    1
    17   115   125   am
    18   110   109    1
    19   114   113    1
    20   113   107   am
    21   109   106    1
    22    77    76    1
    23    89    91   am
    24    76    75    1
    25   126   125    1
    26   126   127    1
    27    75    74    1
    28   106   107    1
    29   106   105    1
    30   107   108    2
    31   128   127    2
    32    74    73    1
    33    91    92    1
    34    56    54   ar
    35    92    93    1
    36    92    95    1
    37   100    99    2
    38   105    99   am
    39    73    70    1
    40    99    98    1
    41    93    94    2
    42    95    96    1
    43    55    54   ar
    44    54    53    1
    45    70    69    1
    46    70    71    1
    47    57    58    1
    48    63    65   ar
    49    63    62   ar
    50    58    61    1
    51    58    59    1
    52    65    67   ar
    53    61    62    1
    54    98    97    1
    55    98   101    1
    56    72    71    2
    57    53    50    1
    58    62    64   ar
    59   103   101    1
    60    67    68    1
    61    67    66   ar
    62    59    60    2
    63   101   102    1
    64    15    14    1
    65    50    51    1
    66    50    49    1
    67    64    66   ar
    68    14    11    1
    69    51    52    2
    70    13    12    2
    71   102   104    1
    72    11    12    1
    73    11    10    1
    74    12    16   am
    75    47    46    1
    76     4     3    2
    77    10     3   am
    78     3     2    1
    79    48    46    1
    80    16    17    1
    81     6     5    1
    82     6     7    1
    83    46    43    1
    84    17    18    1
    85    17    20    1
    86    19    18    2
    87     5     2    1
    88    18    22   am
    89    22    23    1
    90     2     1    1
    91    23    24    1
    92     9     7   ar
    93    43    42    1
    94    43    44    1
    95     7     8   ar
    96    20    21    1
    97    42    37   am
    98    24    25    2
    99    24    26   am
   100    39    41    1
   101    39    40    1
   102    39    36    1
   103    44    45    2
   104    37    38    2
   105    37    36    1
   106    26    27    1
   107    36    35    1
   108    35    28   am
   109    34    33    1
   110    28    27    1
   111    28    29    2
   112    27    30    1
   113    85    84    2
   114    30    31    1
   115    86    84   am
   116    84    83    1
   117    31    32    1
   118    33    32    1
   119    83    82    1
   120    82    79    1
   121    79    80    1
   122    79    78    1
   123    80    81    2
