@<TRIPOS>MOLECULE
tmp/5jrkA00.pdb
 84 83 0 0 0
SMALL
GASTEIGER

@<TRIPOS>ATOM
      1  N         95.0160   22.2810  128.2160 N.3    19  ILE19      -0.1231
      2  CA        95.9830   21.2530  128.5780 C.3    19  ILE19       0.1692
      3  C         95.2160   19.9880  128.9320 C.2    19  ILE19       0.2592
      4  O         94.1550   20.0440  129.5600 O.2    19  ILE19      -0.2718
      5  CB        96.8960   21.7300  129.7280 C.3    19  ILE19       0.0266
      6  CG1       97.9050   20.6500  130.1100 C.3    19  ILE19       0.0019
      7  CG2       96.0740   22.1630  130.9290 C.3    19  ILE19       0.0020
      8  CD1       98.9380   21.1210  131.1020 C.3    19  ILE19       0.0001
      9  N         95.7480   18.8430  128.5110 N.am   20  ALA20      -0.1966
     10  CA        95.0790   17.5660  128.6920 C.3    20  ALA20       0.1728
     11  C         96.1120   16.4910  128.9850 C.2    20  ALA20       0.2616
     12  O         97.2720   16.5940  128.5810 O.2    20  ALA20      -0.2715
     13  CB        94.2560   17.1760  127.4590 C.3    20  ALA20       0.0334
     14  N         95.6740   15.4530  129.6900 N.am   21  LEU21      -0.1977
     15  CA        96.5440   14.3750  130.1280 C.3    21  LEU21       0.1596
     16  C         95.9320   13.0420  129.7300 C.2    21  LEU21       0.2287
     17  O         94.7080   12.8760  129.7630 O.2    21  LEU21      -0.2864
     18  CB        96.7620   14.4300  131.6440 C.3    21  LEU21       0.0297
     19  CG        97.7850   13.4770  132.2600 C.3    21  LEU21       0.0022
     20  CD1       99.1830   13.8070  131.7780 C.3    21  LEU21       0.0001
     21  CD2       97.7140   13.5360  133.7740 C.3    21  LEU21       0.0001
     22  N         89.9840   20.7660  124.5470 N.3    68  LEU68      -0.1231
     23  CA        90.9620   19.7000  124.3830 C.3    68  LEU68       0.1693
     24  C         90.7420   18.6470  125.4610 C.2    68  LEU68       0.2592
     25  O         90.8740   18.9360  126.6550 O.2    68  LEU68      -0.2718
     26  CB        92.3820   20.2550  124.4580 C.3    68  LEU68       0.0284
     27  CG        93.4990   19.2180  124.4150 C.3    68  LEU68       0.0019
     28  CD1       93.4530   18.4540  123.1080 C.3    68  LEU68       0.0001
     29  CD2       94.8500   19.8810  124.6080 C.3    68  LEU68       0.0001
     30  N         90.4080   17.4310  125.0400 N.am   69  ARG69      -0.1966
     31  CA        90.1090   16.3450  125.9600 C.3    69  ARG69       0.1729
     32  C         90.7460   15.0640  125.4470 C.2    69  ARG69       0.2616
     33  O         91.1410   14.9650  124.2830 O.2    69  ARG69      -0.2715
     34  CB        88.5970   16.1510  126.1240 C.3    69  ARG69       0.0348
     35  CG        87.8590   17.4030  126.5420 C.3    69  ARG69       0.0492
     36  CD        86.3740   17.2810  126.2980 C.3    69  ARG69       0.2205
     37  NE        85.7020   18.5610  126.4760 N.pl3  69  ARG69      -0.0865
     38  CZ        84.4180   18.7680  126.2160 C.cat  69  ARG69       0.5346
     39  NH1       83.6640   17.7780  125.7670 N.pl3  69  ARG69       0.1354
     40  NH2       83.8870   19.9660  126.4050 N.pl3  69  ARG69       0.1354
     41  N         90.8470   14.0780  126.3340 N.am   70  SER70      -0.1950
     42  CA        91.3080   12.7520  125.9560 C.3    70  SER70       0.1924
     43  C         90.1040   11.8780  125.6360 C.2    70  SER70       0.2314
     44  O         89.1250   11.8610  126.3870 O.2    70  SER70      -0.2863
     45  CB        92.1450   12.1230  127.0680 C.3    70  SER70       0.2116
     46  OG        91.3900   11.9930  128.2580 O.3    70  SER70      -0.2180
     47  N         87.8080   22.4140  138.3310 N.3   298  TRP298     -0.1227
     48  CA        87.3700   21.3830  139.2580 C.3   298  TRP298      0.1737
     49  C         87.2280   20.0650  138.5140 C.2   298  TRP298      0.2595
     50  O         86.7950   20.0410  137.3600 O.2   298  TRP298     -0.2718
     51  CB        86.0450   21.7770  139.9190 C.3   298  TRP298      0.0564
     52  CG        85.2190   20.6220  140.3760 C.ar  298  TRP298      0.0003
     53  CD1       85.2520   20.0240  141.5980 C.ar  298  TRP298      0.0946
     54  CD2       84.2250   19.9290  139.6160 C.ar  298  TRP298      0.0152
     55  NE1       84.3420   18.9970  141.6460 N.ar  298  TRP298     -0.2442
     56  CE2       83.6990   18.9180  140.4400 C.ar  298  TRP298      0.0810
     57  CE3       83.7310   20.0620  138.3160 C.ar  298  TRP298      0.0012
     58  CZ2       82.7060   18.0470  140.0070 C.ar  298  TRP298      0.0191
     59  CZ3       82.7430   19.1960  137.8900 C.ar  298  TRP298      0.0001
     60  CH2       82.2410   18.2030  138.7330 C.ar  298  TRP298      0.0015
     61  N         87.5920   18.9740  139.1830 N.am  299  LYS299     -0.1980
     62  CA        87.3880   17.6420  138.6350 C.3   299  LYS299      0.1596
     63  C         87.1240   16.6700  139.7740 C.2   299  LYS299      0.2287
     64  O         87.7190   16.7820  140.8490 O.2   299  LYS299     -0.2864
     65  CB        88.5900   17.1710  137.8080 C.3   299  LYS299      0.0298
     66  CG        88.3440   15.8540  137.0840 C.3   299  LYS299      0.0038
     67  CD        89.5070   15.4630  136.1930 C.3   299  LYS299      0.0206
     68  CE        89.1920   14.1940  135.4190 C.3   299  LYS299      0.1093
     69  NZ        90.2960   13.8130  134.4970 N.3   299  LYS299     -0.1314
     70  N         95.7410   19.7020  134.3370 N.3   342  GLY342     -0.1210
     71  CA        95.0330   18.5710  133.7630 C.3   342  GLY342      0.1956
     72  C         95.3060   17.3450  134.6000 C.2   342  GLY342      0.2611
     73  O         96.3380   17.2480  135.2710 O.2   342  GLY342     -0.2717
     74  N         94.3760   16.3950  134.5570 N.am  343  PHE343     -0.1976
     75  CA        94.3670   15.2920  135.5040 C.3   343  PHE343      0.1639
     76  C         94.1150   13.9740  134.7880 C.2   343  PHE343      0.2290
     77  O         93.5100   13.9350  133.7140 O.2   343  PHE343     -0.2864
     78  CB        93.3000   15.5000  136.5850 C.3   343  PHE343      0.0560
     79  CG        93.2700   16.8920  137.1420 C.ar  343  PHE343     -0.0200
     80  CD1       94.1640   17.2770  138.1250 C.ar  343  PHE343     -0.0042
     81  CD2       92.3490   17.8150  136.6830 C.ar  343  PHE343     -0.0042
     82  CE1       94.1410   18.5560  138.6380 C.ar  343  PHE343     -0.0003
     83  CE2       92.3200   19.0960  137.1920 C.ar  343  PHE343     -0.0003
     84  CZ        93.2180   19.4670  138.1720 C.ar  343  PHE343     -0.0000
@<TRIPOS>BOND
     1    28    27    1
     2    33    32    2
     3    23    26    1
     4    23    22    1
     5    23    24    1
     6    27    26    1
     7    27    29    1
     8    30    24   am
     9    30    31    1
    10    32    31    1
    11    32    41   am
    12    24    25    2
    13    43    42    1
    14    43    44    2
    15    39    38    1
    16    42    41    1
    17    42    45    1
    18    31    34    1
    19    34    35    1
    20    38    40    1
    21    38    37    2
    22    36    37    1
    23    36    35    1
    24    45    46    1
    25    13    10    1
    26     1     2    1
    27     9    10    1
    28     9     3   am
    29     2     3    1
    30     2     5    1
    31    12    11    2
    32    10    11    1
    33     3     4    2
    34    11    14   am
    35    14    15    1
    36     5     6    1
    37     5     7    1
    38    16    17    2
    39    16    15    1
    40     6     8    1
    41    15    18    1
    42    18    19    1
    43    20    19    1
    44    19    21    1
    45    77    76    2
    46    71    70    1
    47    71    72    1
    48    69    68    1
    49    74    72   am
    50    74    75    1
    51    72    73    2
    52    76    75    1
    53    68    67    1
    54    75    78    1
    55    67    66    1
    56    78    79    1
    57    81    79   ar
    58    81    83   ar
    59    66    65    1
    60    79    80   ar
    61    83    84   ar
    62    50    49    2
    63    65    62    1
    64    59    57   ar
    65    59    60   ar
    66    80    82   ar
    67    84    82   ar
    68    57    54   ar
    69    47    48    1
    70    49    61   am
    71    49    48    1
    72    62    61    1
    73    62    63    1
    74    60    58   ar
    75    48    51    1
    76    54    52   ar
    77    54    56   ar
    78    63    64    2
    79    51    52    1
    80    58    56   ar
    81    52    53   ar
    82    56    55   ar
    83    53    55   ar
