@<TRIPOS>MOLECULE
tmp/5jrkB00.pdb
 85 79 0 0 0
SMALL
GASTEIGER

@<TRIPOS>ATOM
      1  N         47.8460   79.9430   81.9440 N.3   319  ARG319     -0.1231
      2  CA        46.6170   79.3390   82.4430 C.3   319  ARG319      0.1694
      3  C         46.6340   77.8420   82.1600 C.2   319  ARG319      0.2592
      4  O         46.7830   77.4240   81.0070 O.2   319  ARG319     -0.2718
      5  CB        45.4000   79.9900   81.7910 C.3   319  ARG319      0.0321
      6  CG        45.4240   81.5080   81.7820 C.3   319  ARG319      0.0489
      7  CD        44.3090   82.0580   80.9050 C.3   319  ARG319      0.2205
      8  NE        44.4090   83.5030   80.7220 N.pl3 319  ARG319     -0.0865
      9  CZ        43.6570   84.2010   79.8770 C.cat 319  ARG319      0.5346
     10  NH1       43.8150   85.5130   79.7730 N.pl3 319  ARG319      0.1354
     11  NH2       42.7480   83.5860   79.1330 N.pl3 319  ARG319      0.1354
     12  N         46.4780   77.0360   83.2070 N.am  320  ALA320     -0.1966
     13  CA        46.4290   75.5890   83.0710 C.3   320  ALA320      0.1728
     14  C         45.3520   75.0400   83.9920 C.2   320  ALA320      0.2616
     15  O         45.2380   75.4610   85.1460 O.2   320  ALA320     -0.2715
     16  CB        47.7820   74.9470   83.3970 C.3   320  ALA320      0.0334
     17  N         44.5620   74.0970   83.4750 N.am  321  ASP321     -0.1971
     18  CA        43.4790   73.5240   84.2640 C.3   321  ASP321      0.1709
     19  C         43.9830   72.5680   85.3360 C.2   321  ASP321      0.2293
     20  O         43.2400   72.2580   86.2720 O.2   321  ASP321     -0.2864
     21  CB        42.4860   72.8070   83.3500 C.3   321  ASP321      0.1436
     22  CG        41.8860   73.7290   82.3090 C.2   321  ASP321      0.3671
     23  OD1       40.6770   73.6050   82.0260 O.co2 321  ASP321     -0.2456
     24  OD2       42.6270   74.5790   81.7710 O.co2 321  ASP321     -0.2456
     25  N         51.0460   66.8430   83.0020 N.3   339  GLU339     -0.1245
     26  CA        49.8750   67.4570   83.6100 C.3   339  GLU339      0.1567
     27  C         49.2070   66.4600   84.5440 C.2   339  GLU339      0.2260
     28  O         48.8950   65.3360   84.1400 O.2   339  GLU339     -0.2867
     29  CB        48.8890   67.9260   82.5400 C.3   339  GLU339      0.0388
     30  CG        47.7450   68.7650   83.0750 C.3   339  GLU339      0.1160
     31  CD        46.8060   69.2430   81.9850 C.2   339  GLU339      0.3649
     32  OE1       46.5530   68.4750   81.0340 O.co2 339  GLU339     -0.2457
     33  OE2       46.3240   70.3910   82.0770 O.co2 339  GLU339     -0.2457
     34  N         43.3350   63.7350   88.8170 N.3   343  ARG343     -0.1245
     35  CA        43.6840   63.6570   87.4050 C.3   343  ARG343      0.1563
     36  C         44.9650   62.8580   87.2230 C.2   343  ARG343      0.2260
     37  O         46.0270   63.2820   87.7030 O.2   343  ARG343     -0.2867
     38  CB        43.8400   65.0620   86.8220 C.3   343  ARG343      0.0307
     39  CG        43.9910   65.1120   85.3120 C.3   343  ARG343      0.0489
     40  CD        43.8930   66.5400   84.7830 C.3   343  ARG343      0.2205
     41  NE        42.5120   67.0020   84.6530 N.pl3 343  ARG343     -0.0865
     42  CZ        41.8620   67.7090   85.5730 C.cat 343  ARG343      0.5346
     43  NH1       40.6080   68.0840   85.3600 N.pl3 343  ARG343      0.1354
     44  NH2       42.4620   68.0450   86.7070 N.pl3 343  ARG343      0.1354
     45  N         49.2780   63.0500   82.5580 N.3   346  ARG346     -0.1245
     46  CA        49.1380   63.1950   81.1200 C.3   346  ARG346      0.1563
     47  C         50.3530   63.9190   80.5650 C.2   346  ARG346      0.2260
     48  O         51.1040   64.5690   81.2940 O.2   346  ARG346     -0.2867
     49  CB        47.8700   63.9700   80.7450 C.3   346  ARG346      0.0307
     50  CG        46.6030   63.1490   80.7730 C.3   346  ARG346      0.0489
     51  CD        45.4770   63.8940   80.0880 C.3   346  ARG346      0.2205
     52  NE        44.2890   63.0630   79.9430 N.pl3 346  ARG346     -0.0865
     53  CZ        44.1090   62.1840   78.9640 C.cat 346  ARG346      0.5346
     54  NH1       45.0450   62.0160   78.0390 N.pl3 346  ARG346      0.1354
     55  NH2       42.9950   61.4690   78.9100 N.pl3 346  ARG346      0.1354
     56  N         51.3740   66.8740   77.8890 N.3   348  VAL348     -0.1245
     57  CA        50.8930   68.0180   77.1290 C.3   348  VAL348      0.1561
     58  C         52.0970   68.8000   76.6270 C.2   348  VAL348      0.2260
     59  O         53.1400   68.8620   77.2850 O.2   348  VAL348     -0.2867
     60  CB        49.9560   68.9270   77.9620 C.3   348  VAL348      0.0252
     61  CG1       48.7120   68.1660   78.3940 C.3   348  VAL348      0.0019
     62  CG2       50.6820   69.4880   79.1680 C.3   348  VAL348      0.0019
     63  N         47.8020   75.0060   75.1900 N.3   357  ILE357     -0.1231
     64  CA        48.0800   73.6790   75.7260 C.3   357  ILE357      0.1692
     65  C         47.4430   72.6480   74.8090 C.2   357  ILE357      0.2593
     66  O         46.2940   72.8060   74.3780 O.2   357  ILE357     -0.2718
     67  CB        47.5520   73.5350   77.1650 C.3   357  ILE357      0.0266
     68  CG1       47.8730   74.7850   77.9810 C.3   357  ILE357      0.0019
     69  CG2       48.1550   72.3090   77.8300 C.3   357  ILE357      0.0020
     70  CD1       49.3470   75.0100   78.1870 C.3   357  ILE357      0.0001
     71  N         48.1860   71.5860   74.5130 N.am  358  THR358     -0.1939
     72  CA        47.7260   70.5350   73.6160 C.3   358  THR358      0.2028
     73  C         47.9460   69.1900   74.2870 C.2   358  THR358      0.2642
     74  O         49.0700   68.8700   74.6850 O.2   358  THR358     -0.2714
     75  CB        48.4610   70.5960   72.2760 C.3   358  THR358      0.1808
     76  OG1       48.2650   71.8870   71.6850 O.3   358  THR358     -0.2208
     77  CG2       47.9340   69.5280   71.3340 C.3   358  THR358      0.0379
     78  N         46.8800   68.4050   74.4060 N.am  359  ASP359     -0.1971
     79  CA        46.9510   67.1130   75.0750 C.3   359  ASP359      0.1709
     80  C         47.6090   66.0900   74.1560 C.2   359  ASP359      0.2293
     81  O         47.1360   65.8540   73.0390 O.2   359  ASP359     -0.2864
     82  CB        45.5520   66.6540   75.4800 C.3   359  ASP359      0.1436
     83  CG        45.5780   65.4820   76.4340 C.2   359  ASP359      0.3671
     84  OD1       45.6700   64.3300   75.9640 O.co2 359  ASP359     -0.2456
     85  OD2       45.5040   65.7140   77.6580 O.co2 359  ASP359     -0.2456
@<TRIPOS>BOND
     1    77    75    1
     2    76    75    1
     3    75    72    1
     4    81    80    2
     5    72    73    1
     6    72    71    1
     7    80    79    1
     8    73    78   am
     9    73    74    2
    10    66    65    2
    11    78    79    1
    12    71    65   am
    13    65    64    1
    14    79    82    1
    15    63    64    1
    16    82    83    1
    17    64    67    1
    18    84    83   ar
    19    83    85   ar
    20    58    57    1
    21    58    59    2
    22    57    56    1
    23    57    60    1
    24    67    69    1
    25    67    68    1
    26    60    61    1
    27    60    62    1
    28    68    70    1
    29    54    53    1
    30    55    53    1
    31    53    52    2
    32    11     9    1
    33    10     9    1
    34     9     8    2
    35    52    51    1
    36    51    50    1
    37    47    46    1
    38    47    48    2
    39     8     7    1
    40    49    50    1
    41    49    46    1
    42     7     6    1
    43     4     3    2
    44    32    31   ar
    45    46    45    1
    46    24    22   ar
    47     6     5    1
    48     5     2    1
    49     1     2    1
    50    31    33   ar
    51    31    30    1
    52    23    22   ar
    53     3     2    1
    54     3    12   am
    55    22    21    1
    56    29    30    1
    57    29    26    1
    58    25    26    1
    59    13    12    1
    60    13    16    1
    61    13    14    1
    62    21    18    1
    63    17    14   am
    64    17    18    1
    65    26    27    1
    66    14    15    2
    67    28    27    2
    68    18    19    1
    69    41    40    1
    70    41    42    2
    71    40    39    1
    72    39    38    1
    73    19    20    2
    74    43    42    1
    75    42    44    1
    76    38    35    1
    77    36    35    1
    78    36    37    2
    79    35    34    1
