@<TRIPOS>MOLECULE
tmp/5jrnA00.pdb
 161 158 0 0 0
SMALL
GASTEIGER

@<TRIPOS>ATOM
      1  N         11.8370   29.8800   31.7290 N.3     2  THR2       -0.1203
      2  CA        11.6540   31.2800   31.3740 C.3     2  THR2        0.1994
      3  C         10.7500   31.3940   30.1540 C.2     2  THR2        0.2618
      4  O         11.1460   31.0450   29.0410 O.2     2  THR2       -0.2717
      5  CB        12.9960   31.9780   31.0900 C.3     2  THR2        0.1784
      6  OG1       13.9530   31.6130   32.0920 O.3     2  THR2       -0.2211
      7  CG2       12.8160   33.4860   31.0900 C.3     2  THR2        0.0376
      8  N          9.5290   31.8740   30.3730 N.am    3  GLN3       -0.1965
      9  CA         8.8360   31.9490   29.0930 C.3     3  GLN3        0.1718
     10  C          8.4740   33.3950   28.7690 C.2     3  GLN3        0.2458
     11  O          7.8660   34.0830   29.5870 O.2     3  GLN3       -0.2730
     12  CB         7.5740   31.0810   29.1080 C.3     3  GLN3        0.0407
     13  CG         7.4710   30.0350   27.9900 C.3     3  GLN3        0.0908
     14  CD         8.2990   28.7800   28.2330 C.2     3  GLN3        0.2608
     15  OE1        8.4450   28.3310   29.3720 O.2     3  GLN3       -0.2717
     16  NE2        8.8920   28.2430   27.1710 N.am    3  GLN3       -0.0878
     17  N          8.5890   33.5470   27.4430 N.am    4  PRO4       -0.2727
     18  CA         8.5770   34.8680   26.8060 C.3     4  PRO4        0.1402
     19  C          7.2350   35.5760   26.9580 C.2     4  PRO4        0.2269
     20  O          6.1830   34.9350   26.9350 O.2     4  PRO4       -0.2865
     21  CB         8.8580   34.5540   25.3330 C.3     4  PRO4        0.0296
     22  CG         8.4130   33.1460   25.1570 C.3     4  PRO4        0.0237
     23  CD         8.6980   32.4580   26.4600 C.3     4  PRO4        0.0939
     24  N          6.8790   39.4290   20.5900 N.3    15  SER15      -0.1217
     25  CA         7.4800   38.4730   21.5090 C.3    15  SER15       0.1889
     26  C          8.7060   39.0840   22.1710 C.2    15  SER15       0.2288
     27  O          9.5840   39.6210   21.4930 O.2    15  SER15      -0.2866
     28  CB         7.8560   37.1830   20.7790 C.3    15  SER15       0.2089
     29  OG         8.4500   36.2480   21.6650 O.3    15  SER15      -0.2183
     30  N         11.5800   38.1230   25.2270 N.3    17  TRP17      -0.1241
     31  CA        12.1200   37.1520   26.1690 C.3    17  TRP17       0.1605
     32  C         13.4220   37.6290   26.8040 C.2    17  TRP17       0.2264
     33  O         14.2590   38.2450   26.1420 O.2    17  TRP17      -0.2867
     34  CB        12.3460   35.8130   25.4670 C.3    17  TRP17       0.0550
     35  CG        12.8830   34.7470   26.3640 C.ar   17  TRP17       0.0003
     36  CD1       12.1690   33.9510   27.2110 C.ar   17  TRP17       0.0946
     37  CD2       14.2540   34.3590   26.5100 C.ar   17  TRP17       0.0152
     38  NE1       13.0090   33.0890   27.8710 N.ar   17  TRP17      -0.2442
     39  CE2       14.2970   33.3200   27.4590 C.ar   17  TRP17       0.0810
     40  CE3       15.4510   34.7880   25.9270 C.ar   17  TRP17       0.0012
     41  CZ2       15.4850   32.7040   27.8410 C.ar   17  TRP17       0.0191
     42  CZ3       16.6310   34.1750   26.3070 C.ar   17  TRP17       0.0001
     43  CH2       16.6390   33.1460   27.2550 C.ar   17  TRP17       0.0015
     44  N         20.4080   37.5190   28.8010 N.3    43  ASN43      -0.1240
     45  CA        20.1020   37.1400   27.4270 C.3    43  ASN43       0.1653
     46  C         18.7400   37.6950   27.0230 C.2    43  ASN43       0.2266
     47  O         17.7200   37.2900   27.5720 O.2    43  ASN43      -0.2867
     48  CB        20.1270   35.6180   27.2770 C.3    43  ASN43       0.1155
     49  CG        20.0210   35.1680   25.8330 C.2    43  ASN43       0.2627
     50  OD1       20.0750   35.9790   24.9090 O.2    43  ASN43      -0.2716
     51  ND2       19.8670   33.8640   25.6330 N.am   43  ASN43      -0.0877
     52  N         15.9800   38.8030   23.8710 N.3    45  VAL45      -0.1245
     53  CA        15.5330   38.7670   22.4770 C.3    45  VAL45       0.1561
     54  C         14.1130   39.3120   22.3570 C.2    45  VAL45       0.2260
     55  O         13.1840   38.7390   22.9190 O.2    45  VAL45      -0.2867
     56  CB        15.5490   37.3360   21.8920 C.3    45  VAL45       0.0252
     57  CG1       15.3600   37.3840   20.3840 C.3    45  VAL45       0.0019
     58  CG2       16.8320   36.6060   22.2490 C.3    45  VAL45       0.0019
     59  N         22.4650   41.1150   17.8350 N.3    71  TYR71      -0.1241
     60  CA        22.0940   41.0350   16.4230 C.3    71  TYR71       0.1605
     61  C         20.7010   41.5870   16.1260 C.2    71  TYR71       0.2264
     62  O         19.7840   41.5040   16.9410 O.2    71  TYR71      -0.2867
     63  CB        22.2050   39.5900   15.9020 C.3    71  TYR71       0.0534
     64  CG        21.2890   38.5610   16.5400 C.ar   71  TYR71      -0.0201
     65  CD1       19.9370   38.5000   16.2180 C.ar   71  TYR71      -0.0009
     66  CD2       21.7890   37.6180   17.4270 C.ar   71  TYR71      -0.0009
     67  CE1       19.1060   37.5560   16.7900 C.ar   71  TYR71       0.0417
     68  CE2       20.9670   36.6670   17.9990 C.ar   71  TYR71       0.0417
     69  CZ        19.6270   36.6400   17.6770 C.ar   71  TYR71       0.1957
     70  OH        18.8070   35.6960   18.2500 O.3    71  TYR71      -0.2866
     71  N         13.8240   36.7230   12.6070 N.3    75  TYR75      -0.1241
     72  CA        13.9660   35.5930   13.5140 C.3    75  TYR75       0.1605
     73  C         12.6460   34.8590   13.7150 C.2    75  TYR75       0.2264
     74  O         11.6170   35.4810   13.9660 O.2    75  TYR75      -0.2867
     75  CB        14.5150   36.0950   14.8520 C.3    75  TYR75       0.0534
     76  CG        14.4850   35.1020   15.9890 C.ar   75  TYR75      -0.0201
     77  CD1       15.4820   34.1500   16.1330 C.ar   75  TYR75      -0.0009
     78  CD2       13.4700   35.1370   16.9370 C.ar   75  TYR75      -0.0009
     79  CE1       15.4630   33.2510   17.1790 C.ar   75  TYR75       0.0417
     80  CE2       13.4400   34.2390   17.9860 C.ar   75  TYR75       0.0417
     81  CZ        14.4400   33.3000   18.1020 C.ar   75  TYR75       0.1957
     82  OH        14.4140   32.4050   19.1460 O.3    75  TYR75      -0.2866
     83  N         10.6390   30.5150   14.1770 N.3    77  TRP77      -0.1241
     84  CA        10.7110   29.0840   14.4490 C.3    77  TRP77       0.1605
     85  C          9.8370   28.2830   13.4920 C.2    77  TRP77       0.2264
     86  O          8.8710   28.8050   12.9340 O.2    77  TRP77      -0.2867
     87  CB        10.2820   28.7860   15.8870 C.3    77  TRP77       0.0550
     88  CG        11.2910   29.1420   16.9300 C.ar   77  TRP77       0.0003
     89  CD1       11.4750   30.3620   17.5110 C.ar   77  TRP77       0.0946
     90  CD2       12.2450   28.2620   17.5340 C.ar   77  TRP77       0.0152
     91  NE1       12.4890   30.3000   18.4340 N.ar   77  TRP77      -0.2442
     92  CE2       12.9790   29.0200   18.4670 C.ar   77  TRP77       0.0810
     93  CE3       12.5520   26.9090   17.3740 C.ar   77  TRP77       0.0012
     94  CZ2       14.0010   28.4680   19.2370 C.ar   77  TRP77       0.0191
     95  CZ3       13.5680   26.3630   18.1390 C.ar   77  TRP77       0.0001
     96  CH2       14.2800   27.1430   19.0580 C.ar   77  TRP77       0.0015
     97  N         15.2010   26.7590   14.3500 N.3    84  GLU84      -0.1245
     98  CA        15.3080   28.1830   14.6500 C.3    84  GLU84       0.1567
     99  C         16.0420   28.8890   13.5110 C.2    84  GLU84       0.2260
    100  O         17.1940   28.5710   13.2300 O.2    84  GLU84      -0.2867
    101  CB        16.0380   28.3880   15.9760 C.3    84  GLU84       0.0388
    102  CG        15.9910   29.7960   16.5260 C.3    84  GLU84       0.1160
    103  CD        16.7130   29.9120   17.8540 C.2    84  GLU84       0.3649
    104  OE1       17.7230   29.2030   18.0440 O.co2  84  GLU84      -0.2457
    105  OE2       16.2730   30.7100   18.7080 O.co2  84  GLU84      -0.2457
    106  N         17.4510   32.3770   11.2740 N.3    86  TYR86      -0.1241
    107  CA        17.9260   33.7520   11.3680 C.3    86  TYR86       0.1605
    108  C         18.2150   34.3350    9.9920 C.2    86  TYR86       0.2264
    109  O         18.8460   33.6900    9.1550 O.2    86  TYR86      -0.2867
    110  CB        19.2050   33.8400   12.2040 C.3    86  TYR86       0.0534
    111  CG        19.1220   33.2900   13.6090 C.ar   86  TYR86      -0.0201
    112  CD1       19.2370   31.9270   13.8490 C.ar   86  TYR86      -0.0009
    113  CD2       18.9680   34.1360   14.6960 C.ar   86  TYR86      -0.0009
    114  CE1       19.1770   31.4230   15.1340 C.ar   86  TYR86       0.0417
    115  CE2       18.9090   33.6420   15.9810 C.ar   86  TYR86       0.0417
    116  CZ        19.0130   32.2860   16.1950 C.ar   86  TYR86       0.1957
    117  OH        18.9540   31.7950   17.4790 O.3    86  TYR86      -0.2866
    118  N         21.8570   22.9200   18.2630 N.3   120  ARG120     -0.1245
    119  CA        21.8110   23.1630   19.6990 C.3   120  ARG120      0.1563
    120  C         21.3090   21.9240   20.4200 C.2   120  ARG120      0.2260
    121  O         20.2330   21.4130   20.1140 O.2   120  ARG120     -0.2867
    122  CB        20.9150   24.3560   20.0210 C.3   120  ARG120      0.0307
    123  CG        21.4560   25.6720   19.5100 C.3   120  ARG120      0.0489
    124  CD        22.2670   26.3990   20.5670 C.3   120  ARG120      0.2205
    125  NE        21.4210   26.9170   21.6380 N.pl3 120  ARG120     -0.0865
    126  CZ        21.8810   27.5580   22.7080 C.cat 120  ARG120      0.5346
    127  NH1       23.1830   27.7680   22.8480 N.pl3 120  ARG120      0.1354
    128  NH2       21.0390   27.9940   23.6350 N.pl3 120  ARG120      0.1354
    129  N         16.9450   25.5370   25.3660 N.3   124  PRO124     -0.2102
    130  CA        15.5950   26.1080   25.4450 C.3   124  PRO124      0.1504
    131  C         15.0030   26.4290   24.0760 C.2   124  PRO124      0.2576
    132  O         15.6520   27.0750   23.2540 O.2   124  PRO124     -0.2718
    133  CB        15.8060   27.3900   26.2530 C.3   124  PRO124      0.0282
    134  CG        17.0030   27.1120   27.0820 C.3   124  PRO124      0.0208
    135  CD        17.8970   26.2700   26.2190 C.3   124  PRO124      0.0893
    136  N         13.7740   25.9790   23.8450 N.am  125  SER125     -0.1938
    137  CA        13.0760   26.2390   22.5900 C.3   125  SER125      0.2055
    138  C         11.6100   26.5580   22.8550 C.2   125  SER125      0.2642
    139  O         11.1770   26.6010   24.0070 O.2   125  SER125     -0.2714
    140  CB        13.1930   25.0370   21.6510 C.3   125  SER125      0.2130
    141  OG        12.3360   23.9860   22.0630 O.3   125  SER125     -0.2179
    142  N         10.8460   26.7680   21.7860 N.am  126  ILE126     -0.1977
    143  CA         9.4150   27.0300   21.9070 C.3   126  ILE126      0.1596
    144  C          8.6790   25.8040   22.4450 C.2   126  ILE126      0.2287
    145  O          7.5350   25.8980   22.8860 O.2   126  ILE126     -0.2864
    146  CB         8.7940   27.4460   20.5610 C.3   126  ILE126      0.0276
    147  CG1        9.2520   26.5050   19.4470 C.3   126  ILE126      0.0022
    148  CG2        9.1790   28.8740   20.2160 C.3   126  ILE126      0.0022
    149  CD1        8.4500   26.6420   18.1730 C.3   126  ILE126      0.0001
    150  N          6.0080   31.5110   14.9550 N.3   169  TYR169     -0.1241
    151  CA         6.0420   32.9670   14.8420 C.3   169  TYR169      0.1605
    152  C          7.2320   33.4520   14.0160 C.2   169  TYR169      0.2264
    153  O          8.1820   32.7080   13.7780 O.2   169  TYR169     -0.2867
    154  CB         6.0490   33.6220   16.2280 C.3   169  TYR169      0.0534
    155  CG         7.3110   33.4340   17.0410 C.ar  169  TYR169     -0.0201
    156  CD1        7.4440   32.3640   17.9150 C.ar  169  TYR169     -0.0009
    157  CD2        8.3550   34.3500   16.9640 C.ar  169  TYR169     -0.0009
    158  CE1        8.5910   32.1960   18.6700 C.ar  169  TYR169      0.0417
    159  CE2        9.5040   34.1910   17.7150 C.ar  169  TYR169      0.0417
    160  CZ         9.6160   33.1140   18.5670 C.ar  169  TYR169      0.1957
    161  OH        10.7560   32.9520   19.3170 O.3   169  TYR169     -0.2866
@<TRIPOS>BOND
     1   109   108    2
     2   108   107    1
     3   106   107    1
     4   107   110    1
     5   110   111    1
     6    71    72    1
     7    86    85    2
     8   100    99    2
     9    85    84    1
    10    99    98    1
    11    72    73    1
    12    72    75    1
    13   111   112   ar
    14   111   113   ar
    15    73    74    2
    16   153   152    2
    17   112   114   ar
    18   152   151    1
    19    83    84    1
    20    97    98    1
    21    84    87    1
    22    98   101    1
    23   113   115   ar
    24   151   150    1
    25   151   154    1
    26    75    76    1
    27   114   116   ar
    28    87    88    1
    29    63    60    1
    30    63    64    1
    31   101   102    1
    32   115   116   ar
    33    76    77   ar
    34    76    78   ar
    35    61    60    1
    36    61    62    2
    37    77    79   ar
    38   116   117    1
    39    65    64   ar
    40    65    67   ar
    41   154   155    1
    42    60    59    1
    43   102   103    1
    44    64    66   ar
    45    67    69   ar
    46    88    89   ar
    47    88    90   ar
    48    78    80   ar
    49   157   155   ar
    50   157   159   ar
    51   155   156   ar
    52    79    81   ar
    53    93    90   ar
    54    93    95   ar
    55    66    68   ar
    56    89    91   ar
    57    90    92   ar
    58    69    68   ar
    59    69    70    1
    60   159   160   ar
    61   103   104   ar
    62   103   105   ar
    63   156   158   ar
    64    80    81   ar
    65    81    82    1
    66    95    96   ar
    67   149   147    1
    68   118   119    1
    69    91    92   ar
    70    92    94   ar
    71   160   158   ar
    72   160   161    1
    73    96    94   ar
    74   147   146    1
    75   123   122    1
    76   123   124    1
    77   119   122    1
    78   119   120    1
    79   121   120    2
    80   148   146    1
    81    57    56    1
    82   146   143    1
    83   124   125    1
    84    24    25    1
    85    28    25    1
    86    28    29    1
    87    27    26    2
    88    25    26    1
    89   125   126    2
    90   140   141    1
    91   140   137    1
    92   142   143    1
    93   142   138   am
    94    56    58    1
    95    56    53    1
    96   143   144    1
    97    54    53    1
    98    54    55    2
    99   144   145    2
   100    53    52    1
   101   137   138    1
   102   137   136    1
   103   126   127    1
   104   126   128    1
   105   138   139    2
   106   132   131    2
   107   136   131   am
   108   131   130    1
   109    50    49    2
   110    22    21    1
   111    22    23    1
   112    30    31    1
   113    21    18    1
   114   129   130    1
   115   129   135    1
   116   130   133    1
   117    34    31    1
   118    34    35    1
   119    51    49   am
   120    49    48    1
   121    40    42   ar
   122    40    37   ar
   123    33    32    2
   124    31    32    1
   125   135   134    1
   126   133   134    1
   127    42    43   ar
   128    35    37   ar
   129    35    36   ar
   130    23    17    1
   131    37    39   ar
   132    18    19    1
   133    18    17    1
   134    20    19    2
   135    46    45    1
   136    46    47    2
   137    16    14   am
   138    36    38   ar
   139    43    41   ar
   140    48    45    1
   141    45    44    1
   142    17    10   am
   143    39    41   ar
   144    39    38   ar
   145    13    14    1
   146    13    12    1
   147    14    15    2
   148    10     9    1
   149    10    11    2
   150     4     3    2
   151     9    12    1
   152     9     8    1
   153     3     8   am
   154     3     2    1
   155     7     5    1
   156     5     2    1
   157     5     6    1
   158     2     1    1
