@<TRIPOS>MOLECULE
tmp/5jrsA00.pdb
 171 160 0 0 0
SMALL
GASTEIGER

@<TRIPOS>ATOM
      1  N         10.8740   19.0430    9.0280 N.3    12  LYS12      -0.1245
      2  CA         9.8060   18.3340    8.3290 C.3    12  LYS12       0.1561
      3  C          9.8320   16.8070    8.3930 C.2    12  LYS12       0.2260
      4  O         10.8890   16.1950    8.4180 O.2    12  LYS12      -0.2867
      5  CB         9.7130   18.7650    6.8540 C.3    12  LYS12       0.0271
      6  CG        10.9180   18.4870    5.9860 C.3    12  LYS12       0.0035
      7  CD        10.6800   18.9360    4.5370 C.3    12  LYS12       0.0206
      8  CE         9.6670   18.0930    3.7920 C.3    12  LYS12       0.1093
      9  NZ         9.7370   18.3110    2.3270 N.3    12  LYS12      -0.1314
     10  N          9.4090   13.3240    6.5080 N.3    14  LEU14      -0.1231
     11  CA         9.6550   12.8320    5.1560 C.3    14  LEU14       0.1693
     12  C          8.7320   11.7130    4.7980 C.2    14  LEU14       0.2593
     13  O          8.2670   11.6120    3.6500 O.2    14  LEU14      -0.2718
     14  CB        11.1080   12.3510    5.0830 C.3    14  LEU14       0.0284
     15  CG        12.1460   13.4240    5.3110 C.3    14  LEU14       0.0019
     16  CD1       13.5460   12.8330    5.3490 C.3    14  LEU14       0.0001
     17  CD2       12.0140   14.5360    4.2540 C.3    14  LEU14       0.0001
     18  N          8.4360   10.8990    5.7880 N.am   15  GLY15      -0.1942
     19  CA         7.5800    9.7300    5.6480 C.3    15  GLY15       0.2014
     20  C          7.7190    8.8460    6.8720 C.2    15  GLY15       0.2640
     21  O          8.3890    9.1850    7.8590 O.2    15  GLY15      -0.2714
     22  N          7.1180    7.7010    6.7870 N.am   16  THR16      -0.1936
     23  CA         7.1410    6.7190    7.8580 C.3    16  THR16       0.2028
     24  C          7.6030    5.4080    7.2650 C.2    16  THR16       0.2642
     25  O          7.2140    5.0550    6.1400 O.2    16  THR16      -0.2714
     26  CB         5.7400    6.6040    8.4790 C.3    16  THR16       0.1808
     27  OG1        5.2110    7.9150    8.6490 O.3    16  THR16      -0.2208
     28  CG2        5.7540    5.8800    9.8000 C.3    16  THR16       0.0379
     29  N          8.4280    4.7000    8.0280 N.am   17  GLY17      -0.1954
     30  CA         8.9340    3.3880    7.6530 C.3    17  GLY17       0.1869
     31  C          8.5740    2.3250    8.6790 C.2    17  GLY17       0.2309
     32  O          7.6670    2.5170    9.4960 O.2    17  GLY17      -0.2863
     33  N         10.4130    9.3180    9.8000 N.3    22  VAL22      -0.1245
     34  CA        11.7030    9.7980    9.3380 C.3    22  VAL22       0.1561
     35  C         11.5530   11.2790    9.1220 C.2    22  VAL22       0.2260
     36  O         10.6780   11.6990    8.3720 O.2    22  VAL22      -0.2867
     37  CB        12.1850    9.0960    8.0630 C.3    22  VAL22       0.0252
     38  CG1       13.6170    9.5210    7.7040 C.3    22  VAL22       0.0019
     39  CG2       12.0970    7.5770    8.2210 C.3    22  VAL22       0.0019
     40  N         18.9900   13.0270    7.6790 N.3    34  ALA34      -0.1245
     41  CA        17.7180   12.3330    7.8300 C.3    34  ALA34       0.1562
     42  C         17.7930   11.7610    9.2600 C.2    34  ALA34       0.2260
     43  O         18.8100   11.1850    9.6390 O.2    34  ALA34      -0.2867
     44  CB        17.5590   11.1940    6.8210 C.3    34  ALA34       0.0290
     45  N         15.8660    9.1070   11.6410 N.3    36  LYS36      -0.1245
     46  CA        14.9520    7.9940   11.6240 C.3    36  LYS36       0.1561
     47  C         14.6230    7.6720   13.0800 C.2    36  LYS36       0.2260
     48  O         15.5180    7.2710   13.8270 O.2    36  LYS36      -0.2867
     49  CB        15.6080    6.7810   10.9080 C.3    36  LYS36       0.0271
     50  CG        16.0940    7.0670    9.4760 C.3    36  LYS36       0.0035
     51  CD        17.2720    6.1950    9.0530 C.3    36  LYS36       0.0206
     52  CE        16.9580    4.7260    8.9050 C.3    36  LYS36       0.1093
     53  NZ        18.1870    3.9230    8.5920 N.3    36  LYS36      -0.1314
     54  N         23.9620    5.2350    1.3520 N.3    64  VAL64      -0.1245
     55  CA        23.4930    6.3180    2.1970 C.3    64  VAL64       0.1561
     56  C         24.3060    6.2010    3.5120 C.2    64  VAL64       0.2260
     57  O         24.2530    5.1840    4.1830 O.2    64  VAL64      -0.2867
     58  CB        21.9620    6.2700    2.4060 C.3    64  VAL64       0.0252
     59  CG1       21.5010    7.3510    3.3820 C.3    64  VAL64       0.0019
     60  CG2       21.2310    6.4260    1.0740 C.3    64  VAL64       0.0019
     61  N         21.3060    9.7640    9.4030 N.3    80  THR80      -0.1203
     62  CA        21.9600    9.4310    8.1460 C.3    80  THR80       0.1994
     63  C         22.0150   10.6260    7.2310 C.2    80  THR80       0.2618
     64  O         21.3690   11.6540    7.4720 O.2    80  THR80      -0.2717
     65  CB        21.2310    8.2550    7.4360 C.3    80  THR80       0.1784
     66  OG1       20.0550    8.7150    6.7290 O.3    80  THR80      -0.2211
     67  CG2       20.8780    7.1350    8.3790 C.3    80  THR80       0.0376
     68  N         22.8060   10.4670    6.1690 N.am   81  GLU81      -0.1965
     69  CA        22.9350   11.3580    5.0200 C.3    81  GLU81       0.1733
     70  C         21.5460   11.7070    4.4540 C.2    81  GLU81       0.2616
     71  O         20.6970   10.8190    4.3350 O.2    81  GLU81      -0.2715
     72  CB        23.7460   10.6240    3.9310 C.3    81  GLU81       0.0429
     73  CG        23.9240   11.3150    2.6050 C.3    81  GLU81       0.1163
     74  CD        24.8240   10.5760    1.6310 C.2    81  GLU81       0.3649
     75  OE1       24.9600   11.0700    0.4940 O.co2  81  GLU81      -0.2457
     76  OE2       25.3900    9.5110    1.9810 O.co2  81  GLU81      -0.2457
     77  N         21.3380   12.9590    4.0960 N.am   82  TYR82      -0.1960
     78  CA        20.0660   13.4340    3.5490 C.3    82  TYR82       0.1771
     79  C         20.0750   13.2580    2.0100 C.2    82  TYR82       0.2619
     80  O         21.0220   13.6540    1.3530 O.2    82  TYR82      -0.2715
     81  CB        19.8110   14.9130    3.8990 C.3    82  TYR82       0.0574
     82  CG        18.4540   15.3700    3.4180 C.ar   82  TYR82      -0.0198
     83  CD1       17.3100   14.6690    3.7570 C.ar   82  TYR82      -0.0009
     84  CD2       18.3250   16.4230    2.5110 C.ar   82  TYR82      -0.0009
     85  CE1       16.0720   15.0170    3.2530 C.ar   82  TYR82       0.0417
     86  CE2       17.0830   16.7890    2.0070 C.ar   82  TYR82       0.0417
     87  CZ        15.9570   16.0650    2.3710 C.ar   82  TYR82       0.1957
     88  OH        14.6910   16.2740    1.8940 O.3    82  TYR82      -0.2866
     89  N         18.9890   12.7280    1.4660 N.am   83  MET83      -0.1963
     90  CA        18.7910   12.4450    0.0610 C.3    83  MET83       0.1736
     91  C         17.5710   13.2490   -0.3950 C.2    83  MET83       0.2616
     92  O         16.4370   12.8450   -0.1390 O.2    83  MET83      -0.2715
     93  CB        18.5750   10.9460   -0.0790 C.3    83  MET83       0.0427
     94  CG        19.7640   10.1230    0.4120 C.3    83  MET83       0.0599
     95  SD        21.2900   10.3380   -0.5250 S.3    83  MET83      -0.1393
     96  CE        20.9150    9.4810   -1.9850 C.3    83  MET83       0.0692
     97  N         17.8260   14.4360   -1.0070 N.am   84  ALA84      -0.1963
     98  CA        16.7960   15.4190   -1.3290 C.3    84  ALA84       0.1728
     99  C         15.7430   14.9870   -2.3450 C.2    84  ALA84       0.2616
    100  O         14.6880   15.6050   -2.3260 O.2    84  ALA84      -0.2715
    101  CB        17.4210   16.7230   -1.7670 C.3    84  ALA84       0.0334
    102  N         15.9730   13.9350   -3.1900 N.am   85  ASN85      -0.1958
    103  CA        14.9350   13.4590   -4.1140 C.3    85  ASN85       0.1819
    104  C         14.1880   12.2290   -3.5910 C.2    85  ASN85       0.2622
    105  O         13.3780   11.6440   -4.3060 O.2    85  ASN85      -0.2715
    106  CB        15.5010   13.2520   -5.5430 C.3    85  ASN85       0.1195
    107  CG        15.5270   14.5530   -6.3100 C.2    85  ASN85       0.2630
    108  OD1       14.5510   15.2830   -6.3290 O.2    85  ASN85      -0.2716
    109  ND2       16.6430   14.9170   -6.9090 N.am   85  ASN85      -0.0877
    110  N         14.4190   11.8860   -2.3260 N.am   86  GLY86      -0.1940
    111  CA        13.7170   10.8190   -1.6590 C.3    86  GLY86       0.2014
    112  C         13.8460    9.4650   -2.3110 C.2    86  GLY86       0.2639
    113  O         14.8880    9.1360   -2.8930 O.2    86  GLY86      -0.2714
    114  N         12.7680    8.6870   -2.2070 N.am   87  CYS87      -0.1967
    115  CA        12.6750    7.3070   -2.6690 C.3    87  CYS87       0.1712
    116  C         12.8540    7.1290   -4.1770 C.2    87  CYS87       0.2296
    117  O         12.2060    7.8170   -4.9600 O.2    87  CYS87      -0.2864
    118  CB        11.3370    6.7320   -2.2180 C.3    87  CYS87       0.0983
    119  SG        11.1920    4.9810   -2.4530 S.3    87  CYS87      -0.0798
    120  N         11.6500    4.7430   -5.9880 N.3    89  LEU89      -0.1231
    121  CA        10.3490    4.3200   -6.5120 C.3    89  LEU89       0.1693
    122  C          9.4910    5.5280   -6.8460 C.2    89  LEU89       0.2592
    123  O          8.9040    5.5660   -7.9260 O.2    89  LEU89      -0.2718
    124  CB         9.6830    3.3780   -5.4820 C.3    89  LEU89       0.0284
    125  CG         8.7440    2.3280   -5.9820 C.3    89  LEU89       0.0019
    126  CD1        9.3080    1.5670   -7.1740 C.3    89  LEU89       0.0001
    127  CD2        8.3350    1.4290   -4.8530 C.3    89  LEU89       0.0001
    128  N          9.5250    6.5680   -5.9990 N.am   90  ASN90      -0.1974
    129  CA         8.8250    7.8260   -6.2400 C.3    90  ASN90       0.1688
    130  C          9.4480    8.6120   -7.3910 C.2    90  ASN90       0.2292
    131  O          8.7360    9.2150   -8.1900 O.2    90  ASN90      -0.2864
    132  CB         8.8570    8.6970   -4.9920 C.3    90  ASN90       0.1181
    133  CG         7.9020    9.8550   -5.0880 C.2    90  ASN90       0.2629
    134  OD1        6.6840    9.6950   -4.9400 O.2    90  ASN90      -0.2716
    135  ND2        8.4180   11.0270   -5.4390 N.am   90  ASN90      -0.0877
    136  N          8.4970    6.9310  -10.7550 N.3    93  ARG93      -0.1245
    137  CA         7.0880    7.1250  -11.0730 C.3    93  ARG93       0.1563
    138  C          6.7420    8.5940  -11.3860 C.2    93  ARG93       0.2260
    139  O          5.7320    8.8340  -12.0480 O.2    93  ARG93      -0.2867
    140  CB         6.2320    6.6350   -9.9100 C.3    93  ARG93       0.0307
    141  CG         6.3270    5.1330   -9.7150 C.3    93  ARG93       0.0489
    142  CD         5.7320    4.6870   -8.3890 C.3    93  ARG93       0.2205
    143  NE         5.7360    3.2310   -8.2860 N.pl3  93  ARG93      -0.0865
    144  CZ         5.3640    2.5360   -7.2140 C.cat  93  ARG93       0.5346
    145  NH1        4.9480    3.1590   -6.1210 N.pl3  93  ARG93       0.1354
    146  NH2        5.4200    1.2100   -7.2220 N.pl3  93  ARG93       0.1354
    147  N         12.1740    0.6860   -3.0860 N.3   127  ARG127     -0.1245
    148  CA        11.6740    1.4320   -1.9470 C.3   127  ARG127      0.1563
    149  C         12.7930    1.7500   -0.8960 C.2   127  ARG127      0.2260
    150  O         12.6260    2.6880   -0.1370 O.2   127  ARG127     -0.2867
    151  CB        10.4780    0.7310   -1.2720 C.3   127  ARG127      0.0307
    152  CG        10.8570   -0.5590   -0.5510 C.3   127  ARG127      0.0489
    153  CD         9.7070   -1.2320    0.1690 C.3   127  ARG127      0.2205
    154  NE        10.1690   -2.5390    0.6380 N.pl3 127  ARG127     -0.0865
    155  CZ        10.3090   -3.6010   -0.1390 C.cat 127  ARG127      0.5346
    156  NH1        9.9750   -3.5430   -1.4200 N.pl3 127  ARG127      0.1354
    157  NH2       10.7730   -4.7350    0.3570 N.pl3 127  ARG127      0.1354
    158  N         17.5240    5.5200   -2.3250 N.3   130  LEU130     -0.1245
    159  CA        17.2060    6.9500   -2.2670 C.3   130  LEU130      0.1561
    160  C         17.9310    7.6910   -3.3680 C.2   130  LEU130      0.2260
    161  O         18.8780    7.1550   -3.9650 O.2   130  LEU130     -0.2867
    162  CB        17.5410    7.4810   -0.8760 C.3   130  LEU130      0.0270
    163  CG        16.7150    6.8750    0.2810 C.3   130  LEU130      0.0019
    164  CD1       17.3470    7.1610    1.6200 C.3   130  LEU130      0.0001
    165  CD2       15.2710    7.3300    0.2440 C.3   130  LEU130      0.0001
    166  N         19.9910    2.3860    0.7990 N.3   140  SER140     -0.1217
    167  CA        19.8010    2.7040    2.2160 C.3   140  SER140      0.1889
    168  C         19.2400    1.5210    3.0260 C.2   140  SER140      0.2288
    169  O         18.8610    0.5040    2.4400 O.2   140  SER140     -0.2866
    170  CB        18.8840    3.9070    2.3580 C.3   140  SER140      0.2089
    171  OG        17.5130    3.5620    2.2900 O.3   140  SER140     -0.2183
@<TRIPOS>BOND
     1   139   138    2
     2   138   137    1
     3   137   136    1
     4   137   140    1
     5   140   141    1
     6   141   142    1
     7   142   143    1
     8   143   144    2
     9   131   130    2
    10   123   122    2
    11   130   129    1
    12   146   144    1
    13   144   145    1
    14   126   125    1
    15   109   107   am
    16   122   121    1
    17   122   128   am
    18   121   120    1
    19   121   124    1
    20   108   107    2
    21   107   106    1
    22   129   128    1
    23   129   132    1
    24   125   124    1
    25   125   127    1
    26   106   103    1
    27   135   133   am
    28   133   132    1
    29   133   134    2
    30   117   116    2
    31   105   104    2
    32   116   115    1
    33   103   104    1
    34   103   102    1
    35   161   160    2
    36   104   110   am
    37   160   159    1
    38   102    99   am
    39   147   148    1
    40   113   112    2
    41   115   118    1
    42   115   114    1
    43   119   118    1
    44    99   100    2
    45    99    98    1
    46   110   111    1
    47   158   159    1
    48   112   114   am
    49   112   111    1
    50   159   162    1
    51    96    95    1
    52   148   151    1
    53   148   149    1
    54   101    98    1
    55   156   155    1
    56    98    97    1
    57   151   152    1
    58    97    91   am
    59   149   150    2
    60   162   163    1
    61   152   153    1
    62    95    94    1
    63    91    92    2
    64    91    90    1
    65   155   157    1
    66   155   154    2
    67    93    90    1
    68    93    94    1
    69    90    89    1
    70   153   154    1
    71   165   163    1
    72   163   164    1
    73    75    74   ar
    74   166   167    1
    75    60    58    1
    76    54    55    1
    77    80    79    2
    78    89    79   am
    79    74    76   ar
    80    74    73    1
    81    88    87    1
    82    86    87   ar
    83    86    84   ar
    84    79    78    1
    85    55    58    1
    86    55    56    1
    87   167   170    1
    88   167   168    1
    89   171   170    1
    90     9     8    1
    91    87    85   ar
    92    58    59    1
    93   169   168    2
    94    84    82   ar
    95    73    72    1
    96    85    83   ar
    97    82    83   ar
    98    82    81    1
    99    56    57    2
   100    78    81    1
   101    78    77    1
   102    13    12    2
   103     8     7    1
   104    72    69    1
   105    77    70   am
   106    17    15    1
   107    71    70    2
   108    70    69    1
   109     7     6    1
   110    12    11    1
   111    12    18   am
   112    69    68    1
   113    14    11    1
   114    14    15    1
   115    11    10    1
   116    15    16    1
   117    19    18    1
   118    19    20    1
   119     6     5    1
   120    25    24    2
   121    68    63   am
   122    66    65    1
   123    22    20   am
   124    22    23    1
   125    44    41    1
   126     5     2    1
   127    20    21    2
   128    63    64    2
   129    63    62    1
   130    24    23    1
   131    24    29   am
   132    65    62    1
   133    65    67    1
   134    30    29    1
   135    30    31    1
   136    40    41    1
   137    38    37    1
   138    41    42    1
   139    23    26    1
   140    37    39    1
   141    37    34    1
   142    62    61    1
   143     2     3    1
   144     2     1    1
   145    36    35    2
   146     3     4    2
   147    26    27    1
   148    26    28    1
   149    53    52    1
   150    31    32    2
   151    52    51    1
   152    51    50    1
   153    35    34    1
   154    42    43    2
   155    34    33    1
   156    50    49    1
   157    49    46    1
   158    46    45    1
   159    46    47    1
   160    47    48    2
