@<TRIPOS>MOLECULE
tmp/5jrzA00.pdb
 117 112 0 0 0
SMALL
GASTEIGER

@<TRIPOS>ATOM
      1  N         51.1450   24.2350   48.2970 N.3    20  LEU20      -0.1231
      2  CA        50.6590   24.6400   49.6100 C.3    20  LEU20       0.1693
      3  C         49.5410   23.6840   50.0080 C.2    20  LEU20       0.2592
      4  O         48.4340   23.7610   49.4630 O.2    20  LEU20      -0.2718
      5  CB        50.1840   26.0920   49.5760 C.3    20  LEU20       0.0284
      6  CG        51.3210   27.1080   49.4650 C.3    20  LEU20       0.0019
      7  CD1       50.7870   28.5110   49.1810 C.3    20  LEU20       0.0001
      8  CD2       52.1370   27.0900   50.7490 C.3    20  LEU20       0.0001
      9  N         49.8270   22.7790   50.9470 N.am   21  HIS21      -0.1962
     10  CA        48.8410   21.7650   51.2850 C.3    21  HIS21       0.1772
     11  C         47.6050   22.4220   51.9010 C.2    21  HIS21       0.2462
     12  O         47.6600   23.5650   52.3610 O.2    21  HIS21      -0.2730
     13  CB        49.4430   20.6970   52.2120 C.3    21  HIS21       0.0785
     14  CG        49.7800   21.1740   53.6000 C.ar   21  HIS21       0.0821
     15  ND1       48.8190   21.4030   54.5620 N.ar   21  HIS21      -0.2267
     16  CD2       50.9720   21.4120   54.1970 C.ar   21  HIS21       0.1154
     17  CE1       49.4010   21.8010   55.6810 C.ar   21  HIS21       0.1986
     18  NE2       50.7090   21.8080   55.4890 N.ar   21  HIS21      -0.2212
     19  N         46.4600   21.7390   51.8650 N.am   22  PRO22      -0.2716
     20  CA        45.2410   22.3180   52.4450 C.3    22  PRO22       0.1536
     21  C         45.4600   22.6800   53.9090 C.2    22  PRO22       0.2599
     22  O         46.0290   21.9030   54.6810 O.2    22  PRO22      -0.2715
     23  CB        44.2050   21.1970   52.2900 C.3    22  PRO22       0.0310
     24  CG        44.7270   20.3690   51.1350 C.3    22  PRO22       0.0237
     25  CD        46.2240   20.4140   51.2690 C.3    22  PRO22       0.0939
     26  N         44.9900   23.8680   54.2870 N.am   23  GLY23      -0.1941
     27  CA        45.1460   24.3630   55.6420 C.3    23  GLY23       0.2014
     28  C         46.4770   25.0130   55.9560 C.2    23  GLY23       0.2639
     29  O         46.6860   25.4330   57.1050 O.2    23  GLY23      -0.2714
     30  N         47.3890   25.0980   54.9940 N.am   24  ALA24      -0.1963
     31  CA        48.7030   25.6770   55.2480 C.3    24  ALA24       0.1728
     32  C         48.7060   27.2040   55.2420 C.2    24  ALA24       0.2617
     33  O         49.7570   27.7980   55.5050 O.2    24  ALA24      -0.2715
     34  CB        49.7130   25.1510   54.2260 C.3    24  ALA24       0.0334
     35  N         47.5740   27.8520   54.9670 N.am   25  GLY25      -0.1940
     36  CA        47.5170   29.3010   54.9790 C.3    25  GLY25       0.2014
     37  C         47.7320   29.9740   53.6420 C.2    25  GLY25       0.2639
     38  O         48.2260   31.1070   53.6020 O.2    25  GLY25      -0.2714
     39  N         47.3680   29.3110   52.5430 N.am   26  LYS26      -0.1963
     40  CA        47.5910   29.8590   51.2060 C.3    26  LYS26       0.1728
     41  C         46.9740   31.2460   51.0510 C.2    26  LYS26       0.2617
     42  O         47.6250   32.1800   50.5710 O.2    26  LYS26      -0.2715
     43  CB        47.0220   28.8880   50.1730 C.3    26  LYS26       0.0311
     44  CG        47.0450   29.3580   48.7240 C.3    26  LYS26       0.0038
     45  CD        46.7190   28.1950   47.7660 C.3    26  LYS26       0.0206
     46  CE        45.3980   27.5220   48.1090 C.3    26  LYS26       0.1093
     47  NZ        44.2340   28.4600   48.0320 N.3    26  LYS26      -0.1314
     48  N         45.7120   31.4000   51.4410 N.am   27  THR27      -0.1937
     49  CA        45.0470   32.6820   51.2420 C.3    27  THR27       0.2028
     50  C         45.2600   33.6350   52.4120 C.2    27  THR27       0.2642
     51  O         45.5180   34.8240   52.1940 O.2    27  THR27      -0.2714
     52  CB        43.5490   32.4700   51.0100 C.3    27  THR27       0.1808
     53  OG1       43.3630   31.5780   49.9060 O.3    27  THR27      -0.2208
     54  CG2       42.8720   33.8000   50.6960 C.3    27  THR27       0.0379
     55  N         45.1910   33.1300   53.6510 N.am   28  ARG28      -0.1977
     56  CA        45.2510   33.9960   54.8250 C.3    28  ARG28       0.1597
     57  C         46.6630   34.4860   55.1270 C.2    28  ARG28       0.2287
     58  O         46.8280   35.5450   55.7390 O.2    28  ARG28      -0.2864
     59  CB        44.6830   33.2620   56.0440 C.3    28  ARG28       0.0334
     60  CG        43.1800   33.0060   55.8970 C.3    28  ARG28       0.0492
     61  CD        42.4520   34.2710   56.3630 C.3    28  ARG28       0.2205
     62  NE        40.9830   33.9650   56.4020 N.pl3  28  ARG28      -0.0865
     63  CZ        40.2370   34.0100   55.2980 C.cat  28  ARG28       0.5346
     64  NH1       40.6890   34.4090   54.1120 N.pl3  28  ARG28       0.1354
     65  NH2       39.0020   33.4750   55.3400 N.pl3  28  ARG28       0.1354
     66  N         44.4040   28.5500   43.3720 N.3   112  GLU112     -0.1245
     67  CA        43.8240   27.2800   42.9190 C.3   112  GLU112      0.1567
     68  C         44.1830   27.0240   41.4550 C.2   112  GLU112      0.2260
     69  O         43.3320   26.8350   40.5780 O.2   112  GLU112     -0.2867
     70  CB        42.3060   27.2420   43.1410 C.3   112  GLU112      0.0388
     71  CG        41.8480   27.6400   44.5500 C.3   112  GLU112      0.1160
     72  CD        42.3500   26.7210   45.6540 C.2   112  GLU112      0.3649
     73  OE1       43.0970   25.7650   45.3670 O.co2 112  GLU112     -0.2457
     74  OE2       42.0000   26.9770   46.8270 O.co2 112  GLU112     -0.2457
     75  N         36.8440   27.2430   48.4010 N.3   241  GLY241     -0.1225
     76  CA        36.1450   28.3190   49.0730 C.3   241  GLY241      0.1811
     77  C         35.1790   27.9050   50.1610 C.2   241  GLY241      0.2280
     78  O         34.3240   28.7030   50.5470 O.2   241  GLY241     -0.2866
     79  N         34.8890   25.8360   53.9890 N.3   243  ASN243     -0.1240
     80  CA        35.4570   25.0890   55.0970 C.3   243  ASN243      0.1653
     81  C         34.3700   24.7700   56.1100 C.2   243  ASN243      0.2266
     82  O         33.3550   25.4670   56.2010 O.2   243  ASN243     -0.2867
     83  CB        36.6140   25.8400   55.7300 C.3   243  ASN243      0.1155
     84  CG        37.9050   25.6170   54.9760 C.2   243  ASN243      0.2627
     85  OD1       38.2610   24.4760   54.6610 O.2   243  ASN243     -0.2716
     86  ND2       38.6000   26.6970   54.6550 N.am  243  ASN243     -0.0877
     87  N         41.2910   18.0600   47.2410 N.3   281  GLN281     -0.1245
     88  CA        40.4800   19.1530   47.7750 C.3   281  GLN281      0.1566
     89  C         39.3690   18.6270   48.6660 C.2   281  GLN281      0.2260
     90  O         39.0610   19.2310   49.6990 O.2   281  GLN281     -0.2867
     91  CB        39.8580   19.9790   46.6460 C.3   281  GLN281      0.0367
     92  CG        40.8510   20.7440   45.7830 C.3   281  GLN281      0.0905
     93  CD        41.6220   21.7920   46.5610 C.2   281  GLN281      0.2608
     94  OE1       42.8520   21.7430   46.6280 O.2   281  GLN281     -0.2717
     95  NE2       40.9090   22.7610   47.1320 N.am  281  GLN281     -0.0878
     96  N         39.0760   19.0150   53.2820 N.3   285  ARG285     -0.1245
     97  CA        38.1090   19.6160   54.2000 C.3   285  ARG285      0.1563
     98  C         38.3320   19.1790   55.6400 C.2   285  ARG285      0.2260
     99  O         37.8220   19.8410   56.5500 O.2   285  ARG285     -0.2867
    100  CB        36.6610   19.2500   53.8380 C.3   285  ARG285      0.0307
    101  CG        36.1230   19.6970   52.4730 C.3   285  ARG285      0.0489
    102  CD        36.4850   21.1230   52.1630 C.3   285  ARG285      0.2205
    103  NE        37.7390   21.1280   51.4310 N.pl3 285  ARG285     -0.0865
    104  CZ        38.6970   22.0400   51.5510 C.cat 285  ARG285      0.5346
    105  NH1       38.5570   23.0630   52.3760 N.pl3 285  ARG285      0.1354
    106  NH2       39.7990   21.9240   50.8190 N.pl3 285  ARG285      0.1354
    107  N         42.2770   19.5390   59.5170 N.3   288  ARG288     -0.1245
    108  CA        42.7090   20.9270   59.4790 C.3   288  ARG288      0.1563
    109  C         43.0640   21.4870   60.8470 C.2   288  ARG288      0.2260
    110  O         43.6320   22.5780   60.9180 O.2   288  ARG288     -0.2867
    111  CB        41.6190   21.8030   58.8470 C.3   288  ARG288      0.0307
    112  CG        41.2420   21.3650   57.4390 C.3   288  ARG288      0.0489
    113  CD        40.1890   22.2780   56.8700 C.3   288  ARG288      0.2205
    114  NE        40.7180   23.6190   56.6380 N.pl3 288  ARG288     -0.0865
    115  CZ        41.3320   24.0010   55.5180 C.cat 288  ARG288      0.5346
    116  NH1       41.5040   23.1490   54.5100 N.pl3 288  ARG288      0.1354
    117  NH2       41.7640   25.2460   55.4010 N.pl3 288  ARG288      0.1354
@<TRIPOS>BOND
     1    69    68    2
     2    68    67    1
     3    67    70    1
     4    67    66    1
     5    70    71    1
     6    71    72    1
     7    73    72   ar
     8    72    74   ar
     9    92    93    1
    10    92    91    1
    11    93    94    2
    12    93    95   am
    13    91    88    1
    14    87    88    1
    15    45    46    1
    16    45    44    1
    17    88    89    1
    18    47    46    1
    19     1     2    1
    20    75    76    1
    21    89    90    2
    22    44    43    1
    23    76    77    1
    24     7     6    1
    25     4     3    2
    26     6     5    1
    27     6     8    1
    28     5     2    1
    29     2     3    1
    30    53    52    1
    31     3     9   am
    32    77    78    2
    33    43    40    1
    34    42    41    2
    35    54    52    1
    36   106   104    1
    37     9    10    1
    38    52    49    1
    39    41    40    1
    40    41    48   am
    41    24    25    1
    42    24    23    1
    43    40    39    1
    44    49    48    1
    45    49    50    1
    46    25    19    1
    47    10    11    1
    48    10    13    1
    49   103   104    2
    50   103   102    1
    51   104   105    1
    52    19    11   am
    53    19    20    1
    54    11    12    2
    55   102   101    1
    56    51    50    2
    57    13    14    1
    58    23    20    1
    59    50    55   am
    60    20    21    1
    61   101   100    1
    62    39    37   am
    63    96    97    1
    64    14    16   ar
    65    14    15   ar
    66    38    37    2
    67    37    36    1
    68    55    56    1
    69   100    97    1
    70    21    26   am
    71    21    22    2
    72    79    80    1
    73    64    63    1
    74    16    18   ar
    75    97    98    1
    76    34    31    1
    77    26    27    1
    78   116   115    1
    79    15    17   ar
    80    86    84   am
    81    85    84    2
    82    56    57    1
    83    56    59    1
    84    35    36    1
    85    35    32   am
    86    84    83    1
    87    30    31    1
    88    30    28   am
    89    80    83    1
    90    80    81    1
    91    57    58    2
    92    32    31    1
    93    32    33    2
    94    63    65    1
    95    63    62    2
    96   117   115    1
    97    18    17   ar
    98   115   114    2
    99    98    99    2
   100    27    28    1
   101    60    59    1
   102    60    61    1
   103    28    29    2
   104    81    82    2
   105    61    62    1
   106   114   113    1
   107   113   112    1
   108   112   111    1
   109   111   108    1
   110   108   107    1
   111   108   109    1
   112   109   110    2
