@<TRIPOS>MOLECULE
tmp/5jsgA00.pdb
 189 191 0 0 0
SMALL
GASTEIGER

@<TRIPOS>ATOM
      1  N         19.1300   55.6500   18.6250 N.3    14  HIS14      -0.1241
      2  CA        18.1380   56.5300   18.0230 C.3    14  HIS14       0.1621
      3  C         16.8230   56.4140   18.7780 C.2    14  HIS14       0.2264
      4  O         16.5920   55.4600   19.5260 O.2    14  HIS14      -0.2867
      5  CB        17.9270   56.2040   16.5410 C.3    14  HIS14       0.0745
      6  CG        17.3370   54.8500   16.2990 C.ar   14  HIS14       0.0817
      7  ND1       15.9860   54.5960   16.4000 N.ar   14  HIS14      -0.2268
      8  CD2       17.9160   53.6730   15.9610 C.ar   14  HIS14       0.1154
      9  CE1       15.7570   53.3230   16.1330 C.ar   14  HIS14       0.1986
     10  NE2       16.9110   52.7400   15.8630 N.ar   14  HIS14      -0.2212
     11  N         12.5450   56.2540   18.6810 N.3    16  TRP16      -0.1241
     12  CA        11.5470   55.5510   17.8870 C.3    16  TRP16       0.1605
     13  C         10.1560   55.9590   18.3430 C.2    16  TRP16       0.2264
     14  O          9.8710   55.9720   19.5450 O.2    16  TRP16      -0.2867
     15  CB        11.7260   54.0340   18.0110 C.3    16  TRP16       0.0550
     16  CG        10.8130   53.2300   17.1420 C.ar   16  TRP16       0.0003
     17  CD1        9.7420   52.4870   17.5460 C.ar   16  TRP16       0.0946
     18  CD2       10.8910   53.0810   15.7190 C.ar   16  TRP16       0.0152
     19  NE1        9.1520   51.8780   16.4630 N.ar   16  TRP16      -0.2442
     20  CE2        9.8380   52.2260   15.3300 C.ar   16  TRP16       0.0810
     21  CE3       11.7520   53.5830   14.7370 C.ar   16  TRP16       0.0012
     22  CZ2        9.6200   51.8660   14.0010 C.ar   16  TRP16       0.0191
     23  CZ3       11.5350   53.2230   13.4160 C.ar   16  TRP16       0.0001
     24  CH2       10.4760   52.3740   13.0610 C.ar   16  TRP16       0.0015
     25  N         16.6860   53.3590   21.7720 N.3    26  TRP26      -0.1241
     26  CA        17.2070   52.0810   21.3010 C.3    26  TRP26       0.1605
     27  C         18.6890   52.1910   20.9750 C.2    26  TRP26       0.2264
     28  O         19.1390   53.1990   20.4300 O.2    26  TRP26      -0.2867
     29  CB        16.4530   51.5960   20.0550 C.3    26  TRP26       0.0550
     30  CG        14.9910   51.3790   20.2860 C.ar   26  TRP26       0.0003
     31  CD1       13.9970   52.3060   20.1810 C.ar   26  TRP26       0.0946
     32  CD2       14.3560   50.1520   20.6640 C.ar   26  TRP26       0.0152
     33  NE1       12.7820   51.7340   20.4710 N.ar   26  TRP26      -0.2442
     34  CE2       12.9750   50.4110   20.7700 C.ar   26  TRP26       0.0810
     35  CE3       14.8210   48.8600   20.9200 C.ar   26  TRP26       0.0012
     36  CZ2       12.0570   49.4250   21.1230 C.ar   26  TRP26       0.0191
     37  CZ3       13.9090   47.8860   21.2740 C.ar   26  TRP26       0.0001
     38  CH2       12.5440   48.1730   21.3710 C.ar   26  TRP26       0.0015
     39  N         19.4860   45.0020   17.3810 N.3    45  TYR45      -0.1241
     40  CA        19.2590   45.8810   18.5200 C.3    45  TYR45       0.1605
     41  C         19.6900   45.2050   19.8140 C.2    45  TYR45       0.2264
     42  O         19.5380   43.9920   19.9790 O.2    45  TYR45      -0.2867
     43  CB        17.7890   46.2880   18.5950 C.3    45  TYR45       0.0534
     44  CG        17.4160   47.3050   17.5430 C.ar   45  TYR45      -0.0201
     45  CD1       17.6960   48.6540   17.7300 C.ar   45  TYR45      -0.0009
     46  CD2       16.7930   46.9210   16.3610 C.ar   45  TYR45      -0.0009
     47  CE1       17.3650   49.5920   16.7720 C.ar   45  TYR45       0.0417
     48  CE2       16.4550   47.8530   15.3970 C.ar   45  TYR45       0.0417
     49  CZ        16.7470   49.1860   15.6090 C.ar   45  TYR45       0.1957
     50  OH        16.4180   50.1150   14.6570 O.3    45  TYR45      -0.2866
     51  N         19.8930   43.5110   23.1020 N.3    47  GLY47      -0.1210
     52  CA        18.9710   42.7480   23.9130 C.3    47  GLY47       0.1956
     53  C         17.9560   41.9220   23.1610 C.2    47  GLY47       0.2612
     54  O         17.0580   41.3560   23.7930 O.2    47  GLY47      -0.2717
     55  N         18.0580   41.8360   21.8380 N.am   48  PHE48      -0.1962
     56  CA        17.1320   41.0480   21.0400 C.3    48  PHE48       0.1771
     57  C         17.9140   40.3810   19.9210 C.2    48  PHE48       0.2620
     58  O         18.9300   40.9060   19.4600 O.2    48  PHE48      -0.2715
     59  CB        15.9960   41.9130   20.4770 C.3    48  PHE48       0.0574
     60  CG        15.4400   42.8930   21.4720 C.ar   48  PHE48      -0.0200
     61  CD1       14.4060   42.5300   22.3200 C.ar   48  PHE48      -0.0042
     62  CD2       15.9650   44.1730   21.5730 C.ar   48  PHE48      -0.0042
     63  CE1       13.9000   43.4270   23.2410 C.ar   48  PHE48      -0.0003
     64  CE2       15.4650   45.0730   22.4930 C.ar   48  PHE48      -0.0003
     65  CZ        14.4310   44.7000   23.3280 C.ar   48  PHE48      -0.0000
     66  N         17.4390   39.2160   19.4860 N.am   49  ASP49      -0.1957
     67  CA        18.2130   38.3740   18.5840 C.3    49  ASP49       0.1840
     68  C         17.6310   38.2840   17.1780 C.2    49  ASP49       0.2622
     69  O         18.1530   37.5230   16.3590 O.2    49  ASP49      -0.2715
     70  CB        18.3740   36.9770   19.1810 C.3    49  ASP49       0.1450
     71  CG        19.1390   36.9940   20.4910 C.2    49  ASP49       0.3671
     72  OD1       20.3430   37.3390   20.4730 O.co2  49  ASP49      -0.2456
     73  OD2       18.5360   36.6640   21.5350 O.co2  49  ASP49      -0.2456
     74  N         16.5780   39.0370   16.8710 N.am   50  CYS50      -0.1968
     75  CA        16.1350   39.1580   15.4890 C.3    50  CYS50       0.1712
     76  C         16.9670   40.2050   14.7660 C.2    50  CYS50       0.2296
     77  O         17.3870   41.2060   15.3570 O.2    50  CYS50      -0.2864
     78  CB        14.6570   39.5450   15.4110 C.3    50  CYS50       0.0983
     79  SG        13.4880   38.3140   16.0080 S.3    50  CYS50      -0.0798
     80  N         16.7600   43.0850   12.0670 N.3    52  TYR52      -0.1241
     81  CA        15.6970   43.9480   11.5850 C.3    52  TYR52       0.1605
     82  C         16.1770   44.7860   10.4090 C.2    52  TYR52       0.2264
     83  O         17.3680   45.0890   10.2790 O.2    52  TYR52      -0.2867
     84  CB        15.1780   44.8560   12.7050 C.3    52  TYR52       0.0534
     85  CG        14.5660   44.0860   13.8510 C.ar   52  TYR52      -0.0201
     86  CD1       13.2470   43.6590   13.7980 C.ar   52  TYR52      -0.0009
     87  CD2       15.3130   43.7690   14.9780 C.ar   52  TYR52      -0.0009
     88  CE1       12.6850   42.9440   14.8400 C.ar   52  TYR52       0.0417
     89  CE2       14.7600   43.0540   16.0260 C.ar   52  TYR52       0.0417
     90  CZ        13.4460   42.6440   15.9500 C.ar   52  TYR52       0.1957
     91  OH        12.8880   41.9350   16.9880 O.3    52  TYR52      -0.2866
     92  N         15.5780   48.4220    8.6210 N.3    54  LEU54      -0.1245
     93  CA        15.0350   49.7670    8.7190 C.3    54  LEU54       0.1561
     94  C         15.7810   50.6870    7.7670 C.2    54  LEU54       0.2260
     95  O         16.9740   50.5080    7.5080 O.2    54  LEU54      -0.2867
     96  CB        15.1330   50.3300   10.1420 C.3    54  LEU54       0.0270
     97  CG        14.3740   49.6210   11.2620 C.3    54  LEU54       0.0019
     98  CD1       15.2390   48.5510   11.9150 C.3    54  LEU54       0.0001
     99  CD2       13.8950   50.6320   12.2860 C.3    54  LEU54       0.0001
    100  N         15.4950   25.7540   23.4910 N.3    95  PHE95      -0.1241
    101  CA        15.2450   27.0070   24.1870 C.3    95  PHE95       0.1605
    102  C         14.5950   26.7290   25.5370 C.2    95  PHE95       0.2264
    103  O         14.1040   25.6290   25.8050 O.2    95  PHE95      -0.2867
    104  CB        14.3610   27.9390   23.3490 C.3    95  PHE95       0.0534
    105  CG        15.0980   28.6430   22.2500 C.ar   95  PHE95      -0.0203
    106  CD1       15.4160   27.9820   21.0750 C.ar   95  PHE95      -0.0042
    107  CD2       15.4760   29.9690   22.3910 C.ar   95  PHE95      -0.0042
    108  CE1       16.1040   28.6300   20.0600 C.ar   95  PHE95      -0.0003
    109  CE2       16.1600   30.6260   21.3780 C.ar   95  PHE95      -0.0003
    110  CZ        16.4720   29.9560   20.2100 C.ar   95  PHE95      -0.0000
    111  N         13.2590   23.7490   18.5890 N.3   105  TRP105     -0.1241
    112  CA        12.8040   24.3400   17.3390 C.3   105  TRP105      0.1605
    113  C         13.6780   23.8690   16.1890 C.2   105  TRP105      0.2264
    114  O         14.9090   23.8920   16.2910 O.2   105  TRP105     -0.2867
    115  CB        12.8290   25.8670   17.4160 C.3   105  TRP105      0.0550
    116  CG        11.9080   26.4330   18.4400 C.ar  105  TRP105      0.0003
    117  CD1       12.0540   26.3800   19.7960 C.ar  105  TRP105      0.0946
    118  CD2       10.7020   27.1620   18.1930 C.ar  105  TRP105      0.0152
    119  NE1       11.0070   27.0240   20.4090 N.ar  105  TRP105     -0.2442
    120  CE2       10.1640   27.5150   19.4470 C.ar  105  TRP105      0.0810
    121  CE3       10.0240   27.5520   17.0340 C.ar  105  TRP105      0.0012
    122  CZ2        8.9800   28.2350   19.5740 C.ar  105  TRP105      0.0191
    123  CZ3        8.8480   28.2680   17.1630 C.ar  105  TRP105      0.0001
    124  CH2        8.3380   28.6010   18.4230 C.ar  105  TRP105      0.0015
    125  N         14.0680   29.5700   11.3280 N.3   124  TYR124     -0.1241
    126  CA        13.3480   28.4300   11.8760 C.3   124  TYR124      0.1605
    127  C         12.0960   28.1430   11.0560 C.2   124  TYR124      0.2264
    128  O         11.5480   29.0210   10.3870 O.2   124  TYR124     -0.2867
    129  CB        12.9840   28.6660   13.3500 C.3   124  TYR124      0.0534
    130  CG        14.1880   28.9570   14.2170 C.ar  124  TYR124     -0.0201
    131  CD1       14.9750   27.9250   14.7150 C.ar  124  TYR124     -0.0009
    132  CD2       14.5490   30.2690   14.5250 C.ar  124  TYR124     -0.0009
    133  CE1       16.0840   28.1900   15.5040 C.ar  124  TYR124      0.0417
    134  CE2       15.6530   30.5450   15.3140 C.ar  124  TYR124      0.0417
    135  CZ        16.4200   29.5020   15.7990 C.ar  124  TYR124      0.1957
    136  OH        17.5220   29.7670   16.5810 O.3   124  TYR124     -0.2866
    137  N          9.1280   29.8080   12.7040 N.3   127  ASP127     -0.1239
    138  CA         9.4070   31.2270   12.8790 C.3   127  ASP127      0.1674
    139  C         10.4070   31.6540   11.8130 C.2   127  ASP127      0.2266
    140  O         11.5970   31.8290   12.1070 O.2   127  ASP127     -0.2867
    141  CB         9.9470   31.5110   14.2820 C.3   127  ASP127      0.1410
    142  CG         9.7850   32.9700   14.6900 C.2   127  ASP127      0.3668
    143  OD1        9.4170   33.7980   13.8310 O.co2 127  ASP127     -0.2456
    144  OD2       10.0300   33.2890   15.8740 O.co2 127  ASP127     -0.2456
    145  N         17.4050   35.4090   12.4930 N.3   131  TYR131     -0.1241
    146  CA        17.8780   35.4190   13.8700 C.3   131  TYR131      0.1605
    147  C         19.3990   35.3690   13.9120 C.2   131  TYR131      0.2264
    148  O         20.0560   34.9520   12.9540 O.2   131  TYR131     -0.2867
    149  CB        17.3200   34.2340   14.6660 C.3   131  TYR131      0.0534
    150  CG        15.9140   34.4210   15.1680 C.ar  131  TYR131     -0.0201
    151  CD1       15.6730   35.0070   16.4010 C.ar  131  TYR131     -0.0009
    152  CD2       14.8270   34.0010   14.4160 C.ar  131  TYR131     -0.0009
    153  CE1       14.3880   35.1750   16.8720 C.ar  131  TYR131      0.0417
    154  CE2       13.5380   34.1630   14.8790 C.ar  131  TYR131      0.0417
    155  CZ        13.3210   34.7540   16.1060 C.ar  131  TYR131      0.1957
    156  OH        12.0320   34.9200   16.5670 O.3   131  TYR131     -0.2866
    157  N         22.5440   34.1370   16.6680 N.3   133  TYR133     -0.1241
    158  CA        22.9170   33.4890   17.9170 C.3   133  TYR133      0.1605
    159  C         24.3790   33.0720   17.8700 C.2   133  TYR133      0.2264
    160  O         24.9480   32.8590   16.7950 O.2   133  TYR133     -0.2867
    161  CB        22.0400   32.2670   18.2060 C.3   133  TYR133      0.0534
    162  CG        20.6290   32.6030   18.6370 C.ar  133  TYR133     -0.0201
    163  CD1       20.3770   33.1380   19.8940 C.ar  133  TYR133     -0.0009
    164  CD2       19.5490   32.3700   17.7940 C.ar  133  TYR133     -0.0009
    165  CE1       19.0900   33.4400   20.2970 C.ar  133  TYR133      0.0417
    166  CE2       18.2560   32.6700   18.1890 C.ar  133  TYR133      0.0417
    167  CZ        18.0340   33.2030   19.4410 C.ar  133  TYR133      0.1957
    168  OH        16.7540   33.5020   19.8370 O.3   133  TYR133     -0.2866
    169  N          9.3620   45.2470    9.7470 N.3   184  PHE184     -0.1227
    170  CA        10.8070   45.3980    9.8320 C.3   184  PHE184      0.1736
    171  C         11.5330   44.0900   10.1250 C.2   184  PHE184      0.2595
    172  O         12.7120   44.1240   10.4870 O.2   184  PHE184     -0.2718
    173  CB        11.1860   46.4590   10.8770 C.3   184  PHE184      0.0547
    174  CG        10.3490   46.4330   12.1240 C.ar  184  PHE184     -0.0202
    175  CD1       10.1240   45.2500   12.8110 C.ar  184  PHE184     -0.0042
    176  CD2        9.8140   47.6090   12.6320 C.ar  184  PHE184     -0.0042
    177  CE1        9.3600   45.2340   13.9660 C.ar  184  PHE184     -0.0003
    178  CE2        9.0530   47.6010   13.7870 C.ar  184  PHE184     -0.0003
    179  CZ         8.8260   46.4110   14.4560 C.ar  184  PHE184     -0.0000
    180  N         10.8650   42.9470    9.9800 N.am  185  HIS185     -0.1975
    181  CA        11.5540   41.6680   10.0520 C.3   185  HIS185      0.1656
    182  C         12.1760   41.3340    8.7050 C.2   185  HIS185      0.2291
    183  O         11.7140   41.7850    7.6540 O.2   185  HIS185     -0.2864
    184  CB        10.6010   40.5390   10.4540 C.3   185  HIS185      0.0771
    185  CG        10.2100   40.5560   11.8970 C.ar  185  HIS185      0.0820
    186  ND1        9.0360   41.1230   12.3440 N.ar  185  HIS185     -0.2267
    187  CD2       10.8360   40.0700   12.9950 C.ar  185  HIS185      0.1154
    188  CE1        8.9570   40.9890   13.6570 C.ar  185  HIS185      0.1986
    189  NE2       10.0360   40.3530   14.0760 N.ar  185  HIS185     -0.2212
@<TRIPOS>BOND
     1    95    94    2
     2   183   182    2
     3    94    93    1
     4    92    93    1
     5   182   181    1
     6    93    96    1
     7   169   170    1
     8   170   171    1
     9   170   173    1
    10   180   181    1
    11   180   171   am
    12   181   184    1
    13   171   172    2
    14    96    97    1
    15    83    82    2
    16   128   127    2
    17    82    81    1
    18   184   185    1
    19   173   174    1
    20   127   126    1
    21    97    98    1
    22    97    99    1
    23   125   126    1
    24    81    80    1
    25    81    84    1
    26   139   140    2
    27   139   138    1
    28   126   129    1
    29   185   186   ar
    30   185   187   ar
    31   174   176   ar
    32   174   175   ar
    33   186   188   ar
    34   145   146    1
    35   176   178   ar
    36   137   138    1
    37    84    85    1
    38   175   177   ar
    39   138   141    1
    40   148   147    2
    41   187   189   ar
    42    24    23   ar
    43    24    22   ar
    44   129   130    1
    45    23    21   ar
    46   188   189   ar
    47   178   179   ar
    48    86    85   ar
    49    86    88   ar
    50   143   142   ar
    51    85    87   ar
    52   146   147    1
    53   146   149    1
    54   177   179   ar
    55    22    20   ar
    56   130   132   ar
    57   130   131   ar
    58   141   142    1
    59   152   154   ar
    60   152   150   ar
    61   132   134   ar
    62    50    49    1
    63   149   150    1
    64   142   144   ar
    65   131   133   ar
    66    21    18   ar
    67    76    77    2
    68    76    75    1
    69    88    90   ar
    70   154   155   ar
    71    87    89   ar
    72   150   151   ar
    73   134   135   ar
    74    20    18   ar
    75    20    19   ar
    76    48    49   ar
    77    48    46   ar
    78    78    75    1
    79    78    79    1
    80    75    74    1
    81   133   135   ar
    82    49    47   ar
    83    18    16   ar
    84   135   136    1
    85    10     8   ar
    86    10     9   ar
    87    90    89   ar
    88    90    91    1
    89     8     6   ar
    90   155   156    1
    91   155   153   ar
    92     9     7   ar
    93   113   114    2
    94   113   112    1
    95     6     7   ar
    96     6     5    1
    97    69    68    2
    98    46    44   ar
    99   151   153   ar
   100    19    17   ar
   101     5     2    1
   102   157   158    1
   103    47    45   ar
   104   160   159    2
   105    74    68   am
   106   121   123   ar
   107   121   118   ar
   108    16    17   ar
   109    16    15    1
   110   123   124   ar
   111    68    67    1
   112   112   115    1
   113   112   111    1
   114    39    40    1
   115   115   116    1
   116    44    45   ar
   117    44    43    1
   118   164   166   ar
   119   164   162   ar
   120   159   158    1
   121    12    15    1
   122    12    13    1
   123    12    11    1
   124   158   161    1
   125     2     1    1
   126     2     3    1
   127   166   167   ar
   128   118   116   ar
   129   118   120   ar
   130   161   162    1
   131    13    14    2
   132   124   122   ar
   133   116   117   ar
   134    40    43    1
   135    40    41    1
   136    67    70    1
   137    67    66    1
   138   162   163   ar
   139     3     4    2
   140    70    71    1
   141   167   168    1
   142   167   165   ar
   143   120   122   ar
   144   120   119   ar
   145    58    57    2
   146    66    57   am
   147   117   119   ar
   148    41    42    2
   149   163   165   ar
   150    57    56    1
   151    29    30    1
   152    29    26    1
   153   108   110   ar
   154   108   106   ar
   155    31    30   ar
   156    31    33   ar
   157   110   109   ar
   158    30    32   ar
   159    28    27    2
   160    33    34   ar
   161    72    71   ar
   162    59    56    1
   163    59    60    1
   164    71    73   ar
   165    32    34   ar
   166    32    35   ar
   167    34    36   ar
   168    35    37   ar
   169    27    26    1
   170    56    55    1
   171   106   105   ar
   172    36    38   ar
   173    37    38   ar
   174    26    25    1
   175   109   107   ar
   176    60    62   ar
   177    60    61   ar
   178    62    64   ar
   179    55    53   am
   180   105   107   ar
   181   105   104    1
   182    61    63   ar
   183    64    65   ar
   184    51    52    1
   185    53    54    2
   186    53    52    1
   187    63    65   ar
   188   104   101    1
   189   100   101    1
   190   101   102    1
   191   102   103    2
