@<TRIPOS>MOLECULE
tmp/5jsiA05.pdb
 89 81 0 0 0
SMALL
GASTEIGER

@<TRIPOS>ATOM
      1  N          9.8910   37.2810  -10.3800 N.3   159  ASN159     -0.1240
      2  CA         9.2050   37.2810   -9.1070 C.3   159  ASN159      0.1653
      3  C          9.4870   35.9760   -8.3040 C.2   159  ASN159      0.2266
      4  O          9.7850   36.0420   -7.1080 O.2   159  ASN159     -0.2867
      5  CB         7.7300   37.4960   -9.2540 C.3   159  ASN159      0.1155
      6  CG         7.4120   38.8760   -9.8260 C.2   159  ASN159      0.2627
      7  OD1        8.2070   39.7870   -9.7270 O.2   159  ASN159     -0.2716
      8  ND2        6.2520   39.0180  -10.3890 N.am  159  ASN159     -0.0877
      9  N         13.2410   36.2540   -7.1160 N.3   162  ASN162     -0.1225
     10  CA        13.3880   37.1850   -6.0380 C.3   162  ASN162      0.1785
     11  C         12.7330   36.8420   -4.7080 C.2   162  ASN162      0.2597
     12  O         13.3080   37.1930   -3.6290 O.2   162  ASN162     -0.2718
     13  CB        13.0340   38.5710   -6.4760 C.3   162  ASN162      0.1169
     14  CG        14.0490   39.0800   -7.4890 C.2   162  ASN162      0.2627
     15  OD1       15.1580   38.5360   -7.5800 O.2   162  ASN162     -0.2716
     16  ND2       13.6320   39.9920   -8.3310 N.am  162  ASN162     -0.0877
     17  N         11.5910   36.1400   -4.7460 N.am  163  LEU163     -0.1980
     18  CA        11.0450   35.6160   -3.5010 C.3   163  LEU163      0.1596
     19  C         12.0570   34.7150   -2.7990 C.2   163  LEU163      0.2287
     20  O         12.3180   34.8770   -1.6060 O.2   163  LEU163     -0.2864
     21  CB         9.7640   34.8670   -3.7400 C.3   163  LEU163      0.0297
     22  CG         9.1880   34.2840   -2.4940 C.3   163  LEU163      0.0022
     23  CD1        8.9130   35.2870   -1.3760 C.3   163  LEU163      0.0001
     24  CD2        7.9330   33.4970   -2.8040 C.3   163  LEU163      0.0001
     25  N         15.5500   36.7650   -1.7660 N.3   166  VAL166     -0.1231
     26  CA        15.3390   37.6160   -0.6290 C.3   166  VAL166      0.1692
     27  C         14.7140   36.8920    0.5710 C.2   166  VAL166      0.2592
     28  O         15.0990   37.1170    1.7480 O.2   166  VAL166     -0.2718
     29  CB        14.4500   38.8210   -1.0390 C.3   166  VAL166      0.0266
     30  CG1       14.1110   39.6970    0.1720 C.3   166  VAL166      0.0020
     31  CG2       15.1990   39.6410   -2.0830 C.3   166  VAL166      0.0020
     32  N         13.7450   36.0580    0.2870 N.am  167  GLY167     -0.1957
     33  CA        12.9490   35.4240    1.3320 C.3   167  GLY167      0.1869
     34  C         13.7070   34.3530    2.0890 C.2   167  GLY167      0.2309
     35  O         13.4280   34.1100    3.2470 O.2   167  GLY167     -0.2863
     36  N         16.7940   34.8950    5.6080 N.3   170  ILE170     -0.1245
     37  CA        16.5250   34.7520    7.0480 C.3   170  ILE170      0.1561
     38  C         16.9640   33.4280    7.6620 C.2   170  ILE170      0.2260
     39  O         17.2320   33.3680    8.8640 O.2   170  ILE170     -0.2867
     40  CB        15.0080   34.9950    7.3210 C.3   170  ILE170      0.0252
     41  CG1       14.6530   35.0000    8.8270 C.3   170  ILE170      0.0019
     42  CG2       14.1510   33.9420    6.6690 C.3   170  ILE170      0.0019
     43  CD1       15.3100   36.1140    9.6090 C.3   170  ILE170      0.0001
     44  N          7.0560   32.8780   10.5300 N.3   193  ILE193     -0.1231
     45  CA         6.5780   33.8410    9.6060 C.3   193  ILE193      0.1692
     46  C          7.1900   33.6220    8.2350 C.2   193  ILE193      0.2591
     47  O          6.5020   33.6920    7.2030 O.2   193  ILE193     -0.2718
     48  CB         6.8480   35.2780   10.0970 C.3   193  ILE193      0.0266
     49  CG1        5.9420   35.5380   11.3400 C.3   193  ILE193      0.0019
     50  CG2        6.4430   36.2490    9.0130 C.3   193  ILE193      0.0020
     51  CD1        6.3010   36.7590   12.1800 C.3   193  ILE193      0.0001
     52  N          8.4950   33.3580    8.2080 N.am  194  ALA194     -0.1980
     53  CA         9.1790   33.1830    6.9240 C.3   194  ALA194      0.1597
     54  C          8.6640   32.0210    6.1440 C.2   194  ALA194      0.2287
     55  O          8.5480   32.0810    4.9080 O.2   194  ALA194     -0.2864
     56  CB        10.6890   33.0580    7.1080 C.3   194  ALA194      0.0319
     57  N          5.3000   32.8260    4.3810 N.3   197  ILE197     -0.1231
     58  CA         5.5260   33.6460    3.2680 C.3   197  ILE197      0.1692
     59  C          6.2380   32.9460    2.1290 C.2   197  ILE197      0.2592
     60  O          5.8700   33.1100    0.9410 O.2   197  ILE197     -0.2718
     61  CB         6.3170   34.9130    3.6770 C.3   197  ILE197      0.0266
     62  CG1        5.4490   35.8040    4.5720 C.3   197  ILE197      0.0019
     63  CG2        6.7600   35.7010    2.4390 C.3   197  ILE197      0.0020
     64  CD1        6.2380   36.8750    5.2520 C.3   197  ILE197      0.0001
     65  N          7.2950   32.2140    2.4500 N.am  198  ASN198     -0.1974
     66  CA         8.0580   31.5320    1.4130 C.3   198  ASN198      0.1688
     67  C          7.2780   30.3780    0.7370 C.2   198  ASN198      0.2292
     68  O          7.4280   30.1650   -0.5070 O.2   198  ASN198     -0.2864
     69  CB         9.3570   31.0070    1.9890 C.3   198  ASN198      0.1181
     70  CG        10.4010   32.0830    2.1010 C.2   198  ASN198      0.2629
     71  OD1       10.6320   32.8480    1.1520 O.2   198  ASN198     -0.2716
     72  ND2       11.0150   32.1860    3.2550 N.am  198  ASN198     -0.0877
     73  N          3.1810   32.3240   -6.8030 N.3   204  LEU204     -0.1245
     74  CA         3.9260   32.7820   -7.9390 C.3   204  LEU204      0.1561
     75  C          4.1680   31.6940   -8.9730 C.2   204  LEU204      0.2260
     76  O          4.3200   32.0030  -10.1390 O.2   204  LEU204     -0.2867
     77  CB         5.2510   33.3950   -7.5070 C.3   204  LEU204      0.0270
     78  CG         5.1110   34.6550   -6.6340 C.3   204  LEU204      0.0019
     79  CD1        6.4900   34.9660   -6.0840 C.3   204  LEU204      0.0001
     80  CD2        4.4780   35.8200   -7.3670 C.3   204  LEU204      0.0001
     81  N          1.0430   31.6790  -10.7910 N.3   207  GLN207     -0.1196
     82  CA         1.0100   32.8180  -11.6790 C.3   207  GLN207      0.1782
     83  C          1.8630   32.5310  -12.9540 C.2   207  GLN207      0.2306
     84  O          1.4040   32.8910  -14.0370 O.2   207  GLN207     -0.2863
     85  CB         1.4140   34.1330  -10.9740 C.2   207  GLN207      0.0051
     86  CG         0.3650   34.7020   -9.9980 C.2   207  GLN207      0.0584
     87  CD         0.7430   36.0580   -9.3140 C.2   207  GLN207      0.2840
     88  OE1        1.7900   36.6720   -9.5880 O.2   207  GLN207     -0.2667
     89  NE2       -0.1240   36.5120   -8.4140 N.am  207  GLN207     -0.0837
@<TRIPOS>BOND
     1    84    83    2
     2    83    82    1
     3    82    85    1
     4    82    81    1
     5    85    86    2
     6     8     6   am
     7     1     2    1
     8    76    75    2
     9    86    87    1
    10     6     7    2
    11     6     5    1
    12    88    87    2
    13    87    89   am
    14     5     2    1
    15     2     3    1
    16    75    74    1
    17    16    14   am
    18     3     4    2
    19    74    77    1
    20    74    73    1
    21    15    14    2
    22    77    78    1
    23    14    13    1
    24    80    78    1
    25     9    10    1
    26    78    79    1
    27    13    10    1
    28    10    11    1
    29    17    11   am
    30    17    18    1
    31    11    12    2
    32    21    18    1
    33    21    22    1
    34    18    19    1
    35    24    22    1
    36    19    20    2
    37    22    23    1
    38    31    29    1
    39    25    26    1
    40    29    26    1
    41    29    30    1
    42    26    27    1
    43    68    67    2
    44    32    27   am
    45    32    33    1
    46    27    28    2
    47    67    66    1
    48    60    59    2
    49    71    70    2
    50    33    34    1
    51    66    69    1
    52    66    65    1
    53    69    70    1
    54    34    35    2
    55    70    72   am
    56    59    65   am
    57    59    58    1
    58    63    61    1
    59    58    61    1
    60    58    57    1
    61    61    62    1
    62    62    64    1
    63    55    54    2
    64    36    37    1
    65    54    53    1
    66    42    40    1
    67    53    56    1
    68    53    52    1
    69    37    40    1
    70    37    38    1
    71    47    46    2
    72    40    41    1
    73    38    39    2
    74    52    46   am
    75    46    45    1
    76    41    43    1
    77    50    48    1
    78    45    48    1
    79    45    44    1
    80    48    49    1
    81    49    51    1
