@<TRIPOS>MOLECULE
tmp/5jsiB07.pdb
 84 79 0 0 0
SMALL
GASTEIGER

@<TRIPOS>ATOM
      1  N          0.6890    5.9760   20.1960 N.3    64  ASP64      -0.1239
      2  CA        -0.3120    6.5720   19.3360 C.3    64  ASP64       0.1674
      3  C         -0.7180    5.6000   18.2170 C.2    64  ASP64       0.2266
      4  O         -0.0110    5.4800   17.1960 O.2    64  ASP64      -0.2867
      5  CB         0.2760    7.8740   18.7430 C.3    64  ASP64       0.1410
      6  CG        -0.7020    8.6270   17.8780 C.2    64  ASP64       0.3668
      7  OD1       -1.9300    8.4660   18.0620 O.co2  64  ASP64      -0.2456
      8  OD2       -0.2280    9.3980   17.0230 O.co2  64  ASP64      -0.2456
      9  N         -2.8950    6.4340   16.2420 N.3    66  GLY66      -0.1210
     10  CA        -2.7770    7.5330   15.2580 C.3    66  GLY66       0.1956
     11  C         -1.6240    7.5200   14.2450 C.2    66  GLY66       0.2611
     12  O         -1.8090    7.8780   13.0690 O.2    66  GLY66      -0.2717
     13  N         -0.4350    7.1310   14.6930 N.am   67  LEU67      -0.1979
     14  CA         0.7310    7.2130   13.8350 C.3    67  LEU67       0.1596
     15  C          0.5900    6.1660   12.6950 C.2    67  LEU67       0.2287
     16  O          1.0750    6.3910   11.5630 O.2    67  LEU67      -0.2864
     17  CB         2.0490    7.1110   14.6460 C.3    67  LEU67       0.0297
     18  CG         2.5170    8.4410   15.3370 C.3    67  LEU67       0.0022
     19  CD1        3.5310    8.1630   16.4100 C.3    67  LEU67       0.0001
     20  CD2        3.0810    9.5210   14.3860 C.3    67  LEU67       0.0001
     21  N         -2.3190    5.2490   11.2270 N.3    69  TYR69      -0.1227
     22  CA        -3.1560    5.7400   10.1980 C.3    69  TYR69       0.1736
     23  C         -2.5250    6.8520    9.4600 C.2    69  TYR69       0.2595
     24  O         -2.8520    7.0190    8.2920 O.2    69  TYR69      -0.2718
     25  CB        -4.5590    6.0980   10.7190 C.3    69  TYR69       0.0548
     26  CG        -5.4890    4.9260   10.8280 C.ar   69  TYR69      -0.0200
     27  CD1       -5.4350    4.0650   11.9240 C.ar   69  TYR69      -0.0009
     28  CD2       -6.4340    4.6870    9.8380 C.ar   69  TYR69      -0.0009
     29  CE1       -6.3090    2.9850   12.0370 C.ar   69  TYR69       0.0417
     30  CE2       -7.2990    3.6020    9.9140 C.ar   69  TYR69       0.0417
     31  CZ        -7.2550    2.7630   10.9940 C.ar   69  TYR69       0.1957
     32  OH        -8.1340    1.7090   11.0450 O.3    69  TYR69      -0.2866
     33  N         -1.6260    7.6470   10.0790 N.am   70  VAL70      -0.1980
     34  CA        -0.9570    8.7360    9.3030 C.3    70  VAL70       0.1595
     35  C         -0.1240    8.1260    8.2280 C.2    70  VAL70       0.2287
     36  O         -0.0370    8.6750    7.1170 O.2    70  VAL70      -0.2864
     37  CB         0.0520    9.6730   10.0360 C.3    70  VAL70       0.0276
     38  CG1        0.2560   10.9410    9.1900 C.3    70  VAL70       0.0022
     39  CG2       -0.3960   10.0590   11.4240 C.3    70  VAL70       0.0022
     40  N         -2.5600    6.6910    5.3940 N.3    73  VAL73      -0.1245
     41  CA        -3.2000    7.6850    4.5670 C.3    73  VAL73       0.1561
     42  C         -2.2520    8.2010    3.4690 C.2    73  VAL73       0.2260
     43  O         -2.7060    8.6370    2.3990 O.2    73  VAL73      -0.2867
     44  CB        -3.8250    8.8600    5.4020 C.3    73  VAL73       0.0252
     45  CG1       -2.8460    9.9630    5.7820 C.3    73  VAL73       0.0019
     46  CG2       -4.9970    9.4460    4.6590 C.3    73  VAL73       0.0019
     47  N         -7.7510    7.2240   -0.0690 N.3   105  THR105     -0.1203
     48  CA        -7.7900    8.1740    1.0260 C.3   105  THR105      0.1994
     49  C         -9.0370    8.0700    1.8430 C.2   105  THR105      0.2617
     50  O         -8.9770    8.1010    3.0540 O.2   105  THR105     -0.2717
     51  CB        -7.6890    9.6380    0.5100 C.3   105  THR105      0.1784
     52  OG1       -6.4610    9.7890   -0.1660 O.3   105  THR105     -0.2211
     53  CG2       -7.6570   10.5830    1.6600 C.3   105  THR105      0.0376
     54  N        -10.1720    8.0190    1.1580 N.am  106  VAL106     -0.1979
     55  CA       -11.4920    7.8270    1.7960 C.3   106  VAL106      0.1595
     56  C        -11.5420    6.5580    2.5870 C.2   106  VAL106      0.2287
     57  O        -12.0200    6.5470    3.7220 O.2   106  VAL106     -0.2864
     58  CB       -12.6170    7.8310    0.7540 C.3   106  VAL106      0.0276
     59  CG1      -13.9180    7.2560    1.3140 C.3   106  VAL106      0.0022
     60  CG2      -12.8220    9.2430    0.2380 C.3   106  VAL106      0.0022
     61  N         -9.0730    4.9730    4.0950 N.3   108  ILE108     -0.1231
     62  CA        -8.2710    5.0680    5.3260 C.3   108  ILE108      0.1692
     63  C         -8.9300    6.0380    6.3050 C.2   108  ILE108      0.2592
     64  O         -8.9570    5.7910    7.4710 O.2   108  ILE108     -0.2718
     65  CB        -6.7950    5.4980    5.0220 C.3   108  ILE108      0.0266
     66  CG1       -6.0770    4.4550    4.1140 C.3   108  ILE108      0.0019
     67  CG2       -6.0170    5.7990    6.2910 C.3   108  ILE108      0.0020
     68  CD1       -6.0870    3.0160    4.5780 C.3   108  ILE108      0.0001
     69  N         -9.4360    7.1230    5.7940 N.am  109  GLY109     -0.1957
     70  CA       -10.1950    8.1220    6.6160 C.3   109  GLY109      0.1869
     71  C        -11.4390    7.5480    7.2760 C.2   109  GLY109      0.2309
     72  O        -11.6360    7.7460    8.4520 O.2   109  GLY109     -0.2863
     73  N        -10.2420    5.4560   10.0260 N.3   112  TYR112     -0.1241
     74  CA        -9.7480    6.2100   11.1870 C.3   112  TYR112      0.1605
     75  C        -10.9680    6.7160   11.9630 C.2   112  TYR112      0.2264
     76  O        -11.0580    6.6100   13.2130 O.2   112  TYR112     -0.2867
     77  CB        -8.9150    7.4140   10.7290 C.3   112  TYR112      0.0534
     78  CG        -8.3240    8.1460   11.9070 C.ar  112  TYR112     -0.0201
     79  CD1       -7.4790    7.4710   12.7830 C.ar  112  TYR112     -0.0009
     80  CD2       -8.6560    9.5020   12.1840 C.ar  112  TYR112     -0.0009
     81  CE1       -6.9060    8.1320   13.8910 C.ar  112  TYR112      0.0417
     82  CE2       -8.0990   10.1830   13.3060 C.ar  112  TYR112      0.0417
     83  CZ        -7.2270    9.4860   14.1440 C.ar  112  TYR112      0.1957
     84  OH        -6.6730   10.0790   15.2700 O.3   112  TYR112     -0.2866
@<TRIPOS>BOND
     1    52    51    1
     2    47    48    1
     3    60    58    1
     4    51    48    1
     5    51    53    1
     6    58    59    1
     7    58    55    1
     8    48    49    1
     9    54    55    1
    10    54    49   am
    11    55    56    1
    12    49    50    2
    13    43    42    2
    14    56    57    2
    15    42    41    1
    16    61    62    1
    17    66    68    1
    18    66    65    1
    19    41    40    1
    20    41    44    1
    21    46    44    1
    22    65    62    1
    23    65    67    1
    24    62    63    1
    25    44    45    1
    26    69    63   am
    27    69    70    1
    28    63    64    2
    29    70    71    1
    30    36    35    2
    31    71    72    2
    32    35    34    1
    33    24    23    2
    34    38    37    1
    35    34    37    1
    36    34    33    1
    37    23    33   am
    38    23    22    1
    39    28    30   ar
    40    28    26   ar
    41    30    31   ar
    42    73    74    1
    43    37    39    1
    44    22    25    1
    45    22    21    1
    46    25    26    1
    47    77    74    1
    48    77    78    1
    49    26    27   ar
    50    31    32    1
    51    31    29   ar
    52    74    75    1
    53    16    15    2
    54    78    80   ar
    55    78    79   ar
    56    27    29   ar
    57    75    76    2
    58    80    82   ar
    59    15    14    1
    60    79    81   ar
    61    12    11    2
    62    82    83   ar
    63    14    17    1
    64    14    13    1
    65    81    83   ar
    66    83    84    1
    67    11    13   am
    68    11    10    1
    69    20    18    1
    70    17    18    1
    71    10     9    1
    72    18    19    1
    73     8     6   ar
    74     4     3    2
    75     6     7   ar
    76     6     5    1
    77     3     2    1
    78     5     2    1
    79     2     1    1
