@<TRIPOS>MOLECULE
tmp/5jsiB03.pdb
 97 88 0 0 0
SMALL
GASTEIGER

@<TRIPOS>ATOM
      1  N          1.3680  -11.2060  -10.3730 N.3   159  ASN159     -0.1240
      2  CA         2.0360  -11.2150   -9.0670 C.3   159  ASN159      0.1653
      3  C          1.7540   -9.9030   -8.1960 C.2   159  ASN159      0.2266
      4  O          1.5360   -9.9840   -7.0380 O.2   159  ASN159     -0.2867
      5  CB         3.5330  -11.4180   -9.2120 C.3   159  ASN159      0.1155
      6  CG         3.8810  -12.7840   -9.8050 C.2   159  ASN159      0.2627
      7  OD1        3.1250  -13.7260   -9.6470 O.2   159  ASN159     -0.2716
      8  ND2        5.0370  -12.8820  -10.4440 N.am  159  ASN159     -0.0877
      9  N         -2.0250  -10.1110   -7.0600 N.3   162  ASN162     -0.1225
     10  CA        -2.1760  -11.1110   -5.9900 C.3   162  ASN162      0.1785
     11  C         -1.4960  -10.7660   -4.6970 C.2   162  ASN162      0.2597
     12  O         -2.0210  -11.0690   -3.6080 O.2   162  ASN162     -0.2718
     13  CB        -1.7640  -12.4900   -6.5060 C.3   162  ASN162      0.1169
     14  CG        -2.7460  -12.9960   -7.5660 C.2   162  ASN162      0.2627
     15  OD1       -3.8610  -12.4430   -7.7210 O.2   162  ASN162     -0.2716
     16  ND2       -2.3230  -13.9750   -8.3300 N.am  162  ASN162     -0.0877
     17  N         -0.3530  -10.0840   -4.7510 N.am  163  LEU163     -0.1980
     18  CA         0.1870   -9.5880   -3.4730 C.3   163  LEU163      0.1596
     19  C         -0.7880   -8.6470   -2.7220 C.2   163  LEU163      0.2287
     20  O         -0.9730   -8.7500   -1.5120 O.2   163  LEU163     -0.2864
     21  CB         1.5480   -8.9330   -3.6530 C.3   163  LEU163      0.0297
     22  CG         2.1070   -8.3570   -2.3710 C.3   163  LEU163      0.0022
     23  CD1        2.3480   -9.3460   -1.1940 C.3   163  LEU163      0.0001
     24  CD2        3.3700   -7.6040   -2.7420 C.3   163  LEU163      0.0001
     25  N         -4.2470  -10.6850   -1.6170 N.3   166  VAL166     -0.1231
     26  CA        -4.0680  -11.6060   -0.5150 C.3   166  VAL166      0.1692
     27  C         -3.4930  -10.8650    0.6240 C.2   166  VAL166      0.2592
     28  O         -3.9190  -11.0270    1.7560 O.2   166  VAL166     -0.2718
     29  CB        -3.1300  -12.8030   -0.9040 C.3   166  VAL166      0.0266
     30  CG1       -2.8250  -13.6960    0.2970 C.3   166  VAL166      0.0020
     31  CG2       -3.7760  -13.6420   -2.0190 C.3   166  VAL166      0.0020
     32  N         -2.5000  -10.0450    0.3350 N.am  167  GLY167     -0.1957
     33  CA        -1.7290   -9.4060    1.3910 C.3   167  GLY167      0.1869
     34  C         -2.4500   -8.3430    2.1770 C.2   167  GLY167      0.2309
     35  O         -2.1270   -8.1340    3.3390 O.2   167  GLY167     -0.2863
     36  N         -5.4870   -8.8060    5.6320 N.3   170  ILE170     -0.1245
     37  CA        -5.2310   -8.7040    7.0820 C.3   170  ILE170      0.1561
     38  C         -5.6640   -7.3890    7.7160 C.2   170  ILE170      0.2260
     39  O         -6.0500   -7.3760    8.8880 O.2   170  ILE170     -0.2867
     40  CB        -3.7380   -9.0230    7.4020 C.3   170  ILE170      0.0252
     41  CG1       -3.4640   -9.2190    8.8930 C.3   170  ILE170      0.0019
     42  CG2       -2.8740   -7.8730    6.9560 C.3   170  ILE170      0.0019
     43  CD1       -4.1540  -10.4180    9.5190 C.3   170  ILE170      0.0001
     44  N          0.8200   -8.3120   13.8650 N.3   190  LEU190     -0.1245
     45  CA         0.4830   -8.7880   12.4950 C.3   190  LEU190      0.1561
     46  C          0.5190   -7.6760   11.4480 C.2   190  LEU190      0.2260
     47  O          0.9900   -7.8810   10.3490 O.2   190  LEU190     -0.2867
     48  CB        -0.8760   -9.4860   12.4870 C.3   190  LEU190      0.0270
     49  CG        -0.9240  -10.8400   13.2400 C.3   190  LEU190      0.0019
     50  CD1       -2.2700  -11.5070   13.0000 C.3   190  LEU190      0.0001
     51  CD2        0.1450  -11.7890   12.7880 C.3   190  LEU190      0.0001
     52  N          4.2060   -6.8890   10.5540 N.3   193  ILE193     -0.1231
     53  CA         4.6750   -7.8890    9.6210 C.3   193  ILE193      0.1692
     54  C          4.1170   -7.7310    8.2170 C.2   193  ILE193      0.2591
     55  O          4.8380   -7.7350    7.2330 O.2   193  ILE193     -0.2718
     56  CB         4.4050   -9.3220   10.1470 C.3   193  ILE193      0.0266
     57  CG1        5.2530   -9.5440   11.4160 C.3   193  ILE193      0.0019
     58  CG2        4.8130  -10.3370    9.0970 C.3   193  ILE193      0.0020
     59  CD1        4.8680  -10.7680   12.2370 C.3   193  ILE193      0.0001
     60  N          2.8260   -7.5310    8.1660 N.am  194  ALA194     -0.1980
     61  CA         2.1210   -7.2310    6.9820 C.3   194  ALA194      0.1597
     62  C          2.6480   -6.0120    6.2390 C.2   194  ALA194      0.2287
     63  O          2.8330   -6.0610    5.0150 O.2   194  ALA194     -0.2864
     64  CB         0.6710   -7.0450    7.3090 C.3   194  ALA194      0.0319
     65  N          5.9700   -6.8390    4.5970 N.3   197  ILE197     -0.1231
     66  CA         5.7430   -7.6910    3.4150 C.3   197  ILE197      0.1692
     67  C          5.0730   -6.9580    2.2850 C.2   197  ILE197      0.2592
     68  O          5.4920   -7.0670    1.1340 O.2   197  ILE197     -0.2718
     69  CB         4.9620   -8.9740    3.7640 C.3   197  ILE197      0.0266
     70  CG1        5.7930   -9.8450    4.6730 C.3   197  ILE197      0.0019
     71  CG2        4.5860   -9.8250    2.5340 C.3   197  ILE197      0.0020
     72  CD1        4.9080  -10.7150    5.4920 C.3   197  ILE197      0.0001
     73  N          4.0170   -6.1980    2.6040 N.am  198  ASN198     -0.1974
     74  CA         3.2470   -5.5350    1.5790 C.3   198  ASN198      0.1688
     75  C          4.0020   -4.3700    0.8830 C.2   198  ASN198      0.2292
     76  O          3.8620   -4.1940   -0.3600 O.2   198  ASN198     -0.2864
     77  CB         1.9440   -5.0360    2.1610 C.3   198  ASN198      0.1181
     78  CG         0.9120   -6.1470    2.2900 C.2   198  ASN198      0.2629
     79  OD1        0.6860   -6.8750    1.3480 O.2   198  ASN198     -0.2716
     80  ND2        0.2600   -6.2530    3.4560 N.am  198  ASN198     -0.0877
     81  N          8.0640   -6.2260   -6.6880 N.3   204  LEU204     -0.1245
     82  CA         7.3100   -6.6620   -7.8100 C.3   204  LEU204      0.1561
     83  C          7.0620   -5.5570   -8.8230 C.2   204  LEU204      0.2260
     84  O          6.8120   -5.8550   -9.9680 O.2   204  LEU204     -0.2867
     85  CB         5.9680   -7.2910   -7.3620 C.3   204  LEU204      0.0270
     86  CG         6.1250   -8.5550   -6.4770 C.3   204  LEU204      0.0019
     87  CD1        4.7580   -8.9010   -5.9420 C.3   204  LEU204      0.0001
     88  CD2        6.7680   -9.7100   -7.2530 C.3   204  LEU204      0.0001
     89  N         10.1770   -5.5570  -10.7110 N.3   207  GLN207     -0.1245
     90  CA        10.2010   -6.7040  -11.6540 C.3   207  GLN207      0.1566
     91  C          9.3940   -6.4290  -12.9070 C.2   207  GLN207      0.2260
     92  O          9.8120   -6.7290  -13.9950 O.2   207  GLN207     -0.2867
     93  CB         9.7760   -8.0210  -10.9950 C.3   207  GLN207      0.0367
     94  CG        10.8690   -8.5810  -10.0930 C.3   207  GLN207      0.0905
     95  CD        10.5040   -9.8920   -9.4110 C.2   207  GLN207      0.2608
     96  OE1        9.5140  -10.5250   -9.7560 O.2   207  GLN207     -0.2717
     97  NE2       11.3250  -10.3030   -8.4280 N.am  207  GLN207     -0.0878
@<TRIPOS>BOND
     1    92    91    2
     2    91    90    1
     3    90    93    1
     4    90    89    1
     5    93    94    1
     6     8     6   am
     7     1     2    1
     8    94    95    1
     9    84    83    2
    10     6     7    2
    11     6     5    1
    12    96    95    2
    13    95    97   am
    14     5     2    1
    15     2     3    1
    16    83    82    1
    17    16    14   am
    18     3     4    2
    19    82    85    1
    20    82    81    1
    21    15    14    2
    22    14    13    1
    23    85    86    1
    24    88    86    1
    25     9    10    1
    26    13    10    1
    27    86    87    1
    28    10    11    1
    29    17    11   am
    30    17    18    1
    31    11    12    2
    32    21    18    1
    33    21    22    1
    34    18    19    1
    35    24    22    1
    36    19    20    2
    37    22    23    1
    38    31    29    1
    39    25    26    1
    40    29    26    1
    41    29    30    1
    42    26    27    1
    43    76    75    2
    44    32    27   am
    45    32    33    1
    46    27    28    2
    47    75    74    1
    48    68    67    2
    49    79    78    2
    50    33    34    1
    51    74    77    1
    52    74    73    1
    53    77    78    1
    54    34    35    2
    55    67    73   am
    56    67    66    1
    57    78    80   am
    58    71    69    1
    59    66    69    1
    60    66    65    1
    61    69    70    1
    62    70    72    1
    63    63    62    2
    64    36    37    1
    65    62    61    1
    66    42    40    1
    67    61    64    1
    68    61    60    1
    69    37    40    1
    70    37    38    1
    71    55    54    2
    72    40    41    1
    73    38    39    2
    74    60    54   am
    75    54    53    1
    76    41    43    1
    77    58    56    1
    78    53    56    1
    79    53    52    1
    80    56    57    1
    81    47    46    2
    82    57    59    1
    83    46    45    1
    84    48    45    1
    85    48    49    1
    86    45    44    1
    87    51    49    1
    88    50    49    1
