@<TRIPOS>MOLECULE
tmp/5jsiA08.pdb
 84 79 0 0 0
SMALL
GASTEIGER

@<TRIPOS>ATOM
      1  N         10.5790   19.7820   20.3220 N.3    64  ASP64      -0.1239
      2  CA        11.4830   19.0540   19.4300 C.3    64  ASP64       0.1674
      3  C         11.9010   19.9050   18.2040 C.2    64  ASP64       0.2266
      4  O         11.1820   19.9960   17.2210 O.2    64  ASP64      -0.2867
      5  CB        10.8000   17.7480   19.0090 C.3    64  ASP64       0.1410
      6  CG        11.5890   16.9630   17.9880 C.2    64  ASP64       0.3668
      7  OD1       12.7760   17.2450   17.8000 O.co2  64  ASP64      -0.2456
      8  OD2       11.0010   16.0590   17.3680 O.co2  64  ASP64      -0.2456
      9  N         14.0940   19.2500   15.9480 N.3    66  GLY66      -0.1210
     10  CA        14.1870   18.4260   14.7370 C.3    66  GLY66       0.1956
     11  C         12.9840   18.4180   13.8060 C.2    66  GLY66       0.2611
     12  O         13.1120   18.1590   12.5780 O.2    66  GLY66      -0.2717
     13  N         11.8050   18.6840   14.3560 N.am   67  LEU67      -0.1979
     14  CA        10.5960   18.7060   13.5400 C.3    67  LEU67       0.1596
     15  C         10.7270   19.7250   12.3970 C.2    67  LEU67       0.2287
     16  O         10.3360   19.4670   11.2610 O.2    67  LEU67      -0.2864
     17  CB         9.3870   19.0610   14.4040 C.3    67  LEU67       0.0297
     18  CG         8.9350   17.8540   15.2400 C.3    67  LEU67       0.0022
     19  CD1        8.1260   18.3230   16.4470 C.3    67  LEU67       0.0001
     20  CD2        8.1370   16.8560   14.3700 C.3    67  LEU67       0.0001
     21  N         13.5050   20.6430   11.0000 N.3    69  TYR69      -0.1227
     22  CA        14.3830   20.1280    9.9830 C.3    69  TYR69       0.1736
     23  C         13.7910   18.9980    9.2140 C.2    69  TYR69       0.2595
     24  O         14.1420   18.8160    8.0210 O.2    69  TYR69      -0.2718
     25  CB        15.7720   19.7810   10.5480 C.3    69  TYR69       0.0548
     26  CG        16.7150   20.9740   10.6140 C.ar   69  TYR69      -0.0200
     27  CD1       16.6280   21.8800   11.6540 C.ar   69  TYR69      -0.0009
     28  CD2       17.7160   21.1800    9.6410 C.ar   69  TYR69      -0.0009
     29  CE1       17.5120   22.9520   11.7570 C.ar   69  TYR69       0.0417
     30  CE2       18.5910   22.2700    9.7430 C.ar   69  TYR69       0.0417
     31  CZ        18.4780   23.1440   10.7930 C.ar   69  TYR69       0.1957
     32  OH        19.2990   24.2390   10.9140 O.3    69  TYR69      -0.2866
     33  N         12.9090   18.2110    9.8570 N.am   70  VAL70      -0.1980
     34  CA        12.1750   17.1940    9.1130 C.3    70  VAL70       0.1595
     35  C         11.3420   17.8580    8.0060 C.2    70  VAL70       0.2287
     36  O         11.3250   17.3990    6.8700 O.2    70  VAL70      -0.2864
     37  CB        11.2810   16.2990   10.0270 C.3    70  VAL70       0.0276
     38  CG1       10.4790   15.3010    9.2060 C.3    70  VAL70       0.0022
     39  CG2       12.1290   15.5500   11.0260 C.3    70  VAL70       0.0022
     40  N         13.7590   19.3380    5.2410 N.3    73  VAL73      -0.1245
     41  CA        14.4110   18.3730    4.3320 C.3    73  VAL73       0.1561
     42  C         13.4370   17.8520    3.2750 C.2    73  VAL73       0.2260
     43  O         13.8210   17.4750    2.1400 O.2    73  VAL73      -0.2867
     44  CB        15.1480   17.2370    5.0950 C.3    73  VAL73       0.0252
     45  CG1       14.2270   16.1430    5.5070 C.3    73  VAL73       0.0019
     46  CG2       16.2150   16.6610    4.2160 C.3    73  VAL73       0.0019
     47  N         18.9700   18.8000   -0.2860 N.3   105  THR105     -0.1203
     48  CA        19.0130   17.8560    0.7710 C.3   105  THR105      0.1994
     49  C         20.2730   17.9250    1.6010 C.2   105  THR105      0.2617
     50  O         20.2290   17.8760    2.8190 O.2   105  THR105     -0.2717
     51  CB        18.8510   16.4190    0.1900 C.3   105  THR105      0.1784
     52  OG1       17.6250   16.3720   -0.5120 O.3   105  THR105     -0.2211
     53  CG2       18.7380   15.4450    1.2930 C.3   105  THR105      0.0376
     54  N         21.3950   18.0350    0.9290 N.am  106  VAL106     -0.1979
     55  CA        22.6850   18.2220    1.5570 C.3   106  VAL106      0.1595
     56  C         22.7570   19.4980    2.3730 C.2   106  VAL106      0.2287
     57  O         23.2270   19.5010    3.5120 O.2   106  VAL106     -0.2864
     58  CB        23.7900   18.1670    0.4770 C.3   106  VAL106      0.0276
     59  CG1       25.0950   18.8020    0.9340 C.3   106  VAL106      0.0022
     60  CG2       24.0000   16.7070    0.0700 C.3   106  VAL106      0.0022
     61  N         20.2850   21.0890    3.8610 N.3   108  ILE108     -0.1231
     62  CA        19.5380   20.9730    5.1170 C.3   108  ILE108      0.1692
     63  C         20.2060   19.9920    6.0910 C.2   108  ILE108      0.2592
     64  O         20.2170   20.1940    7.3050 O.2   108  ILE108     -0.2718
     65  CB        18.0420   20.5860    4.8080 C.3   108  ILE108      0.0266
     66  CG1       17.3830   21.6580    3.9370 C.3   108  ILE108      0.0019
     67  CG2       17.2760   20.3060    6.1020 C.3   108  ILE108      0.0020
     68  CD1       17.3280   23.0460    4.4920 C.3   108  ILE108      0.0001
     69  N         20.7540   18.9200    5.5380 N.am  109  GLY109     -0.1957
     70  CA        21.5510   17.9190    6.3040 C.3   109  GLY109      0.1869
     71  C         22.7540   18.5100    7.0160 C.2   109  GLY109      0.2309
     72  O         22.8990   18.3220    8.2190 O.2   109  GLY109     -0.2863
     73  N         21.4610   20.5480    9.8070 N.3   112  TYR112     -0.1241
     74  CA        21.0580   19.7530   10.9220 C.3   112  TYR112      0.1605
     75  C         22.2920   19.2570   11.7430 C.2   112  TYR112      0.2264
     76  O         22.3080   19.3510   12.9750 O.2   112  TYR112     -0.2867
     77  CB        20.2780   18.5690   10.4570 C.3   112  TYR112      0.0534
     78  CG        19.7040   17.7740   11.6160 C.ar  112  TYR112     -0.0201
     79  CD1       18.8370   18.3870   12.5460 C.ar  112  TYR112     -0.0009
     80  CD2       20.0660   16.4380   11.8280 C.ar  112  TYR112     -0.0009
     81  CE1       18.3100   17.6720   13.6190 C.ar  112  TYR112      0.0417
     82  CE2       19.5600   15.7180   12.9090 C.ar  112  TYR112      0.0417
     83  CZ        18.6680   16.3410   13.7860 C.ar  112  TYR112      0.1957
     84  OH        18.1380   15.6510   14.8450 O.3   112  TYR112     -0.2866
@<TRIPOS>BOND
     1    52    51    1
     2    47    48    1
     3    60    58    1
     4    51    48    1
     5    51    53    1
     6    58    59    1
     7    58    55    1
     8    48    49    1
     9    54    55    1
    10    54    49   am
    11    55    56    1
    12    49    50    2
    13    43    42    2
    14    56    57    2
    15    42    41    1
    16    61    62    1
    17    66    68    1
    18    66    65    1
    19    46    44    1
    20    41    44    1
    21    41    40    1
    22    65    62    1
    23    65    67    1
    24    44    45    1
    25    62    63    1
    26    69    63   am
    27    69    70    1
    28    63    64    2
    29    70    71    1
    30    36    35    2
    31    71    72    2
    32    35    34    1
    33    24    23    2
    34    34    33    1
    35    34    37    1
    36    38    37    1
    37    23    33   am
    38    23    22    1
    39    28    30   ar
    40    28    26   ar
    41    30    31   ar
    42    73    74    1
    43    22    25    1
    44    22    21    1
    45    37    39    1
    46    77    74    1
    47    77    78    1
    48    25    26    1
    49    26    27   ar
    50    31    32    1
    51    31    29   ar
    52    74    75    1
    53    16    15    2
    54    78    80   ar
    55    78    79   ar
    56    27    29   ar
    57    75    76    2
    58    80    82   ar
    59    15    14    1
    60    79    81   ar
    61    12    11    2
    62    82    83   ar
    63    14    13    1
    64    14    17    1
    65    81    83   ar
    66    83    84    1
    67    11    13   am
    68    11    10    1
    69    20    18    1
    70    17    18    1
    71    10     9    1
    72    18    19    1
    73     4     3    2
    74     8     6   ar
    75     7     6   ar
    76     6     5    1
    77     3     2    1
    78     5     2    1
    79     2     1    1
