@<TRIPOS>MOLECULE
tmp/5jsiB05.pdb
 79 72 0 0 0
SMALL
GASTEIGER

@<TRIPOS>ATOM
      1  N         10.1060   -4.7450   19.4450 N.3     6  ARG6       -0.1245
      2  CA        11.1450   -5.3600   18.6280 C.3     6  ARG6        0.1563
      3  C         10.7660   -5.4090   17.1250 C.2     6  ARG6        0.2260
      4  O         11.5920   -5.1180   16.2550 O.2     6  ARG6       -0.2867
      5  CB        11.3900   -6.7890   19.1140 C.3     6  ARG6        0.0307
      6  CG        12.0040   -6.8730   20.4910 C.3     6  ARG6        0.0489
      7  CD        12.3040   -8.3080   20.8660 C.3     6  ARG6        0.2205
      8  NE        11.0870   -9.0050   21.2830 N.pl3   6  ARG6       -0.0865
      9  CZ        11.0360  -10.2900   21.6040 C.cat   6  ARG6        0.5346
     10  NH1       12.1420  -11.0240   21.5020 N.pl3   6  ARG6        0.1354
     11  NH2        9.8840  -10.8380   22.0000 N.pl3   6  ARG6        0.1354
     12  N         11.2200   -2.0580   15.3780 N.3     9  MET9       -0.1230
     13  CA        12.6290   -1.8570   14.9660 C.3     9  MET9        0.1702
     14  C         12.9900   -2.7410   13.8040 C.2     9  MET9        0.2592
     15  O         13.6540   -2.2900   12.9040 O.2     9  MET9       -0.2718
     16  CB        13.6290   -2.0850   16.1120 C.3     9  MET9        0.0401
     17  CG        15.0830   -1.6800   15.7340 C.3     9  MET9        0.0596
     18  SD        15.3810    0.1240   15.6190 S.3     9  MET9       -0.1393
     19  CE        16.1500    0.4170   14.0310 C.3     9  MET9        0.0692
     20  N         12.5430   -4.0000   13.7970 N.am   10  VAL10      -0.1980
     21  CA        12.7670   -4.8270   12.6230 C.3    10  VAL10       0.1595
     22  C         12.1660   -4.1840   11.3730 C.2    10  VAL10       0.2287
     23  O         12.7690   -4.1830   10.2900 O.2    10  VAL10      -0.2864
     24  CB        12.1660   -6.2540   12.8130 C.3    10  VAL10       0.0276
     25  CG1       11.9900   -6.9430   11.4690 C.3    10  VAL10       0.0022
     26  CG2       13.0280   -7.0920   13.7660 C.3    10  VAL10       0.0022
     27  N         14.1710   -1.3900   10.0730 N.3    13  VAL13      -0.1231
     28  CA        15.3430   -1.7260    9.3170 C.3    13  VAL13       0.1692
     29  C         14.9900   -2.2810    7.9590 C.2    13  VAL13       0.2592
     30  O         15.6280   -1.9840    6.9530 O.2    13  VAL13      -0.2718
     31  CB        16.2640   -2.6690   10.1100 C.3    13  VAL13       0.0266
     32  CG1       17.4850   -2.9930    9.2650 C.3    13  VAL13       0.0020
     33  CG2       16.7080   -1.9850   11.4030 C.3    13  VAL13       0.0020
     34  N         13.9240   -3.0620    7.9050 N.am   14  GLY14      -0.1957
     35  CA        13.4560   -3.5600    6.6350 C.3    14  GLY14       0.1869
     36  C         12.9720   -2.5190    5.6670 C.2    14  GLY14       0.2309
     37  O         13.2370   -2.6280    4.4480 O.2    14  GLY14      -0.2863
     38  N         15.9890   -0.8010    4.2670 N.3    17  ALA17      -0.1231
     39  CA        16.6550   -1.6920    3.2880 C.3    17  ALA17       0.1694
     40  C         15.8980   -1.6940    2.0140 C.2    17  ALA17       0.2592
     41  O         16.4930   -1.5800    0.9390 O.2    17  ALA17      -0.2718
     42  CB        16.8000   -3.1000    3.7970 C.3    17  ALA17       0.0304
     43  N         14.5590   -1.7860    2.1180 N.am   18  GLY18      -0.1957
     44  CA        13.7410   -1.7440    0.9240 C.3    18  GLY18       0.1869
     45  C         13.9170   -0.4400    0.1910 C.2    18  GLY18       0.2309
     46  O         14.0910   -0.4090   -1.0150 O.2    18  GLY18      -0.2863
     47  N         17.3580   -0.4170   -1.4830 N.3    21  PHE21      -0.1241
     48  CA        17.4260   -1.4500   -2.5150 C.3    21  PHE21       0.1605
     49  C         16.7520   -0.9330   -3.7630 C.2    21  PHE21       0.2264
     50  O         17.2720   -1.0380   -4.8710 O.2    21  PHE21      -0.2867
     51  CB        16.7530   -2.7660   -2.0520 C.3    21  PHE21       0.0534
     52  CG        16.6160   -3.8160   -3.1400 C.ar   21  PHE21      -0.0203
     53  CD1       17.7180   -4.5910   -3.5280 C.ar   21  PHE21      -0.0042
     54  CD2       15.3990   -4.0330   -3.7830 C.ar   21  PHE21      -0.0042
     55  CE1       17.6000   -5.5620   -4.5100 C.ar   21  PHE21      -0.0003
     56  CE2       15.2830   -4.9930   -4.7670 C.ar   21  PHE21      -0.0003
     57  CZ        16.3850   -5.7610   -5.1220 C.ar   21  PHE21      -0.0000
     58  N          5.6150   -4.6040    6.3620 N.3   196  ILE196     -0.1245
     59  CA         6.9570   -4.9560    5.7840 C.3   196  ILE196      0.1561
     60  C          6.7710   -5.7620    4.5150 C.2   196  ILE196      0.2260
     61  O          7.2900   -5.3730    3.4610 O.2   196  ILE196     -0.2867
     62  CB         7.8290   -5.7670    6.7710 C.3   196  ILE196      0.0252
     63  CG1        8.0730   -4.9410    7.9950 C.3   196  ILE196      0.0019
     64  CG2        9.1640   -6.1530    6.1400 C.3   196  ILE196      0.0019
     65  CD1        8.4810   -5.7500    9.1850 C.3   196  ILE196      0.0001
     66  N          7.5660   -3.6510    1.0330 N.3   199  VAL199     -0.1245
     67  CA         8.8330   -4.0360    0.3680 C.3   199  VAL199      0.1561
     68  C          8.5520   -4.9440   -0.8170 C.2   199  VAL199      0.2260
     69  O          9.0960   -4.7390   -1.8990 O.2   199  VAL199     -0.2867
     70  CB         9.8290   -4.6380    1.3640 C.3   199  VAL199      0.0252
     71  CG1       11.1090   -5.0700    0.6510 C.3   199  VAL199      0.0019
     72  CG2       10.1320   -3.6500    2.4610 C.3   199  VAL199      0.0019
     73  N          9.3460   -4.5190   -4.7890 N.3   203  VAL203     -0.1245
     74  CA        10.0940   -5.5390   -5.5510 C.3   203  VAL203      0.1561
     75  C          9.3610   -5.9590   -6.8040 C.2   203  VAL203      0.2260
     76  O          9.9580   -6.0080   -7.8840 O.2   203  VAL203     -0.2867
     77  CB        10.4530   -6.7520   -4.6790 C.3   203  VAL203      0.0252
     78  CG1       11.1580   -7.8260   -5.5080 C.3   203  VAL203      0.0019
     79  CG2       11.3350   -6.2820   -3.5350 C.3   203  VAL203      0.0019
@<TRIPOS>BOND
     1    76    75    2
     2    75    74    1
     3    74    73    1
     4    74    77    1
     5    78    77    1
     6    57    56   ar
     7    57    55   ar
     8    50    49    2
     9    56    54   ar
    10    77    79    1
    11    55    53   ar
    12    54    52   ar
    13    49    48    1
    14    53    52   ar
    15    52    51    1
    16    48    51    1
    17    48    47    1
    18    69    68    2
    19    46    45    2
    20    68    67    1
    21    45    44    1
    22    67    66    1
    23    67    70    1
    24    71    70    1
    25    44    43    1
    26    41    40    2
    27    70    72    1
    28    40    43   am
    29    40    39    1
    30    39    42    1
    31    39    38    1
    32    61    60    2
    33    37    36    2
    34    60    59    1
    35    36    35    1
    36    59    58    1
    37    59    62    1
    38    64    62    1
    39    35    34    1
    40    62    63    1
    41    30    29    2
    42    34    29   am
    43    29    28    1
    44    63    65    1
    45    32    31    1
    46    28    27    1
    47    28    31    1
    48    31    33    1
    49    23    22    2
    50    22    21    1
    51    25    24    1
    52    21    24    1
    53    21    20    1
    54    24    26    1
    55    15    14    2
    56    20    14   am
    57    14    13    1
    58    19    18    1
    59    13    12    1
    60    13    16    1
    61    18    17    1
    62    17    16    1
    63     4     3    2
    64     3     2    1
    65     2     5    1
    66     2     1    1
    67     5     6    1
    68     6     7    1
    69     7     8    1
    70     8     9    2
    71    10     9    1
    72     9    11    1
