@<TRIPOS>MOLECULE
tmp/5jsiB04.pdb
 97 94 0 0 0
SMALL
GASTEIGER

@<TRIPOS>ATOM
      1  N         13.8590    0.6590    0.9080 N.3    19  THR19      -0.1218
      2  CA        14.0600    1.9500    0.2460 C.3    19  THR19       0.1862
      3  C         15.4030    1.9860   -0.5450 C.2    19  THR19       0.2287
      4  O         15.4250    2.3180   -1.7370 O.2    19  THR19      -0.2866
      5  CB        14.0760    3.1060    1.2770 C.3    19  THR19       0.1770
      6  OG1       12.8920    3.0550    2.1010 O.3    19  THR19      -0.2211
      7  CG2       14.1470    4.4250    0.6100 C.3    19  THR19       0.0375
      8  N         15.9890    2.2270   -4.5920 N.3    23  LEU23      -0.1245
      9  CA        16.7000    3.3880   -5.2050 C.3    23  LEU23       0.1561
     10  C         17.9200    2.9150   -5.9840 C.2    23  LEU23       0.2260
     11  O         18.0730    3.2510   -7.1430 O.2    23  LEU23      -0.2867
     12  CB        17.1320    4.4030   -4.1710 C.3    23  LEU23       0.0270
     13  CG        16.0090    5.1440   -3.4540 C.3    23  LEU23       0.0019
     14  CD1       16.6420    5.9670   -2.3390 C.3    23  LEU23       0.0001
     15  CD2       15.1420    6.0030   -4.3600 C.3    23  LEU23       0.0001
     16  N          9.4830    5.4340  -12.7630 N.3    35  ARG35      -0.1245
     17  CA         8.5440    6.1710  -11.9080 C.3    35  ARG35       0.1563
     18  C          7.9670    5.2960  -10.7700 C.2    35  ARG35       0.2260
     19  O          8.0600    5.6470   -9.6060 O.2    35  ARG35      -0.2867
     20  CB         7.4390    6.7120  -12.7850 C.3    35  ARG35       0.0307
     21  CG         6.3200    7.4740  -12.0900 C.3    35  ARG35       0.0489
     22  CD         5.2030    7.7500  -13.0890 C.3    35  ARG35       0.2205
     23  NE         5.3670    9.0320  -13.7760 N.pl3  35  ARG35      -0.0865
     24  CZ         4.7090    9.4070  -14.8820 C.cat  35  ARG35       0.5346
     25  NH1        4.9450   10.6170  -15.3930 N.pl3  35  ARG35       0.1354
     26  NH2        3.8360    8.5920  -15.4970 N.pl3  35  ARG35       0.1354
     27  N         10.5250    4.5210   -8.2070 N.3    38  TYR38      -0.1227
     28  CA        10.7920    5.6950   -7.3560 C.3    38  TYR38       0.1736
     29  C          9.6810    5.8790   -6.3030 C.2    38  TYR38       0.2595
     30  O          9.9590    6.0570   -5.1000 O.2    38  TYR38      -0.2718
     31  CB        10.8940    6.9610   -8.2240 C.3    38  TYR38       0.0548
     32  CG        12.1550    7.1200   -9.0460 C.ar   38  TYR38      -0.0200
     33  CD1       13.4060    6.9630   -8.4780 C.ar   38  TYR38      -0.0009
     34  CD2       12.0800    7.5100  -10.4090 C.ar   38  TYR38      -0.0009
     35  CE1       14.5550    7.1640   -9.2240 C.ar   38  TYR38       0.0417
     36  CE2       13.2220    7.7120  -11.1630 C.ar   38  TYR38       0.0417
     37  CZ        14.4570    7.5380  -10.5630 C.ar   38  TYR38       0.1957
     38  OH        15.6070    7.7190  -11.2990 O.3    38  TYR38      -0.2866
     39  N          8.4490    5.7180   -6.7450 N.am   39  ILE39      -0.1980
     40  CA         7.3180    5.8550   -5.8030 C.3    39  ILE39       0.1595
     41  C          7.4020    4.7300   -4.7550 C.2    39  ILE39       0.2287
     42  O          7.1570    4.9550   -3.5840 O.2    39  ILE39      -0.2864
     43  CB         6.0040    5.8970   -6.5580 C.3    39  ILE39       0.0276
     44  CG1        6.0010    7.1880   -7.3830 C.3    39  ILE39       0.0022
     45  CG2        4.8310    5.9070   -5.5960 C.3    39  ILE39       0.0022
     46  CD1        4.8420    7.2910   -8.3170 C.3    39  ILE39       0.0001
     47  N         10.1400    3.2760   -3.5280 N.3    41  ALA41      -0.1231
     48  CA        11.1560    3.5940   -2.5320 C.3    41  ALA41       0.1694
     49  C         10.6010    4.6570   -1.6160 C.2    41  ALA41       0.2591
     50  O         10.8140    4.6360   -0.4310 O.2    41  ALA41      -0.2718
     51  CB        12.4280    4.1210   -3.2180 C.3    41  ALA41       0.0304
     52  N          9.8900    5.6210   -2.1770 N.am   42  LEU42      -0.1980
     53  CA         9.2140    6.6700   -1.3530 C.3    42  LEU42       0.1596
     54  C          8.2940    6.0650   -0.2680 C.2    42  LEU42       0.2287
     55  O          8.4200    6.3810    0.9500 O.2    42  LEU42      -0.2864
     56  CB         8.3720    7.5960   -2.2430 C.3    42  LEU42       0.0297
     57  CG         7.6510    8.7750   -1.5440 C.3    42  LEU42       0.0022
     58  CD1        8.5540    9.5640   -0.6000 C.3    42  LEU42       0.0001
     59  CD2        6.9900    9.6640   -2.6040 C.3    42  LEU42       0.0001
     60  N         10.3460    4.5310    2.3440 N.3    45  GLY45      -0.1210
     61  CA        10.9640    5.6010    3.1580 C.3    45  GLY45       0.1956
     62  C         10.0490    6.3040    4.1460 C.2    45  GLY45       0.2611
     63  O         10.4240    6.5030    5.2930 O.2    45  GLY45      -0.2717
     64  N          8.8450    6.5970    3.7090 N.am   46  ILE46      -0.1979
     65  CA         7.7660    7.0670    4.6010 C.3    46  ILE46       0.1595
     66  C          7.5110    6.0950    5.7090 C.2    46  ILE46       0.2287
     67  O          7.4060    6.5080    6.8650 O.2    46  ILE46      -0.2864
     68  CB         6.4380    7.3920    3.8210 C.3    46  ILE46       0.0276
     69  CG1        6.6620    8.5800    2.8920 C.3    46  ILE46       0.0022
     70  CG2        5.2710    7.7830    4.7830 C.3    46  ILE46       0.0022
     71  CD1        5.6600    8.7130    1.7760 C.3    46  ILE46       0.0001
     72  N          9.5720    3.6810    6.7690 N.3    48  TRP48      -0.1227
     73  CA        10.7900    3.7040    7.6140 C.3    48  TRP48       0.1737
     74  C         10.6850    4.8070    8.7150 C.2    48  TRP48       0.2595
     75  O         10.9270    4.5820    9.8990 O.2    48  TRP48      -0.2718
     76  CB        12.0340    3.9920    6.7310 C.3    48  TRP48       0.0564
     77  CG        13.2460    4.3480    7.5160 C.ar   48  TRP48       0.0003
     78  CD1       13.9330    3.5340    8.3360 C.ar   48  TRP48       0.0946
     79  CD2       13.8920    5.6300    7.5940 C.ar   48  TRP48       0.0152
     80  NE1       14.9810    4.1910    8.8980 N.ar   48  TRP48      -0.2442
     81  CE2       15.0140    5.4700    8.4270 C.ar   48  TRP48       0.0810
     82  CE3       13.6710    6.8670    6.9880 C.ar   48  TRP48       0.0012
     83  CZ2       15.8850    6.5310    8.7570 C.ar   48  TRP48       0.0191
     84  CZ3       14.5790    7.9550    7.3000 C.ar   48  TRP48       0.0001
     85  CH2       15.6530    7.7550    8.1680 C.ar   48  TRP48       0.0015
     86  N         10.3420    6.0030    8.2970 N.am   49  TYR49      -0.1976
     87  CA        10.2060    7.1350    9.2500 C.3    49  TYR49       0.1639
     88  C          9.1090    6.9450   10.2950 C.2    49  TYR49       0.2290
     89  O          9.3260    7.1050   11.5400 O.2    49  TYR49      -0.2864
     90  CB         9.9990    8.4350    8.4690 C.3    49  TYR49       0.0560
     91  CG         9.8390    9.6870    9.3520 C.ar   49  TYR49      -0.0198
     92  CD1       10.9300   10.3160    9.9180 C.ar   49  TYR49      -0.0009
     93  CD2        8.5590   10.2240    9.6280 C.ar   49  TYR49      -0.0009
     94  CE1       10.7730   11.4510   10.7190 C.ar   49  TYR49       0.0417
     95  CE2        8.4000   11.3460   10.4350 C.ar   49  TYR49       0.0417
     96  CZ         9.5100   11.9530   10.9750 C.ar   49  TYR49       0.1957
     97  OH         9.3330   13.0880   11.7730 O.3    49  TYR49      -0.2866
@<TRIPOS>BOND
     1    26    24    1
     2    25    24    1
     3    24    23    2
     4    23    22    1
     5    22    21    1
     6    20    21    1
     7    20    17    1
     8    16    17    1
     9    17    18    1
    10    38    37    1
    11    36    37   ar
    12    36    34   ar
    13    18    19    2
    14    37    35   ar
    15    34    32   ar
    16    35    33   ar
    17    32    33   ar
    18    32    31    1
    19    46    44    1
    20    31    28    1
    21    27    28    1
    22    44    43    1
    23    28    29    1
    24    11    10    2
    25    39    29   am
    26    39    40    1
    27    43    40    1
    28    43    45    1
    29    29    30    2
    30    10     9    1
    31    40    41    1
    32     9     8    1
    33     9    12    1
    34    41    42    2
    35    15    13    1
    36    12    13    1
    37    47    48    1
    38    13    14    1
    39    51    48    1
    40    59    57    1
    41    48    49    1
    42    56    57    1
    43    56    53    1
    44    52    49   am
    45    52    53    1
    46     4     3    2
    47    49    50    2
    48    57    58    1
    49    53    54    1
    50     3     2    1
    51    54    55    2
    52     2     1    1
    53     2     5    1
    54     7     5    1
    55     5     6    1
    56    71    69    1
    57    60    61    1
    58    69    68    1
    59    61    62    1
    60    64    62   am
    61    64    65    1
    62    68    65    1
    63    68    70    1
    64    62    63    2
    65    65    66    1
    66    66    67    2
    67    76    77    1
    68    76    73    1
    69    72    73    1
    70    82    84   ar
    71    82    79   ar
    72    84    85   ar
    73    77    79   ar
    74    77    78   ar
    75    79    81   ar
    76    73    74    1
    77    85    83   ar
    78    86    74   am
    79    86    87    1
    80    78    80   ar
    81    81    83   ar
    82    81    80   ar
    83    90    87    1
    84    90    91    1
    85    74    75    2
    86    87    88    1
    87    91    93   ar
    88    91    92   ar
    89    93    95   ar
    90    92    94   ar
    91    88    89    2
    92    95    96   ar
    93    94    96   ar
    94    96    97    1
