@<TRIPOS>MOLECULE
tmp/5jsiA01.pdb
 105 99 0 0 0
SMALL
GASTEIGER

@<TRIPOS>ATOM
      1  N         27.6000   24.9090    8.9620 N.3   128  PHE128     -0.1241
      2  CA        27.3610   26.1990    8.3290 C.3   128  PHE128      0.1605
      3  C         28.0310   26.3840    6.9810 C.2   128  PHE128      0.2264
      4  O         27.3540   26.7370    6.0210 O.2   128  PHE128     -0.2867
      5  CB        27.7710   27.3290    9.2160 C.3   128  PHE128      0.0534
      6  CG        27.4930   28.6820    8.6400 C.ar  128  PHE128     -0.0203
      7  CD1       26.1850   29.1840    8.6120 C.ar  128  PHE128     -0.0042
      8  CD2       28.5250   29.4760    8.1970 C.ar  128  PHE128     -0.0042
      9  CE1       25.8970   30.4340    8.1060 C.ar  128  PHE128     -0.0003
     10  CE2       28.2560   30.7510    7.6700 C.ar  128  PHE128     -0.0003
     11  CZ        26.9440   31.2110    7.6070 C.ar  128  PHE128     -0.0000
     12  N         26.0150   26.7090    3.5760 N.3   132  MET132     -0.1245
     13  CA        26.1710   27.9830    2.8470 C.3   132  MET132      0.1570
     14  C         26.6920   27.8650    1.4400 C.2   132  MET132      0.2261
     15  O         26.2440   28.6040    0.5220 O.2   132  MET132     -0.2867
     16  CB        27.0700   28.9320    3.5860 C.3   132  MET132      0.0387
     17  CG        26.4030   29.8350    4.6120 C.3   132  MET132      0.0595
     18  SD        25.0790   31.0000    4.1200 S.3   132  MET132     -0.1393
     19  CE        25.4730   31.4070    2.4450 C.3   132  MET132      0.0692
     20  N         23.8650   26.5040   -0.5470 N.3   135  TYR135     -0.1227
     21  CA        22.8990   27.5850   -0.6790 C.3   135  TYR135      0.1736
     22  C         23.3090   28.5110   -1.8280 C.2   135  TYR135      0.2595
     23  O         22.5280   28.8100   -2.7500 O.2   135  TYR135     -0.2718
     24  CB        22.8570   28.3430    0.6250 C.3   135  TYR135      0.0548
     25  CG        21.9000   29.6070    0.6950 C.ar  135  TYR135     -0.0200
     26  CD1       20.5780   29.4800    1.1220 C.ar  135  TYR135     -0.0009
     27  CD2       22.3650   30.9000    0.4260 C.ar  135  TYR135     -0.0009
     28  CE1       19.7480   30.5880    1.2240 C.ar  135  TYR135      0.0417
     29  CE2       21.5110   32.0210    0.4790 C.ar  135  TYR135      0.0417
     30  CZ        20.2140   31.8440    0.9130 C.ar  135  TYR135      0.1957
     31  OH        19.3750   32.9190    1.0320 O.3   135  TYR135     -0.2866
     32  N         24.5890   28.8750   -1.8160 N.am  136  VAL136     -0.1980
     33  CA        25.1370   29.7670   -2.8190 C.3   136  VAL136      0.1595
     34  C         25.0760   29.1310   -4.1910 C.2   136  VAL136      0.2287
     35  O         24.6450   29.7680   -5.1420 O.2   136  VAL136     -0.2864
     36  CB        26.5490   30.2950   -2.4750 C.3   136  VAL136      0.0276
     37  CG1       27.0840   31.0790   -3.6620 C.3   136  VAL136      0.0022
     38  CG2       26.4490   31.2390   -1.2820 C.3   136  VAL136      0.0022
     39  N         21.3760   29.2630   -5.3850 N.3   139  MET139     -0.1230
     40  CA        20.9450   30.6050   -5.7620 C.3   139  MET139      0.1702
     41  C         21.5570   31.0230   -7.1060 C.2   139  MET139      0.2592
     42  O         20.9090   31.7250   -7.9420 O.2   139  MET139     -0.2718
     43  CB        21.3070   31.6060   -4.6880 C.3   139  MET139      0.0401
     44  CG        20.6850   31.3340   -3.3230 C.3   139  MET139      0.0596
     45  SD        18.8810   31.3460   -3.3500 S.3   139  MET139     -0.1393
     46  CE        18.5570   30.3240   -1.9380 C.3   139  MET139      0.0692
     47  N         22.7990   30.6210   -7.3010 N.am  140  ARG140     -0.1980
     48  CA        23.5150   30.8770   -8.5430 C.3   140  ARG140      0.1597
     49  C         22.8480   30.0710   -9.6470 C.2   140  ARG140      0.2287
     50  O         22.6000   30.5850  -10.7430 O.2   140  ARG140     -0.2864
     51  CB        25.0370   30.5570   -8.4280 C.3   140  ARG140      0.0334
     52  CG        25.9140   31.7280   -7.9550 C.3   140  ARG140      0.0492
     53  CD        27.3620   31.2700   -7.6720 C.3   140  ARG140      0.2205
     54  NE        28.2930   32.3170   -7.2010 N.pl3 140  ARG140     -0.0865
     55  CZ        29.5080   32.1010   -6.6490 C.cat 140  ARG140      0.5346
     56  NH1       30.0000   30.8600   -6.4580 N.pl3 140  ARG140      0.1354
     57  NH2       30.2440   33.1440   -6.2570 N.pl3 140  ARG140      0.1354
     58  N         19.3500   32.0220  -10.4120 N.3   143  GLN143     -0.1245
     59  CA        19.7260   33.1350  -11.2770 C.3   143  GLN143      0.1566
     60  C         19.9240   32.7530  -12.7560 C.2   143  GLN143      0.2260
     61  O         19.4440   33.4500  -13.6440 O.2   143  GLN143     -0.2867
     62  CB        21.0150   33.7790  -10.7570 C.3   143  GLN143      0.0367
     63  CG        20.7790   34.6860   -9.5580 C.3   143  GLN143      0.0905
     64  CD        22.0450   35.1230   -8.8390 C.2   143  GLN143      0.2608
     65  OE1       23.0440   34.3970   -8.7640 O.2   143  GLN143     -0.2717
     66  NE2       21.9970   36.3230   -8.2760 N.am  143  GLN143     -0.0878
     67  N         15.3930   34.4520   -3.4180 N.3   165  LEU165     -0.1245
     68  CA        16.6450   35.1290   -3.1320 C.3   165  LEU165      0.1561
     69  C         16.6190   35.9800   -1.9030 C.2   165  LEU165      0.2260
     70  O         17.5240   35.9000   -1.0680 O.2   165  LEU165     -0.2867
     71  CB        17.1050   36.0070   -4.2880 C.3   165  LEU165      0.0270
     72  CG        17.7130   35.2260   -5.4300 C.3   165  LEU165      0.0019
     73  CD1       18.0340   36.1560   -6.6070 C.3   165  LEU165      0.0001
     74  CD2       18.9850   34.4960   -5.0140 C.3   165  LEU165      0.0001
     75  N         17.0340   34.3740    2.9160 N.3   169  ILE169     -0.1245
     76  CA        18.1900   34.9030    3.6510 C.3   169  ILE169      0.1561
     77  C         18.0240   34.7540    5.1500 C.2   169  ILE169      0.2260
     78  O         18.9730   34.4410    5.8870 O.2   169  ILE169     -0.2867
     79  CB        18.3700   36.4560    3.3880 C.3   169  ILE169      0.0252
     80  CG1       18.8290   36.6920    1.9720 C.3   169  ILE169      0.0019
     81  CG2       19.3760   37.0760    4.3480 C.3   169  ILE169      0.0019
     82  CD1       18.6350   38.1390    1.5000 C.3   169  ILE169      0.0001
     83  N         19.7980   31.2190    6.9990 N.3   172  PRO172     -0.2102
     84  CA        21.1820   31.2120    7.4590 C.3   172  PRO172      0.1504
     85  C         21.4520   32.2960    8.5040 C.2   172  PRO172      0.2575
     86  O         22.1860   32.0450    9.4510 O.2   172  PRO172     -0.2718
     87  CB        22.0010   31.4590    6.1740 C.3   172  PRO172      0.0282
     88  CG        21.0130   32.0280    5.1810 C.3   172  PRO172      0.0208
     89  CD        19.7290   31.3500    5.5260 C.3   172  PRO172      0.0893
     90  N         20.7700   33.4190    8.4050 N.am  173  LEU173     -0.1980
     91  CA        20.8890   34.4860    9.4120 C.3   173  LEU173      0.1596
     92  C         20.4510   34.0150   10.8220 C.2   173  LEU173      0.2287
     93  O         21.1110   34.2660   11.8410 O.2   173  LEU173     -0.2864
     94  CB        20.0300   35.6830    8.9680 C.3   173  LEU173      0.0297
     95  CG        20.7600   36.9920    8.7540 C.3   173  LEU173      0.0022
     96  CD1       21.8530   36.9460    7.7010 C.3   173  LEU173      0.0001
     97  CD2       19.7690   38.0790    8.3910 C.3   173  LEU173      0.0001
     98  N         23.0840   31.7600   12.4430 N.3   176  ILE176     -0.1245
     99  CA        24.2630   32.5100   13.0070 C.3   176  ILE176      0.1561
    100  C         23.9060   33.2990   14.2690 C.2   176  ILE176      0.2260
    101  O         24.7420   33.4780   15.1690 O.2   176  ILE176     -0.2867
    102  CB        24.8550   33.4410   11.9410 C.3   176  ILE176      0.0252
    103  CG1       25.4750   32.6140   10.7980 C.3   176  ILE176      0.0019
    104  CG2       25.8840   34.3910   12.5090 C.3   176  ILE176      0.0019
    105  CD1       26.6490   31.7220   11.1780 C.3   176  ILE176      0.0001
@<TRIPOS>BOND
     1    61    60    2
     2    60    59    1
     3    59    62    1
     4    59    58    1
     5    62    63    1
     6    50    49    2
     7    49    48    1
     8    63    64    1
     9    64    65    2
    10    64    66   am
    11    48    51    1
    12    48    47    1
    13    51    52    1
    14    52    53    1
    15    42    41    2
    16    53    54    1
    17    47    41   am
    18    54    55    2
    19    41    40    1
    20    55    56    1
    21    55    57    1
    22    73    72    1
    23    40    39    1
    24    40    43    1
    25    72    74    1
    26    72    71    1
    27    35    34    2
    28    43    44    1
    29    71    68    1
    30    34    33    1
    31    37    36    1
    32    67    68    1
    33    45    44    1
    34    45    46    1
    35    68    69    1
    36    33    36    1
    37    33    32    1
    38    23    22    2
    39    36    38    1
    40    69    70    2
    41    22    32   am
    42    22    21    1
    43    21    20    1
    44    21    24    1
    45    27    29   ar
    46    27    25   ar
    47    29    30   ar
    48    15    14    2
    49    24    25    1
    50    25    26   ar
    51    30    31    1
    52    30    28   ar
    53    26    28   ar
    54    14    13    1
    55    82    80    1
    56    80    79    1
    57    19    18    1
    58    13    12    1
    59    13    16    1
    60    75    76    1
    61    79    76    1
    62    79    81    1
    63    16    17    1
    64    76    77    1
    65    18    17    1
    66    77    78    2
    67    88    89    1
    68    88    87    1
    69    89    83    1
    70     4     3    2
    71    87    84    1
    72     3     2    1
    73    83    84    1
    74    84    85    1
    75    11    10   ar
    76    11     9   ar
    77    10     8   ar
    78    96    95    1
    79     9     7   ar
    80     8     6   ar
    81     2     1    1
    82     2     5    1
    83    97    95    1
    84    90    85   am
    85    90    91    1
    86    85    86    2
    87     7     6   ar
    88     6     5    1
    89    95    94    1
    90    94    91    1
    91    91    92    1
    92   103   105    1
    93   103   102    1
    94    92    93    2
    95   102   104    1
    96   102    99    1
    97    98    99    1
    98    99   100    1
    99   100   101    2
