@<TRIPOS>MOLECULE
tmp/5jsjA00.pdb
 233 232 0 0 0
SMALL
GASTEIGER

@<TRIPOS>ATOM
      1  N         19.9320  -15.7260    1.7920 N.3    12  HIS12      -0.1241
      2  CA        18.9870  -16.7070    2.3080 C.3    12  HIS12       0.1621
      3  C         17.6570  -16.5650    1.5860 C.2    12  HIS12       0.2264
      4  O         17.3500  -15.5180    1.0100 O.2    12  HIS12      -0.2867
      5  CB        18.7900  -16.5640    3.8180 C.3    12  HIS12       0.0745
      6  CG        18.1510  -15.2720    4.2300 C.ar   12  HIS12       0.0817
      7  ND1       16.7850  -15.0750    4.2170 N.ar   12  HIS12      -0.2268
      8  CD2       18.6960  -14.1110    4.6700 C.ar   12  HIS12       0.1154
      9  CE1       16.5160  -13.8490    4.6350 C.ar   12  HIS12       0.1986
     10  NE2       17.6580  -13.2420    4.9110 N.ar   12  HIS12      -0.2212
     11  N         13.4150  -16.5230    1.8320 N.3    14  TRP14      -0.1241
     12  CA        12.4470  -15.9570    2.7570 C.3    14  TRP14       0.1605
     13  C         11.0450  -16.2590    2.2560 C.2    14  TRP14       0.2264
     14  O         10.7730  -16.1390    1.0580 O.2    14  TRP14      -0.2867
     15  CB        12.6640  -14.4380    2.8990 C.3    14  TRP14       0.0550
     16  CG        11.7550  -13.7420    3.8530 C.ar   14  TRP14       0.0003
     17  CD1       10.6730  -12.9940    3.5400 C.ar   14  TRP14       0.0946
     18  CD2       11.8560  -13.7320    5.2850 C.ar   14  TRP14       0.0152
     19  NE1       10.0920  -12.5100    4.6840 N.ar   14  TRP14      -0.2442
     20  CE2       10.7960  -12.9540    5.7700 C.ar   14  TRP14       0.0810
     21  CE3       12.7430  -14.3040    6.1990 C.ar   14  TRP14       0.0012
     22  CZ2       10.5930  -12.7290    7.1270 C.ar   14  TRP14       0.0191
     23  CZ3       12.5320  -14.0860    7.5540 C.ar   14  TRP14       0.0001
     24  CH2       11.4690  -13.3080    8.0010 C.ar   14  TRP14       0.0015
     25  N          7.1390  -15.2580    2.9840 N.3    16  GLU16      -0.1245
     26  CA         6.1300  -14.4170    3.6240 C.3    16  GLU16       0.1567
     27  C          4.7570  -15.0410    3.4410 C.2    16  GLU16       0.2260
     28  O          4.3370  -15.2860    2.3030 O.2    16  GLU16      -0.2867
     29  CB         6.1220  -13.0090    3.0380 C.3    16  GLU16       0.0388
     30  CG         7.3290  -12.2050    3.3830 C.3    16  GLU16       0.1160
     31  CD         7.0980  -10.7200    3.2350 C.2    16  GLU16       0.3649
     32  OE1        6.0720  -10.3430    2.6210 O.co2  16  GLU16      -0.2457
     33  OE2        7.9390   -9.9380    3.7370 O.co2  16  GLU16      -0.2457
     34  N         17.4510  -13.2010   -1.0290 N.3    24  TRP24      -0.1241
     35  CA        17.9520  -11.9330   -0.5220 C.3    24  TRP24       0.1605
     36  C         19.4460  -12.0300   -0.2660 C.2    24  TRP24       0.2264
     37  O         19.9730  -13.1130   -0.0080 O.2    24  TRP24      -0.2867
     38  CB        17.2330  -11.5310    0.7730 C.3    24  TRP24       0.0550
     39  CG        15.7510  -11.3610    0.5910 C.ar   24  TRP24       0.0003
     40  CD1       14.8110  -12.3480    0.6090 C.ar   24  TRP24       0.0946
     41  CD2       15.0400  -10.1400    0.3440 C.ar   24  TRP24       0.0152
     42  NE1       13.5650  -11.8220    0.3920 N.ar   24  TRP24      -0.2442
     43  CE2       13.6740  -10.4690    0.2230 C.ar   24  TRP24       0.0810
     44  CE3       15.4190   -8.8060    0.2240 C.ar   24  TRP24       0.0012
     45  CZ2       12.6850   -9.5050   -0.0120 C.ar   24  TRP24       0.0191
     46  CZ3       14.4360   -7.8520   -0.0230 C.ar   24  TRP24       0.0001
     47  CH2       13.0910   -8.2050   -0.1320 C.ar   24  TRP24       0.0015
     48  N         19.9460   -5.2680    4.0670 N.3    43  TYR43      -0.1241
     49  CA        19.7330   -5.9670    2.8110 C.3    43  TYR43       0.1605
     50  C         20.0750   -5.0550    1.6450 C.2    43  TYR43       0.2264
     51  O         19.8190   -3.8450    1.6890 O.2    43  TYR43      -0.2867
     52  CB        18.2880   -6.4560    2.7140 C.3    43  TYR43       0.0534
     53  CG        18.0340   -7.6080    3.6450 C.ar   43  TYR43      -0.0201
     54  CD1       18.3710   -8.9210    3.2780 C.ar   43  TYR43      -0.0009
     55  CD2       17.5000   -7.3990    4.9030 C.ar   43  TYR43      -0.0009
     56  CE1       18.1540   -9.9750    4.1350 C.ar   43  TYR43       0.0417
     57  CE2       17.2860   -8.4540    5.7670 C.ar   43  TYR43       0.0417
     58  CZ        17.6140   -9.7370    5.3750 C.ar   43  TYR43       0.1957
     59  OH        17.3900  -10.7830    6.2320 O.3    43  TYR43      -0.2866
     60  N         20.2050   -2.8490   -1.5100 N.3    45  GLY45      -0.1210
     61  CA        19.1990   -2.0330   -2.1520 C.3    45  GLY45       0.1956
     62  C         18.2320   -1.3420   -1.2210 C.2    45  GLY45       0.2612
     63  O         17.3840   -0.5790   -1.7010 O.2    45  GLY45      -0.2717
     64  N         18.3130   -1.5860    0.0870 N.am   46  PHE46      -0.1962
     65  CA        17.4160   -0.9490    1.0400 C.3    46  PHE46       0.1771
     66  C         18.2220   -0.4310    2.2170 C.2    46  PHE46       0.2620
     67  O         19.2270   -1.0280    2.6040 O.2    46  PHE46      -0.2715
     68  CB        16.3470   -1.9000    1.5250 C.3    46  PHE46       0.0574
     69  CG        15.5900   -2.5500    0.4200 C.ar   46  PHE46      -0.0200
     70  CD1       14.5240   -1.9010   -0.1700 C.ar   46  PHE46      -0.0042
     71  CD2       15.9550   -3.8110   -0.0360 C.ar   46  PHE46      -0.0042
     72  CE1       13.8260   -2.4920   -1.1860 C.ar   46  PHE46      -0.0003
     73  CE2       15.2690   -4.4070   -1.0540 C.ar   46  PHE46      -0.0003
     74  CZ        14.2000   -3.7530   -1.6310 C.ar   46  PHE46      -0.0000
     75  N         17.7690    0.6720    2.8000 N.am   47  ASP47      -0.1957
     76  CA        18.5980    1.4200    3.7300 C.3    47  ASP47       0.1840
     77  C         18.0760    1.3710    5.1590 C.2    47  ASP47       0.2622
     78  O         18.5080    2.1610    6.0010 O.2    47  ASP47      -0.2715
     79  CB        18.7310    2.8570    3.2390 C.3    47  ASP47       0.1450
     80  CG        19.3890    2.9320    1.8710 C.2    47  ASP47       0.3671
     81  OD1       20.4120    2.2410    1.6540 O.co2  47  ASP47      -0.2456
     82  OD2       18.8710    3.6600    0.9990 O.co2  47  ASP47      -0.2456
     83  N         17.1610    0.4650    5.4610 N.am   48  CYS48      -0.1968
     84  CA        16.8080    0.2580    6.8550 C.3    48  CYS48       0.1712
     85  C         17.6030   -0.9050    7.4430 C.2    48  CYS48       0.2296
     86  O         18.1440   -1.7610    6.7290 O.2    48  CYS48      -0.2864
     87  CB        15.2970    0.0370    7.0040 C.3    48  CYS48       0.0983
     88  SG        14.3790    1.5880    6.6660 S.3    48  CYS48      -0.0798
     89  N         17.4170   -4.1610    9.6350 N.3    50  TYR50      -0.1241
     90  CA        16.4040   -5.1490    9.9480 C.3    50  TYR50       0.1605
     91  C         16.9250   -6.1430   10.9680 C.2    50  TYR50       0.2264
     92  O         18.1090   -6.5030   10.9590 O.2    50  TYR50      -0.2867
     93  CB        15.9730   -5.8710    8.6910 C.3    50  TYR50       0.0534
     94  CG        15.3220   -4.9490    7.7000 C.ar   50  TYR50      -0.0201
     95  CD1       13.9610   -4.6850    7.7640 C.ar   50  TYR50      -0.0009
     96  CD2       16.0580   -4.3620    6.6880 C.ar   50  TYR50      -0.0009
     97  CE1       13.3620   -3.8730    6.8530 C.ar   50  TYR50       0.0417
     98  CE2       15.4580   -3.5440    5.7760 C.ar   50  TYR50       0.0417
     99  CZ        14.1080   -3.3000    5.8610 C.ar   50  TYR50       0.1957
    100  OH        13.5000   -2.4680    4.9490 O.3    50  TYR50      -0.2866
    101  N         16.6330   -9.8580   12.3950 N.3    52  LEU52      -0.1245
    102  CA        16.1760  -11.2120   12.1350 C.3    52  LEU52       0.1561
    103  C         16.9480  -12.1920   12.9960 C.2    52  LEU52       0.2260
    104  O         18.1660  -12.0590   13.1640 O.2    52  LEU52      -0.2867
    105  CB        16.3250  -11.5940   10.6650 C.3    52  LEU52       0.0270
    106  CG        15.1850  -11.1430    9.7490 C.3    52  LEU52       0.0019
    107  CD1       15.3290  -11.8520    8.4370 C.3    52  LEU52       0.0001
    108  CD2       13.8040  -11.4400   10.3500 C.3    52  LEU52       0.0001
    109  N         16.8050   16.1880    6.6410 N.3    91  HIS91      -0.1241
    110  CA        17.3650   15.3660    5.5780 C.3    91  HIS91       0.1621
    111  C         16.5050   15.4970    4.3340 C.2    91  HIS91       0.2264
    112  O         15.3180   15.1560    4.3540 O.2    91  HIS91      -0.2867
    113  CB        17.4580   13.9090    6.0190 C.3    91  HIS91       0.0745
    114  CG        18.3030   13.0580    5.1260 C.ar   91  HIS91       0.0817
    115  ND1       18.4380   11.6990    5.3080 N.ar   91  HIS91      -0.2268
    116  CD2       19.0650   13.3740    4.0530 C.ar   91  HIS91       0.1154
    117  CE1       19.2370   11.2100    4.3750 C.ar   91  HIS91       0.1986
    118  NE2       19.6420   12.2080    3.6100 N.ar   91  HIS91      -0.2212
    119  N         15.6880   14.6190    0.3180 N.3    93  PHE93      -0.1241
    120  CA        15.8630   13.4800   -0.5640 C.3    93  PHE93       0.1605
    121  C         14.8590   13.5560   -1.7010 C.2    93  PHE93       0.2264
    122  O         13.8240   14.2190   -1.6020 O.2    93  PHE93      -0.2867
    123  CB        15.7220   12.1600    0.2050 C.3    93  PHE93       0.0534
    124  CG        14.3800   11.9690    0.8700 C.ar   93  PHE93      -0.0203
    125  CD1       14.1210   12.5070    2.1260 C.ar   93  PHE93      -0.0042
    126  CD2       13.3830   11.2130    0.2540 C.ar   93  PHE93      -0.0042
    127  CE1       12.8770   12.3090    2.7520 C.ar   93  PHE93      -0.0003
    128  CE2       12.1380   11.0200    0.8700 C.ar   93  PHE93      -0.0003
    129  CZ        11.8880   11.5660    2.1190 C.ar   93  PHE93      -0.0000
    130  N         10.3560    8.8320   -5.2620 N.3    96  GLU96      -0.1245
    131  CA        10.1790    8.0200   -6.4630 C.3    96  GLU96       0.1567
    132  C          9.5700    8.8450   -7.5860 C.2    96  GLU96       0.2260
    133  O          9.9710    8.7220   -8.7500 O.2    96  GLU96      -0.2867
    134  CB         9.2830    6.8180   -6.1670 C.3    96  GLU96       0.0388
    135  CG         9.7790    5.9020   -5.0690 C.3    96  GLU96       0.1160
    136  CD         8.8060    4.7750   -4.7890 C.2    96  GLU96       0.3649
    137  OE1        7.6000    4.9560   -5.0560 O.co2  96  GLU96      -0.2457
    138  OE2        9.2460    3.7070   -4.3080 O.co2  96  GLU96      -0.2457
    139  N         12.7500   15.3840    5.5910 N.3   103  TRP103     -0.1241
    140  CA        12.3180   14.7500    6.8250 C.3   103  TRP103      0.1605
    141  C         13.1950   15.2070    7.9780 C.2   103  TRP103      0.2264
    142  O         14.4060   15.3580    7.8280 O.2   103  TRP103     -0.2867
    143  CB        12.3800   13.2190    6.7290 C.3   103  TRP103      0.0550
    144  CG        11.3110   12.5710    5.9020 C.ar  103  TRP103      0.0003
    145  CD1       10.4360   13.1810    5.0570 C.ar  103  TRP103      0.0946
    146  CD2       11.0070   11.1700    5.8490 C.ar  103  TRP103      0.0152
    147  NE1        9.6020   12.2430    4.4770 N.ar  103  TRP103     -0.2442
    148  CE2        9.9320   11.0060    4.9530 C.ar  103  TRP103      0.0810
    149  CE3       11.5440   10.0330    6.4750 C.ar  103  TRP103      0.0012
    150  CZ2        9.3830    9.7490    4.6580 C.ar  103  TRP103      0.0191
    151  CZ3       10.9950    8.7820    6.1800 C.ar  103  TRP103      0.0001
    152  CH2        9.9270    8.6560    5.2820 C.ar  103  TRP103      0.0015
    153  N         13.8510    8.9270   12.1150 N.3   122  TYR122     -0.1241
    154  CA        13.0530   10.0410   11.6180 C.3   122  TYR122      0.1605
    155  C         11.7380   10.1500   12.3710 C.2   122  TYR122      0.2264
    156  O         11.2090    9.1590   12.8680 O.2   122  TYR122     -0.2867
    157  CB        12.7560    9.8840   10.1370 C.3   122  TYR122      0.0534
    158  CG        14.0030    9.8590    9.3180 C.ar  122  TYR122     -0.0201
    159  CD1       14.6680   11.0470    9.0180 C.ar  122  TYR122     -0.0009
    160  CD2       14.5350    8.6560    8.8530 C.ar  122  TYR122     -0.0009
    161  CE1       15.8160   11.0480    8.2790 C.ar  122  TYR122      0.0417
    162  CE2       15.6970    8.6520    8.0990 C.ar  122  TYR122      0.0417
    163  CZ        16.3330    9.8610    7.8240 C.ar  122  TYR122      0.1957
    164  OH        17.4860    9.9000    7.0790 O.3   122  TYR122     -0.2866
    165  N          8.8030   10.9780   11.0100 N.3   124  LYS124     -0.1231
    166  CA         7.7450   10.3710   10.2170 C.3   124  LYS124      0.1693
    167  C          7.8270    8.8530   10.2010 C.2   124  LYS124      0.2592
    168  O          6.8660    8.2040    9.7890 O.2   124  LYS124     -0.2718
    169  CB         7.7770   10.8920    8.7740 C.3   124  LYS124      0.0285
    170  CG         7.0860   12.2570    8.5680 C.3   124  LYS124      0.0035
    171  CD         7.1450   12.7190    7.1020 C.3   124  LYS124      0.0206
    172  CE         6.6760   14.1740    6.9610 C.3   124  LYS124      0.1093
    173  NZ         7.1430   14.8530    5.7090 N.3   124  LYS124     -0.1314
    174  N          8.9520    8.2740   10.6330 N.am  125  ASP125     -0.1974
    175  CA         9.1500    6.8290   10.5790 C.3   125  ASP125      0.1709
    176  C         10.1840    6.4240   11.6150 C.2   125  ASP125      0.2293
    177  O         11.3680    6.2770   11.3080 O.2   125  ASP125     -0.2864
    178  CB         9.5920    6.3680    9.1930 C.3   125  ASP125      0.1436
    179  CG         9.4640    4.8670    9.0220 C.2   125  ASP125      0.3671
    180  OD1        9.0290    4.2140    9.9920 O.co2 125  ASP125     -0.2456
    181  OD2        9.7940    4.3640    7.9320 O.co2 125  ASP125     -0.2456
    182  N         12.0270    4.3200   12.8480 N.3   127  VAL127     -0.1245
    183  CA        12.7950    3.0840   12.8480 C.3   127  VAL127      0.1561
    184  C         14.2150    3.4010   12.4120 C.2   127  VAL127      0.2260
    185  O         14.5550    4.5610   12.1560 O.2   127  VAL127     -0.2867
    186  CB        12.1430    2.0080   11.9660 C.3   127  VAL127      0.0252
    187  CG1       10.7040    1.8120   12.3870 C.3   127  VAL127      0.0019
    188  CG2       12.2480    2.3650   10.4890 C.3   127  VAL127      0.0019
    189  N         17.2320    3.6620   10.1650 N.3   129  TYR129     -0.1241
    190  CA        17.7770    3.7650    8.8230 C.3   129  TYR129      0.1605
    191  C         19.2860    3.8990    8.8790 C.2   129  TYR129      0.2264
    192  O         19.8850    4.1040    9.9380 O.2   129  TYR129     -0.2867
    193  CB        17.2490    4.9900    8.0980 C.3   129  TYR129      0.0534
    194  CG        15.8230    4.9520    7.7100 C.ar  129  TYR129     -0.0201
    195  CD1       14.8200    5.0390    8.6570 C.ar  129  TYR129     -0.0009
    196  CD2       15.4730    4.8790    6.3800 C.ar  129  TYR129     -0.0009
    197  CE1       13.4940    5.0350    8.2790 C.ar  129  TYR129      0.0417
    198  CE2       14.1650    4.8640    5.9960 C.ar  129  TYR129      0.0417
    199  CZ        13.1870    4.9500    6.9380 C.ar  129  TYR129      0.1957
    200  OH        11.9050    4.9320    6.4980 O.3   129  TYR129     -0.2866
    201  N         22.3890    5.8150    6.2270 N.3   131  TYR131     -0.1241
    202  CA        22.7160    6.5740    5.0290 C.3   131  TYR131      0.1605
    203  C         24.1470    7.0710    5.1390 C.2   131  TYR131      0.2264
    204  O         24.6770    7.2280    6.2420 O.2   131  TYR131     -0.2867
    205  CB        21.7830    7.7730    4.8230 C.3   131  TYR131      0.0534
    206  CG        20.3930    7.3890    4.4090 C.ar  131  TYR131     -0.0201
    207  CD1       20.1270    6.9480    3.1140 C.ar  131  TYR131     -0.0009
    208  CD2       19.3390    7.4540    5.3160 C.ar  131  TYR131     -0.0009
    209  CE1       18.8420    6.5850    2.7350 C.ar  131  TYR131      0.0417
    210  CE2       18.0540    7.0770    4.9470 C.ar  131  TYR131      0.0417
    211  CZ        17.8120    6.6480    3.6590 C.ar  131  TYR131      0.1957
    212  OH        16.5360    6.2790    3.2850 O.3   131  TYR131     -0.2866
    213  N         10.1570   -6.8860   11.8830 N.3   187  PHE187     -0.1227
    214  CA        11.6010   -6.9830   11.7260 C.3   187  PHE187      0.1736
    215  C         12.2970   -5.6260   11.6070 C.2   187  PHE187      0.2595
    216  O         13.5170   -5.5890   11.4300 O.2   187  PHE187     -0.2718
    217  CB        11.9570   -7.8800   10.5270 C.3   187  PHE187      0.0547
    218  CG        11.1010   -7.6740    9.3050 C.ar  187  PHE187     -0.0202
    219  CD1       10.8770   -6.4100    8.7870 C.ar  187  PHE187     -0.0042
    220  CD2       10.5480   -8.7590    8.6520 C.ar  187  PHE187     -0.0042
    221  CE1       10.1150   -6.2390    7.6470 C.ar  187  PHE187     -0.0003
    222  CE2        9.7900   -8.5940    7.5080 C.ar  187  PHE187     -0.0003
    223  CZ         9.5760   -7.3360    7.0060 C.ar  187  PHE187     -0.0000
    224  N         11.5750   -4.5170   11.7320 N.am  188  HIS188     -0.1975
    225  CA        12.2770   -3.2510   11.8620 C.3   188  HIS188      0.1656
    226  C         12.8630   -3.1200   13.2650 C.2   188  HIS188      0.2291
    227  O         12.4650   -3.8180   14.1990 O.2   188  HIS188     -0.2864
    228  CB        11.3460   -2.0690   11.5830 C.3   188  HIS188      0.0771
    229  CG        10.8560   -2.0030   10.1720 C.ar  188  HIS188      0.0820
    230  ND1        9.6120   -2.4590    9.7960 N.ar  188  HIS188     -0.2267
    231  CD2       11.4440   -1.5400    9.0440 C.ar  188  HIS188      0.1154
    232  CE1        9.4520   -2.2750    8.4970 C.ar  188  HIS188      0.1986
    233  NE2       10.5490   -1.7200    8.0160 N.ar  188  HIS188     -0.2212
@<TRIPOS>BOND
     1   133   132    2
     2   132   131    1
     3   131   134    1
     4   131   130    1
     5   134   135    1
     6   135   136    1
     7   137   136   ar
     8   136   138   ar
     9    61    60    1
    10    61    62    1
    11    63    62    2
    12   121   122    2
    13   121   120    1
    14    74    72   ar
    15    74    73   ar
    16    62    64   am
    17    72    70   ar
    18    73    71   ar
    19    34    35    1
    20   120   123    1
    21   120   119    1
    22    35    36    1
    23    35    38    1
    24    36    37    2
    25    70    69   ar
    26    47    46   ar
    27    47    45   ar
    28    71    69   ar
    29    46    44   ar
    30    45    43   ar
    31    64    65    1
    32   123   124    1
    33    43    41   ar
    34    43    42   ar
    35    44    41   ar
    36   126   128   ar
    37   126   124   ar
    38    41    39   ar
    39    42    40   ar
    40    69    68    1
    41    39    40   ar
    42    39    38    1
    43   128   129   ar
    44   124   125   ar
    45    82    80   ar
    46     4     3    2
    47    65    68    1
    48    65    66    1
    49    14    13    2
    50     3     2    1
    51    50    51    2
    52    50    49    1
    53    81    80   ar
    54     1     2    1
    55    11    12    1
    56    80    79    1
    57   129   127   ar
    58   125   127   ar
    59    66    67    2
    60    66    75   am
    61    13    12    1
    62    28    27    2
    63     2     5    1
    64    32    31   ar
    65    52    49    1
    66    52    53    1
    67   209   207   ar
    68   209   211   ar
    69    12    15    1
    70    75    76    1
    71    49    48    1
    72    15    16    1
    73    25    26    1
    74    29    30    1
    75    29    26    1
    76   207   206   ar
    77    31    30    1
    78    31    33   ar
    79    79    76    1
    80    54    53   ar
    81    54    56   ar
    82   212   211    1
    83    27    26    1
    84    17    16   ar
    85    17    19   ar
    86   118   116   ar
    87   118   117   ar
    88    53    55   ar
    89   211   210   ar
    90    76    77    1
    91     5     6    1
    92    16    18   ar
    93   116   114   ar
    94    56    58   ar
    95     7     6   ar
    96     7     9   ar
    97     6     8   ar
    98   111   112    2
    99   111   110    1
   100   117   115   ar
   101   206   205    1
   102   206   208   ar
   103   147   148   ar
   104   147   145   ar
   105     9    10   ar
   106   150   148   ar
   107   150   152   ar
   108     8    10   ar
   109    19    20   ar
   110   205   202    1
   111    55    57   ar
   112   210   208   ar
   113   100    99    1
   114   148   146   ar
   115   202   203    1
   116   202   201    1
   117   145   144   ar
   118   114   115   ar
   119   114   113    1
   120   203   204    2
   121    77    83   am
   122    77    78    2
   123   152   151   ar
   124    18    20   ar
   125    18    21   ar
   126    58    57   ar
   127    58    59    1
   128    83    84    1
   129   110   113    1
   130   110   109    1
   131   139   140    1
   132   173   172    1
   133    20    22   ar
   134    98    99   ar
   135    98    96   ar
   136   146   144   ar
   137   146   149   ar
   138    99    97   ar
   139   144   143    1
   140   198   196   ar
   141   198   199   ar
   142   151   149   ar
   143    21    23   ar
   144   196   194   ar
   145   200   199    1
   146    88    87    1
   147    96    94   ar
   148   143   140    1
   149    86    85    2
   150   140   141    1
   151    97    95   ar
   152    84    87    1
   153    84    85    1
   154   199   197   ar
   155   172   171    1
   156   223   222   ar
   157   223   221   ar
   158   164   163    1
   159   171   170    1
   160    22    24   ar
   161   222   220   ar
   162    23    24   ar
   163   221   219   ar
   164    94    95   ar
   165    94    93    1
   166   194   193    1
   167   194   195   ar
   168   163   162   ar
   169   163   161   ar
   170   142   141    2
   171   181   179   ar
   172   233   232   ar
   173   233   231   ar
   174   193   190    1
   175   162   160   ar
   176   197   195   ar
   177   161   159   ar
   178   107   106    1
   179   232   230   ar
   180   170   169    1
   181   220   218   ar
   182    93    90    1
   183   169   166    1
   184   219   218   ar
   185   190   191    1
   186   190   189    1
   187   160   158   ar
   188   191   192    2
   189   159   158   ar
   190   179   178    1
   191   179   180   ar
   192   231   229   ar
   193   178   175    1
   194   218   217    1
   195   158   157    1
   196    89    90    1
   197   106   108    1
   198   106   105    1
   199   168   167    2
   200   230   229   ar
   201    90    91    1
   202   157   154    1
   203   229   228    1
   204   167   166    1
   205   167   174   am
   206   166   165    1
   207   188   186    1
   208   217   214    1
   209   175   174    1
   210   175   176    1
   211   105   102    1
   212    92    91    2
   213   177   176    2
   214   216   215    2
   215   228   225    1
   216   215   214    1
   217   215   224   am
   218   154   153    1
   219   154   155    1
   220   214   213    1
   221   224   225    1
   222   225   226    1
   223   186   187    1
   224   186   183    1
   225   102   101    1
   226   102   103    1
   227   185   184    2
   228   155   156    2
   229   184   183    1
   230   183   182    1
   231   103   104    2
   232   226   227    2
