@<TRIPOS>MOLECULE
tmp/5jsjB00.pdb
 224 224 0 0 0
SMALL
GASTEIGER

@<TRIPOS>ATOM
      1  N          1.5680   56.2090    6.5380 N.3    13  HIS13      -0.1241
      2  CA         2.5560   57.0660    7.1770 C.3    13  HIS13       0.1621
      3  C          3.8870   56.9710    6.4490 C.2    13  HIS13       0.2264
      4  O          4.1490   56.0210    5.7140 O.2    13  HIS13      -0.2867
      5  CB         2.7260   56.7180    8.6590 C.3    13  HIS13       0.0745
      6  CG         3.4640   55.4440    8.9000 C.ar   13  HIS13       0.0817
      7  ND1        4.8370   55.3910    9.0100 N.ar   13  HIS13      -0.2268
      8  CD2        3.0220   54.1800    9.0900 C.ar   13  HIS13       0.1154
      9  CE1        5.2090   54.1470    9.2450 C.ar   13  HIS13       0.1986
     10  NE2        4.1280   53.3910    9.2910 N.ar   13  HIS13      -0.2212
     11  N          8.1310   56.8190    6.4920 N.3    15  TRP15      -0.1241
     12  CA         9.1330   56.1070    7.2710 C.3    15  TRP15       0.1605
     13  C         10.5240   56.4730    6.7730 C.2    15  TRP15       0.2264
     14  O         10.7870   56.4360    5.5660 O.2    15  TRP15      -0.2867
     15  CB         8.8890   54.5950    7.1880 C.3    15  TRP15       0.0550
     16  CG         9.8190   53.7590    7.9880 C.ar   15  TRP15       0.0003
     17  CD1       10.8680   53.0400    7.5180 C.ar   15  TRP15       0.0946
     18  CD2        9.7770   53.5320    9.4000 C.ar   15  TRP15       0.0152
     19  NE1       11.4860   52.3680    8.5460 N.ar   15  TRP15      -0.2442
     20  CE2       10.8340   52.6570    9.7140 C.ar   15  TRP15       0.0810
     21  CE3        8.9450   53.9760   10.4290 C.ar   15  TRP15       0.0012
     22  CZ2       11.0820   52.2230   11.0130 C.ar   15  TRP15       0.0191
     23  CZ3        9.1930   53.5380   11.7210 C.ar   15  TRP15       0.0001
     24  CH2       10.2550   52.6820   12.0010 C.ar   15  TRP15       0.0015
     25  N          4.0260   53.9680    3.4270 N.3    25  TRP25      -0.1241
     26  CA         3.4870   52.6800    3.8570 C.3    25  TRP25       0.1605
     27  C          2.0140   52.8050    4.2260 C.2    25  TRP25       0.2264
     28  O          1.6270   53.7470    4.9170 O.2    25  TRP25      -0.2867
     29  CB         4.2580   52.1560    5.0680 C.3    25  TRP25       0.0550
     30  CG         5.7180   51.9570    4.8280 C.ar   25  TRP25       0.0003
     31  CD1        6.7050   52.8970    4.9360 C.ar   25  TRP25       0.0946
     32  CD2        6.3650   50.7400    4.4470 C.ar   25  TRP25       0.0152
     33  NE1        7.9260   52.3350    4.6530 N.ar   25  TRP25      -0.2442
     34  CE2        7.7440   51.0160    4.3370 C.ar   25  TRP25       0.0810
     35  CE3        5.9120   49.4420    4.1800 C.ar   25  TRP25       0.0012
     36  CZ2        8.6780   50.0370    3.9860 C.ar   25  TRP25       0.0191
     37  CZ3        6.8450   48.4700    3.8160 C.ar   25  TRP25       0.0001
     38  CH2        8.2100   48.7750    3.7250 C.ar   25  TRP25       0.0015
     39  N          1.1270   45.5950    7.5770 N.3    44  TYR44      -0.1241
     40  CA         1.4030   46.4610    6.4410 C.3    44  TYR44       0.1605
     41  C          0.9550   45.7960    5.1490 C.2    44  TYR44       0.2264
     42  O          1.0890   44.5880    4.9790 O.2    44  TYR44      -0.2867
     43  CB         2.8920   46.8170    6.4110 C.3    44  TYR44       0.0534
     44  CG         3.2040   47.8560    7.4440 C.ar   44  TYR44      -0.0201
     45  CD1        2.8300   49.1950    7.2420 C.ar   44  TYR44      -0.0009
     46  CD2        3.8290   47.5180    8.6350 C.ar   44  TYR44      -0.0009
     47  CE1        3.0870   50.1580    8.1960 C.ar   44  TYR44       0.0417
     48  CE2        4.0930   48.4860    9.5950 C.ar   44  TYR44       0.0417
     49  CZ         3.7210   49.8030    9.3680 C.ar   44  TYR44       0.1957
     50  OH         3.9750   50.7640   10.3200 O.3    44  TYR44      -0.2866
     51  N          0.4930   44.0070    1.9720 N.3    46  GLY46      -0.1210
     52  CA         1.3200   43.1380    1.1680 C.3    46  GLY46       0.1956
     53  C          2.3300   42.3240    1.9320 C.2    46  GLY46       0.2612
     54  O          3.1980   41.7070    1.3100 O.2    46  GLY46      -0.2717
     55  N          2.2560   42.3080    3.2560 N.am   47  PHE47      -0.1962
     56  CA         3.1980   41.5660    4.0720 C.3    47  PHE47       0.1771
     57  C          2.4290   40.9230    5.2080 C.2    47  PHE47       0.2620
     58  O          1.5130   41.5310    5.7620 O.2    47  PHE47      -0.2715
     59  CB         4.3060   42.4770    4.6050 C.3    47  PHE47       0.0574
     60  CG         5.0510   43.2130    3.5220 C.ar   47  PHE47      -0.0200
     61  CD1        5.9520   42.5390    2.7150 C.ar   47  PHE47      -0.0042
     62  CD2        4.8400   44.5630    3.3070 C.ar   47  PHE47      -0.0042
     63  CE1        6.6360   43.1930    1.7220 C.ar   47  PHE47      -0.0003
     64  CE2        5.5230   45.2330    2.3090 C.ar   47  PHE47      -0.0003
     65  CZ         6.4260   44.5490    1.5160 C.ar   47  PHE47      -0.0000
     66  N          2.7970   39.6920    5.5500 N.am   48  ASP48      -0.1957
     67  CA         1.9420   38.8650    6.3880 C.3    48  ASP48       0.1840
     68  C          2.5410   38.6140    7.7640 C.2    48  ASP48       0.2622
     69  O          2.2800   37.5820    8.3880 O.2    48  ASP48      -0.2715
     70  CB         1.6250   37.5720    5.6600 C.3    48  ASP48       0.1450
     71  CG         0.9470   37.8300    4.3460 C.2    48  ASP48       0.3671
     72  OD1        0.1280   38.7710    4.2940 O.co2  48  ASP48      -0.2456
     73  OD2        1.2440   37.1240    3.3630 O.co2  48  ASP48      -0.2456
     74  N          3.3290   39.5680    8.2500 N.am   49  CYS49      -0.1968
     75  CA         3.7930   39.5760    9.6230 C.3    49  CYS49       0.1712
     76  C          3.1280   40.7100   10.3890 C.2    49  CYS49       0.2296
     77  O          2.6630   41.6970    9.8110 O.2    49  CYS49      -0.2864
     78  CB         5.3150   39.7160    9.6930 C.3    49  CYS49       0.0983
     79  SG         6.1770   38.1600    9.3460 S.3    49  CYS49      -0.0798
     80  N          3.7280   43.6940   12.9170 N.3    51  TYR51      -0.1241
     81  CA         4.8120   44.5530   13.3560 C.3    51  TYR51       0.1605
     82  C          4.3480   45.4090   14.5220 C.2    51  TYR51       0.2264
     83  O          3.1710   45.7620   14.6290 O.2    51  TYR51      -0.2867
     84  CB         5.3260   45.4240   12.2070 C.3    51  TYR51       0.0534
     85  CG         5.9290   44.6060   11.0970 C.ar   51  TYR51      -0.0201
     86  CD1        7.2490   44.1730   11.1650 C.ar   51  TYR51      -0.0009
     87  CD2        5.1670   44.2220   10.0010 C.ar   51  TYR51      -0.0009
     88  CE1        7.7930   43.4080   10.1640 C.ar   51  TYR51       0.0417
     89  CE2        5.7050   43.4620    8.9970 C.ar   51  TYR51       0.0417
     90  CZ         7.0190   43.0580    9.0780 C.ar   51  TYR51       0.1957
     91  OH         7.5540   42.2840    8.0710 O.3    51  TYR51      -0.2866
     92  N          4.9640   49.0120   16.2720 N.3    53  LEU53      -0.1245
     93  CA         5.5280   50.3510   16.1550 C.3    53  LEU53       0.1561
     94  C          4.8160   51.2910   17.1050 C.2    53  LEU53       0.2260
     95  O          3.5810   51.3430   17.1240 O.2    53  LEU53      -0.2867
     96  CB         5.4080   50.9020   14.7380 C.3    53  LEU53       0.0270
     97  CG         6.4080   50.3980   13.6980 C.3    53  LEU53       0.0019
     98  CD1        5.8930   49.1360   13.0470 C.3    53  LEU53       0.0001
     99  CD2        6.5860   51.4900   12.6870 C.3    53  LEU53       0.0001
    100  N          2.8070   23.9100    7.0770 N.3    92  HIS92      -0.1241
    101  CA         2.2570   24.8910    6.1470 C.3    92  HIS92       0.1621
    102  C          3.0540   24.8680    4.8460 C.2    92  HIS92       0.2264
    103  O          4.2430   25.2190    4.8280 O.2    92  HIS92      -0.2867
    104  CB         2.2800   26.2830    6.7900 C.3    92  HIS92       0.0745
    105  CG         1.4280   27.2990    6.0960 C.ar   92  HIS92       0.0817
    106  ND1        1.4770   28.6430    6.4000 N.ar   92  HIS92      -0.2268
    107  CD2        0.5040   27.1700    5.1170 C.ar   92  HIS92       0.1154
    108  CE1        0.6200   29.2970    5.6370 C.ar   92  HIS92       0.1986
    109  NE2        0.0150   28.4270    4.8480 N.ar   92  HIS92      -0.2212
    110  N          3.8870   26.0360    0.8860 N.3    94  PHE94      -0.1241
    111  CA         3.8350   27.3020    0.1590 C.3    94  PHE94       0.1605
    112  C          4.8870   27.3270   -0.9450 C.2    94  PHE94       0.2264
    113  O          5.8430   26.5480   -0.9340 O.2    94  PHE94      -0.2867
    114  CB         4.0260   28.4930    1.1090 C.3    94  PHE94       0.0534
    115  CG         5.3710   28.5270    1.7830 C.ar   94  PHE94      -0.0203
    116  CD1        5.6370   27.7160    2.8730 C.ar   94  PHE94      -0.0042
    117  CD2        6.3640   29.3800    1.3360 C.ar   94  PHE94      -0.0042
    118  CE1        6.8780   27.7410    3.4980 C.ar   94  PHE94      -0.0003
    119  CE2        7.6090   29.4120    1.9510 C.ar   94  PHE94      -0.0003
    120  CZ         7.8630   28.5970    3.0380 C.ar   94  PHE94      -0.0000
    121  N          9.4260   32.6530   -4.2850 N.3    97  GLU97      -0.1245
    122  CA         9.6080   33.4580   -5.4880 C.3    97  GLU97       0.1567
    123  C         10.1690   32.6250   -6.6340 C.2    97  GLU97       0.2260
    124  O          9.9310   32.9440   -7.8030 O.2    97  GLU97      -0.2867
    125  CB        10.5400   34.6360   -5.1920 C.3    97  GLU97       0.0388
    126  CG         9.8440   35.9840   -5.0520 C.3    97  GLU97       0.1160
    127  CD        10.8310   37.1320   -4.9250 C.2    97  GLU97       0.3649
    128  OE1       11.8360   36.9750   -4.1940 O.co2  97  GLU97      -0.2457
    129  OE2       10.6100   38.1860   -5.5640 O.co2  97  GLU97      -0.2457
    130  N          6.8600   24.5370    6.1930 N.3   104  TRP104     -0.1241
    131  CA         7.3670   25.0420    7.4570 C.3   104  TRP104      0.1605
    132  C          6.4950   24.5560    8.6000 C.2   104  TRP104      0.2264
    133  O          5.2640   24.5310    8.4960 O.2   104  TRP104     -0.2867
    134  CB         7.4080   26.5760    7.4850 C.3   104  TRP104      0.0550
    135  CG         8.5180   27.2700    6.7070 C.ar  104  TRP104      0.0003
    136  CD1        9.2890   26.7530    5.7110 C.ar  104  TRP104      0.0946
    137  CD2        8.9540   28.6230    6.8870 C.ar  104  TRP104      0.0152
    138  NE1       10.1830   27.7020    5.2570 N.ar  104  TRP104     -0.2442
    139  CE2       10.0000   28.8570    5.9700 C.ar  104  TRP104      0.0810
    140  CE3        8.5670   29.6590    7.7470 C.ar  104  TRP104      0.0012
    141  CZ2       10.6530   30.0910    5.8770 C.ar  104  TRP104      0.0191
    142  CZ3        9.2100   30.8890    7.6460 C.ar  104  TRP104      0.0001
    143  CH2       10.2410   31.0920    6.7200 C.ar  104  TRP104      0.0015
    144  N          6.2240   30.2120   13.5600 N.3   123  TYR123     -0.1241
    145  CA         6.9610   29.1360   12.9200 C.3   123  TYR123      0.1605
    146  C          8.2660   28.8630   13.6500 C.2   123  TYR123      0.2264
    147  O          8.8620   29.7620   14.2390 O.2   123  TYR123     -0.2867
    148  CB         7.2630   29.4570   11.4640 C.3   123  TYR123      0.0534
    149  CG         6.0230   29.6490   10.6430 C.ar  123  TYR123     -0.0201
    150  CD1        5.2990   28.5440   10.1650 C.ar  123  TYR123     -0.0009
    151  CD2        5.5650   30.9270   10.3390 C.ar  123  TYR123     -0.0009
    152  CE1        4.1550   28.7220    9.4110 C.ar  123  TYR123      0.0417
    153  CE2        4.4300   31.1170    9.5900 C.ar  123  TYR123      0.0417
    154  CZ         3.7250   30.0190    9.1320 C.ar  123  TYR123      0.1957
    155  OH         2.5910   30.2300    8.3800 O.3   123  TYR123     -0.2866
    156  N         11.1950   27.9170   12.2390 N.3   125  LYS125     -0.1231
    157  CA        12.3060   28.5180   11.5070 C.3   125  LYS125      0.1693
    158  C         12.3430   30.0400   11.6240 C.2   125  LYS125      0.2592
    159  O         13.3440   30.6490   11.2230 O.2   125  LYS125     -0.2718
    160  CB        12.2440   28.1310   10.0220 C.3   125  LYS125      0.0285
    161  CG        12.5200   26.6240    9.7360 C.3   125  LYS125      0.0035
    162  CD        12.5300   26.2600    8.2270 C.3   125  LYS125      0.0206
    163  CE        13.0160   24.8040    7.9900 C.3   125  LYS125      0.1093
    164  NZ        12.7200   24.2130    6.6310 N.3   125  LYS125     -0.1314
    165  N         11.2780   30.6640   12.1440 N.am  126  ASP126     -0.1974
    166  CA        11.1280   32.1130   12.2040 C.3   126  ASP126      0.1709
    167  C         10.1110   32.4410   13.2910 C.2   126  ASP126      0.2293
    168  O          8.9370   32.6970   12.9970 O.2   126  ASP126     -0.2864
    169  CB        10.6870   32.6650   10.8460 C.3   126  ASP126      0.1436
    170  CG        10.8520   34.1640   10.7510 C.2   126  ASP126      0.3671
    171  OD1       11.4800   34.7370   11.6570 O.co2 126  ASP126     -0.2456
    172  OD2       10.3550   34.7740    9.7820 O.co2 126  ASP126     -0.2456
    173  N          8.4290   34.4650   14.9370 N.3   128  VAL128     -0.1245
    174  CA         7.7720   35.7560   15.1080 C.3   128  VAL128      0.1561
    175  C          6.3100   35.6570   14.7030 C.2   128  VAL128      0.2260
    176  O          5.8330   34.5920   14.2920 O.2   128  VAL128     -0.2867
    177  CB         8.4760   36.8510   14.2960 C.3   128  VAL128      0.0252
    178  CG1        9.8880   37.0100   14.7910 C.3   128  VAL128      0.0019
    179  CG2        8.4390   36.5000   12.8120 C.3   128  VAL128      0.0019
    180  N          3.1780   35.9190   12.5450 N.3   130  TYR130     -0.1241
    181  CA         2.6450   35.9700   11.1940 C.3   130  TYR130      0.1605
    182  C          1.1270   35.9340   11.2690 C.2   130  TYR130      0.2264
    183  O          0.5370   35.6120   12.3030 O.2   130  TYR130     -0.2867
    184  CB         3.1140   34.7790   10.3540 C.3   130  TYR130      0.0534
    185  CG         4.5280   34.8040    9.8490 C.ar  130  TYR130     -0.0201
    186  CD1        5.5990   34.5220   10.6940 C.ar  130  TYR130     -0.0009
    187  CD2        4.7970   35.0450    8.5050 C.ar  130  TYR130     -0.0009
    188  CE1        6.8960   34.5320   10.2180 C.ar  130  TYR130      0.0417
    189  CE2        6.0960   35.0430    8.0230 C.ar  130  TYR130      0.0417
    190  CZ         7.1330   34.7810    8.8830 C.ar  130  TYR130      0.1957
    191  OH         8.4110   34.7810    8.4010 O.3   130  TYR130     -0.2866
    192  N         -2.1910   34.6470    8.4790 N.3   132  TYR132     -0.1241
    193  CA        -2.5780   34.0900    7.1870 C.3   132  TYR132      0.1605
    194  C         -4.0440   33.6870    7.2180 C.2   132  TYR132      0.2264
    195  O         -4.6060   33.3820    8.2730 O.2   132  TYR132     -0.2867
    196  CB        -1.7480   32.8560    6.8090 C.3   132  TYR132      0.0534
    197  CG        -0.3520   33.1710    6.3610 C.ar  132  TYR132     -0.0201
    198  CD1       -0.1090   33.6930    5.0930 C.ar  132  TYR132     -0.0009
    199  CD2        0.7270   32.9500    7.2040 C.ar  132  TYR132     -0.0009
    200  CE1        1.1770   33.9920    4.6880 C.ar  132  TYR132      0.0417
    201  CE2        2.0130   33.2480    6.8050 C.ar  132  TYR132      0.0417
    202  CZ         2.2310   33.7650    5.5510 C.ar  132  TYR132      0.1957
    203  OH         3.5180   34.0550    5.1660 O.3   132  TYR132     -0.2866
    204  N         11.2880   45.5310   15.0380 N.3   188  PHE188     -0.1227
    205  CA         9.8600   45.7630   14.9760 C.3   188  PHE188      0.1736
    206  C          9.0530   44.4920   14.7090 C.2   188  PHE188      0.2595
    207  O          7.8470   44.5960   14.4610 O.2   188  PHE188     -0.2718
    208  CB         9.5300   46.8710   13.9640 C.3   188  PHE188      0.0547
    209  CG        10.2970   46.8060   12.6750 C.ar  188  PHE188     -0.0202
    210  CD1       10.3020   45.6650   11.9100 C.ar  188  PHE188     -0.0042
    211  CD2       10.9570   47.9210   12.1980 C.ar  188  PHE188     -0.0042
    212  CE1       10.9910   45.6190   10.7050 C.ar  188  PHE188     -0.0003
    213  CE2       11.6370   47.8810   10.9910 C.ar  188  PHE188     -0.0003
    214  CZ        11.6540   46.7260   10.2500 C.ar  188  PHE188     -0.0000
    215  N          9.6770   43.3050   14.7950 N.am  189  HIS189     -0.1975
    216  CA         8.9110   42.0600   14.7910 C.3   189  HIS189      0.1656
    217  C          8.3240   41.7860   16.1720 C.2   189  HIS189      0.2291
    218  O          8.7890   42.3060   17.1900 O.2   189  HIS189     -0.2864
    219  CB         9.7640   40.8510   14.3940 C.3   189  HIS189      0.0771
    220  CG        10.2670   40.8960   12.9870 C.ar  189  HIS189      0.0820
    221  ND1       11.5640   41.2350   12.6710 N.ar  189  HIS189     -0.2267
    222  CD2        9.6420   40.6580   11.8110 C.ar  189  HIS189      0.1154
    223  CE1       11.7190   41.1970   11.3600 C.ar  189  HIS189      0.1986
    224  NE2       10.5690   40.8450   10.8140 N.ar  189  HIS189     -0.2212
@<TRIPOS>BOND
     1   124   123    2
     2   123   122    1
     3   129   127   ar
     4   122   125    1
     5   122   121    1
     6   125   126    1
     7   126   127    1
     8   127   128   ar
     9   112   113    2
    10   112   111    1
    11   111   110    1
    12   111   114    1
    13   114   115    1
    14    52    53    1
    15    52    51    1
    16    54    53    2
    17   117   115   ar
    18   117   119   ar
    19    65    63   ar
    20    65    64   ar
    21    63    61   ar
    22   115   116   ar
    23    53    55   am
    24   119   120   ar
    25    64    62   ar
    26    61    60   ar
    27   116   118   ar
    28   120   118   ar
    29    55    56    1
    30    62    60   ar
    31    73    71   ar
    32    25    26    1
    33    60    59    1
    34    38    37   ar
    35    38    36   ar
    36    37    35   ar
    37    26    27    1
    38    26    29    1
    39    36    34   ar
    40    56    59    1
    41    56    57    1
    42    35    32   ar
    43    27    28    2
    44    72    71   ar
    45    34    32   ar
    46    34    33   ar
    47    71    70    1
    48    32    30   ar
    49    33    31   ar
    50   200   198   ar
    51   200   202   ar
    52    30    31   ar
    53    30    29    1
    54   103   102    2
    55   102   101    1
    56   109   107   ar
    57   109   108   ar
    58    42    41    2
    59   198   197   ar
    60   107   105   ar
    61    41    40    1
    62   203   202    1
    63    57    66   am
    64    57    58    2
    65   138   136   ar
    66   138   139   ar
    67    66    67    1
    68   202   201   ar
    69    14    13    2
    70   108   106   ar
    71    70    67    1
    72   136   135   ar
    73     4     3    2
    74   141   139   ar
    75   141   143   ar
    76   139   137   ar
    77   105   106   ar
    78   105   104    1
    79   101   104    1
    80   101   100    1
    81   130   131    1
    82   197   196    1
    83   197   199   ar
    84    67    68    1
    85    43    40    1
    86    43    44    1
    87    40    39    1
    88     3     2    1
    89    11    12    1
    90     1     2    1
    91   164   163    1
    92   135   137   ar
    93   135   134    1
    94   143   142   ar
    95    13    12    1
    96   201   199   ar
    97   196   193    1
    98   137   140   ar
    99     2     5    1
   100   193   194    1
   101   193   192    1
   102    15    12    1
   103    15    16    1
   104   194   195    2
   105    45    44   ar
   106    45    47   ar
   107    44    46   ar
   108   131   134    1
   109   131   132    1
   110    17    16   ar
   111    17    19   ar
   112   142   140   ar
   113    68    74   am
   114    68    69    2
   115    16    18   ar
   116   163   162    1
   117   189   187   ar
   118   189   190   ar
   119    91    90    1
   120    47    49   ar
   121   162   161    1
   122    74    75    1
   123   155   154    1
   124   191   190    1
   125   133   132    2
   126   187   185   ar
   127    19    20   ar
   128    46    48   ar
   129     5     6    1
   130   190   188   ar
   131     6     7   ar
   132     6     8   ar
   133    89    90   ar
   134    89    87   ar
   135     7     9   ar
   136    90    88   ar
   137     8    10   ar
   138   154   152   ar
   139   154   153   ar
   140     9    10   ar
   141    79    78    1
   142    49    48   ar
   143    49    50    1
   144    18    20   ar
   145    18    21   ar
   146   152   150   ar
   147   153   151   ar
   148    75    78    1
   149    75    76    1
   150    20    22   ar
   151   161   160    1
   152   172   170   ar
   153    77    76    2
   154   185   184    1
   155   185   186   ar
   156    87    85   ar
   157   160   157    1
   158    88    86   ar
   159   150   149   ar
   160   188   186   ar
   161   214   212   ar
   162   214   213   ar
   163   151   149   ar
   164   184   181    1
   165    21    23   ar
   166   149   148    1
   167   212   210   ar
   168   170   169    1
   169   170   171   ar
   170   224   223   ar
   171   224   222   ar
   172   169   166    1
   173   213   211   ar
   174    22    24   ar
   175    85    86   ar
   176    85    84    1
   177   181   182    1
   178   181   180    1
   179   159   158    2
   180   182   183    2
   181   223   221   ar
   182   148   145    1
   183   157   158    1
   184   157   156    1
   185   158   165   am
   186    23    24   ar
   187   222   220   ar
   188   210   209   ar
   189   165   166    1
   190   211   209   ar
   191   166   167    1
   192    84    81    1
   193   221   220   ar
   194   209   208    1
   195    99    97    1
   196   179   177    1
   197    80    81    1
   198   145   144    1
   199   145   146    1
   200   220   219    1
   201   168   167    2
   202    98    97    1
   203    81    82    1
   204   146   147    2
   205    97    96    1
   206   208   205    1
   207   176   175    2
   208   177   178    1
   209   177   174    1
   210   219   216    1
   211   207   206    2
   212    82    83    2
   213   175   174    1
   214   206   215   am
   215   206   205    1
   216    96    93    1
   217   216   215    1
   218   216   217    1
   219   173   174    1
   220   205   204    1
   221    93    92    1
   222    93    94    1
   223   217   218    2
   224    94    95    2
