@<TRIPOS>MOLECULE
tmp/5jsmC01.pdb
 203 194 0 0 0
SMALL
GASTEIGER

@<TRIPOS>ATOM
      1  N        -21.8100    0.7040   47.3140 N.3    17  GLN17      -0.1231
      2  CA       -21.4960    0.2750   48.6660 C.3    17  GLN17       0.1698
      3  C        -21.1420    1.4470   49.5710 C.2    17  GLN17       0.2592
      4  O        -20.4000    2.3500   49.1780 O.2    17  GLN17      -0.2718
      5  CB       -20.3500   -0.7350   48.6150 C.3    17  GLN17       0.0381
      6  CG       -19.7860   -1.1680   49.9440 C.3    17  GLN17       0.0905
      7  CD       -18.6430   -2.1440   49.7460 C.2    17  GLN17       0.2608
      8  OE1      -18.6250   -2.9000   48.7640 O.2    17  GLN17      -0.2717
      9  NE2      -17.6540   -2.0970   50.6430 N.am   17  GLN17      -0.0878
     10  N        -21.7060    1.4470   50.7730 N.am   18  ARG18      -0.1966
     11  CA       -21.2970    2.3770   51.8180 C.3    18  ARG18       0.1729
     12  C        -19.9800    1.9410   52.4480 C.2    18  ARG18       0.2616
     13  O        -19.8350    0.7960   52.8780 O.2    18  ARG18      -0.2715
     14  CB       -22.3840    2.4950   52.8780 C.3    18  ARG18       0.0348
     15  CG       -21.9920    3.3360   54.0800 C.3    18  ARG18       0.0492
     16  CD       -23.1070    3.3280   55.0950 C.3    18  ARG18       0.2205
     17  NE       -22.8500    4.2250   56.2110 N.pl3  18  ARG18      -0.0865
     18  CZ       -21.9400    4.0050   57.1550 C.cat  18  ARG18       0.5346
     19  NH1      -21.1550    2.9390   57.0910 N.pl3  18  ARG18       0.1354
     20  NH2      -21.7860    4.8760   58.1480 N.pl3  18  ARG18       0.1354
     21  N        -19.0290    2.8600   52.5510 N.am   19  ILE19      -0.1977
     22  CA       -17.7050    2.5020   53.0210 C.3    19  ILE19       0.1596
     23  C        -17.5280    2.8340   54.4910 C.2    19  ILE19       0.2287
     24  O        -16.9850    2.0400   55.2490 O.2    19  ILE19      -0.2864
     25  CB       -16.6050    3.2070   52.1870 C.3    19  ILE19       0.0276
     26  CG1      -16.7430    2.8370   50.7080 C.3    19  ILE19       0.0022
     27  CG2      -15.2150    2.8620   52.6980 C.3    19  ILE19       0.0022
     28  CD1      -16.6670    1.3510   50.4360 C.3    19  ILE19       0.0001
     29  N        -18.9080    8.1850   53.2750 N.3    27  VAL27      -0.1245
     30  CA       -18.2740    7.8160   52.0190 C.3    27  VAL27       0.1561
     31  C        -18.8680    6.5720   51.3780 C.2    27  VAL27       0.2260
     32  O        -18.9810    5.5240   52.0060 O.2    27  VAL27      -0.2867
     33  CB       -16.7870    7.6080   52.2240 C.3    27  VAL27       0.0252
     34  CG1      -16.1280    7.1710   50.9130 C.3    27  VAL27       0.0019
     35  CG2      -16.1650    8.9220   52.7290 C.3    27  VAL27       0.0019
     36  N        -15.2420    7.8090   44.2960 N.3    37  ALA37      -0.1245
     37  CA       -15.6210    7.8330   45.6930 C.3    37  ALA37       0.1562
     38  C        -16.5800    9.0060   45.9150 C.2    37  ALA37       0.2260
     39  O        -16.3650   10.1020   45.3850 O.2    37  ALA37      -0.2867
     40  CB       -14.4030    7.9610   46.5660 C.3    37  ALA37       0.0290
     41  N        -18.5020   11.2470   48.9050 N.3    39  LYS39      -0.1245
     42  CA       -18.7360   11.5960   50.2880 C.3    39  LYS39       0.1561
     43  C        -19.9490   12.5130   50.4470 C.2    39  LYS39       0.2260
     44  O        -19.9090   13.6850   50.0690 O.2    39  LYS39      -0.2867
     45  CB       -17.4930   12.2460   50.8950 C.3    39  LYS39       0.0271
     46  CG       -17.7900   12.8990   52.2290 C.3    39  LYS39       0.0035
     47  CD       -16.5780   12.9810   53.1180 C.3    39  LYS39       0.0206
     48  CE       -15.6240   14.0520   52.7650 C.3    39  LYS39       0.1093
     49  NZ       -14.4160   13.8730   53.6250 N.3    39  LYS39      -0.1314
     50  N        -10.8270   23.4660   46.4000 N.3    61  LEU61      -0.1245
     51  CA       -10.4990   22.0690   46.0690 C.3    61  LEU61       0.1561
     52  C        -10.0370   21.8530   44.6270 C.2    61  LEU61       0.2260
     53  O         -9.1190   21.0480   44.3640 O.2    61  LEU61      -0.2867
     54  CB       -11.7210   21.1840   46.3640 C.3    61  LEU61       0.0270
     55  CG       -11.9740   21.0940   47.8730 C.3    61  LEU61       0.0019
     56  CD1      -13.1440   20.1820   48.2300 C.3    61  LEU61       0.0001
     57  CD2      -10.6850   20.6120   48.5340 C.3    61  LEU61       0.0001
     58  N         -6.2990   22.5870   44.4950 N.3    64  THR64      -0.1218
     59  CA        -5.3800   21.7720   45.2710 C.3    64  THR64       0.1862
     60  C         -5.1260   20.4890   44.5190 C.2    64  THR64       0.2287
     61  O         -5.8970   19.5490   44.6250 O.2    64  THR64      -0.2866
     62  CB        -5.9490   21.4420   46.6460 C.3    64  THR64       0.1770
     63  OG1       -6.4710   22.6350   47.2340 O.3    64  THR64      -0.2211
     64  CG2       -4.8740   20.8720   47.5470 C.3    64  THR64       0.0375
     65  N         -5.9860   13.3480   46.8810 N.3    70  LEU70      -0.1245
     66  CA        -7.1300   13.0040   46.0330 C.3    70  LEU70       0.1561
     67  C         -7.4820   14.1320   45.0570 C.2    70  LEU70       0.2260
     68  O         -7.3530   15.3080   45.4030 O.2    70  LEU70      -0.2867
     69  CB        -8.3480   12.6920   46.8860 C.3    70  LEU70       0.0270
     70  CG        -8.4080   11.3620   47.6440 C.3    70  LEU70       0.0019
     71  CD1       -9.6810   11.3750   48.4940 C.3    70  LEU70       0.0001
     72  CD2       -8.3630   10.1630   46.6770 C.3    70  LEU70       0.0001
     73  N        -10.2420   16.3130   43.1790 N.3    72  PHE72      -0.1241
     74  CA       -11.6330   16.7340   43.2680 C.3    72  PHE72       0.1605
     75  C        -12.2170   16.7020   41.8850 C.2    72  PHE72       0.2264
     76  O        -11.6900   17.3470   40.9880 O.2    72  PHE72      -0.2867
     77  CB       -11.7180   18.1220   43.9100 C.3    72  PHE72       0.0534
     78  CG       -13.0840   18.7250   43.9100 C.ar   72  PHE72      -0.0203
     79  CD1      -14.1560   18.0500   44.4520 C.ar   72  PHE72      -0.0042
     80  CD2      -13.2680   20.0520   43.4990 C.ar   72  PHE72      -0.0042
     81  CE1      -15.4270   18.6310   44.4820 C.ar   72  PHE72      -0.0003
     82  CE2      -14.5230   20.6440   43.5390 C.ar   72  PHE72      -0.0003
     83  CZ       -15.6110   19.9220   44.0330 C.ar   72  PHE72      -0.0000
     84  N        -19.2420   15.4100   47.7130 N.3    83  ILE83      -0.1245
     85  CA       -17.9440   15.5790   47.0780 C.3    83  ILE83       0.1561
     86  C        -17.5040   14.2880   46.3620 C.2    83  ILE83       0.2260
     87  O        -17.5540   13.1950   46.9530 O.2    83  ILE83      -0.2867
     88  CB       -16.9070   16.0110   48.1170 C.3    83  ILE83       0.0252
     89  CG1      -17.2990   17.3910   48.6760 C.3    83  ILE83       0.0019
     90  CG2      -15.5120   16.0340   47.5010 C.3    83  ILE83       0.0019
     91  CD1      -16.4940   17.8490   49.9050 C.3    83  ILE83       0.0001
     92  N        -14.4800   12.2690   44.2210 N.3    85  THR85      -0.1203
     93  CA       -13.0290   12.2010   44.0430 C.3    85  THR85       0.1994
     94  C        -12.7190   10.8740   43.3260 C.2    85  THR85       0.2618
     95  O        -13.6260   10.0900   43.0070 O.2    85  THR85      -0.2717
     96  CB       -12.2270   12.2710   45.3860 C.3    85  THR85       0.1784
     97  OG1      -12.4070   11.0590   46.1230 O.3    85  THR85      -0.2211
     98  CG2      -12.6780   13.4370   46.2610 C.3    85  THR85       0.0376
     99  N        -11.4580   10.6070   43.0280 N.am   86  GLN86      -0.1965
    100  CA       -11.2090    9.3240   42.4020 C.3    86  GLN86       0.1733
    101  C        -11.2640    8.2420   43.4710 C.2    86  GLN86       0.2616
    102  O        -11.0770    8.5020   44.6730 O.2    86  GLN86      -0.2715
    103  CB        -9.8810    9.2810   41.6500 C.3    86  GLN86       0.0408
    104  CG        -8.6600    9.3250   42.5020 C.3    86  GLN86       0.0908
    105  CD        -8.1260   10.7130   42.5980 C.2    86  GLN86       0.2608
    106  OE1       -8.8740   11.6320   42.9150 O.2    86  GLN86      -0.2717
    107  NE2       -6.8410   10.8960   42.2970 N.am   86  GLN86      -0.0878
    108  N        -11.5590    7.0350   43.0140 N.am   87  TRP87      -0.1960
    109  CA       -11.6420    5.8580   43.8750 C.3    87  TRP87       0.1771
    110  C        -10.2750    5.2120   44.0120 C.2    87  TRP87       0.2619
    111  O         -9.5550    5.0700   43.0320 O.2    87  TRP87      -0.2715
    112  CB       -12.6520    4.8640   43.2890 C.3    87  TRP87       0.0590
    113  CG       -12.7110    3.5350   43.9640 C.ar   87  TRP87       0.0006
    114  CD1      -12.2150    2.3580   43.4830 C.ar   87  TRP87       0.0946
    115  CD2      -13.3120    3.2290   45.2310 C.ar   87  TRP87       0.0152
    116  NE1      -12.4670    1.3350   44.3680 N.ar   87  TRP87      -0.2442
    117  CE2      -13.1190    1.8420   45.4620 C.ar   87  TRP87       0.0810
    118  CE3      -13.9760    3.9910   46.2030 C.ar   87  TRP87       0.0012
    119  CZ2      -13.5720    1.2000   46.6120 C.ar   87  TRP87       0.0191
    120  CZ3      -14.4290    3.3540   47.3530 C.ar   87  TRP87       0.0001
    121  CH2      -14.2260    1.9660   47.5480 C.ar   87  TRP87       0.0015
    122  N         -9.9150    4.8540   45.2370 N.am   88  CYS88      -0.1968
    123  CA        -8.6700    4.1410   45.5150 C.3    88  CYS88       0.1712
    124  C         -8.9460    2.6910   45.8870 C.2    88  CYS88       0.2296
    125  O         -9.3440    2.3930   47.0150 O.2    88  CYS88      -0.2864
    126  CB        -7.9080    4.8260   46.6480 C.3    88  CYS88       0.0983
    127  SG        -7.3950    6.5030   46.2010 S.3    88  CYS88      -0.0798
    128  N         -8.0730    0.8640   49.1600 N.3    91  SER91      -0.1202
    129  CA        -8.7240    1.3460   50.3930 C.3    91  SER91       0.2020
    130  C         -7.7590    2.1800   51.2360 C.2    91  SER91       0.2619
    131  O         -6.9090    2.8840   50.6830 O.2    91  SER91      -0.2717
    132  CB        -9.3250    0.1770   51.1950 C.3    91  SER91       0.2103
    133  OG        -8.3470   -0.6190   51.8190 O.3    91  SER91      -0.2182
    134  N         -7.8820    2.1450   52.5620 N.am   92  SER92      -0.1951
    135  CA        -7.0570    3.0370   53.3800 C.3    92  SER92       0.1924
    136  C         -5.8990    2.3520   54.0900 C.2    92  SER92       0.2314
    137  O         -5.9120    1.1460   54.3330 O.2    92  SER92      -0.2863
    138  CB        -7.9230    3.7450   54.4270 C.3    92  SER92       0.2116
    139  OG        -8.4330    2.7990   55.3510 O.3    92  SER92      -0.2180
    140  N         -6.9810    0.6510   57.2270 N.3    95  HIS95      -0.1241
    141  CA        -7.6030   -0.6250   56.9800 C.3    95  HIS95       0.1621
    142  C         -6.6190   -1.7680   56.7280 C.2    95  HIS95       0.2264
    143  O         -6.8700   -2.9100   57.1210 O.2    95  HIS95      -0.2867
    144  CB        -8.5560   -0.5120   55.8080 C.3    95  HIS95       0.0745
    145  CG        -9.3330   -1.7620   55.5540 C.ar   95  HIS95       0.0817
    146  ND1      -10.4270   -2.1240   56.3100 N.ar   95  HIS95      -0.2268
    147  CD2       -9.1470   -2.7560   54.6570 C.ar   95  HIS95       0.1154
    148  CE1      -10.9010   -3.2750   55.8650 C.ar   95  HIS95       0.1986
    149  NE2      -10.1390   -3.6790   54.8610 N.ar   95  HIS95      -0.2212
    150  N         -6.6490    6.6150   58.4500 N.3   136  ASN136     -0.1240
    151  CA        -7.9870    6.4680   57.8670 C.3   136  ASN136      0.1653
    152  C         -8.1940    7.3130   56.6100 C.2   136  ASN136      0.2266
    153  O         -9.0750    7.0260   55.8070 O.2   136  ASN136     -0.2867
    154  CB        -9.0710    6.8410   58.8810 C.3   136  ASN136      0.1155
    155  CG        -9.0460    5.9580   60.0950 C.2   136  ASN136      0.2627
    156  OD1       -9.5170    4.8170   60.0570 O.2   136  ASN136     -0.2716
    157  ND2       -8.4890    6.4750   61.1890 N.am  136  ASN136     -0.0877
    158  N         -5.0520    7.0400   51.4990 N.3   139  PHE139     -0.1241
    159  CA        -5.6580    6.0220   50.6860 C.3   139  PHE139      0.1605
    160  C         -4.6440    5.4690   49.7030 C.2   139  PHE139      0.2264
    161  O         -3.7520    6.1840   49.2800 O.2   139  PHE139     -0.2867
    162  CB        -6.8840    6.5950   49.9740 C.3   139  PHE139      0.0534
    163  CG        -7.9340    7.1400   50.9100 C.ar  139  PHE139     -0.0203
    164  CD1       -8.1560    8.5080   51.0120 C.ar  139  PHE139     -0.0042
    165  CD2       -8.6750    6.2840   51.7140 C.ar  139  PHE139     -0.0042
    166  CE1       -9.1160    9.0070   51.8700 C.ar  139  PHE139     -0.0003
    167  CE2       -9.6330    6.7700   52.5630 C.ar  139  PHE139     -0.0003
    168  CZ        -9.8530    8.1410   52.6450 C.ar  139  PHE139     -0.0000
    169  N         -6.6230   12.3590   51.6310 N.3   149  GLY149     -0.1210
    170  CA        -7.9550   12.9380   51.6170 C.3   149  GLY149      0.1956
    171  C         -8.3250   13.5840   52.9450 C.2   149  GLY149      0.2612
    172  O         -7.4870   13.7350   53.8260 O.2   149  GLY149     -0.2717
    173  N         -9.5800   14.0100   53.0530 N.am  150  ASP150     -0.1959
    174  CA       -10.1260   14.6680   54.2430 C.3   150  ASP150      0.1840
    175  C         -9.4690   16.0110   54.5810 C.2   150  ASP150      0.2622
    176  O         -9.5120   16.4510   55.7140 O.2   150  ASP150     -0.2715
    177  CB       -10.0120   13.7500   55.4500 C.3   150  ASP150      0.1450
    178  CG       -11.1980   12.8190   55.5870 C.2   150  ASP150      0.3671
    179  OD1      -11.4720   12.3660   56.7200 O.co2 150  ASP150     -0.2456
    180  OD2      -11.8660   12.5540   54.5700 O.co2 150  ASP150     -0.2456
    181  N         -8.8330   16.6500   53.6170 N.am  151  PHE151     -0.1960
    182  CA        -8.2210   17.9380   53.8980 C.3   151  PHE151      0.1771
    183  C         -9.1320   19.0900   53.4890 C.2   151  PHE151      0.2620
    184  O         -8.8860   20.2300   53.8570 O.2   151  PHE151     -0.2715
    185  CB        -6.8710   18.0390   53.1930 C.3   151  PHE151      0.0574
    186  CG        -6.9550   17.8570   51.7060 C.ar  151  PHE151     -0.0200
    187  CD1       -7.0750   18.9530   50.8630 C.ar  151  PHE151     -0.0042
    188  CD2       -6.9080   16.5900   51.1530 C.ar  151  PHE151     -0.0042
    189  CE1       -7.1480   18.7790   49.5030 C.ar  151  PHE151     -0.0003
    190  CE2       -6.9820   16.4060   49.7960 C.ar  151  PHE151     -0.0003
    191  CZ        -7.1080   17.5040   48.9670 C.ar  151  PHE151     -0.0000
    192  N        -10.1810   18.7790   52.7300 N.am  152  GLY152     -0.1940
    193  CA       -11.1010   19.7870   52.2410 C.3   152  GLY152      0.2014
    194  C        -12.0550   20.2380   53.3300 C.2   152  GLY152      0.2638
    195  O        -12.1740   19.5880   54.3690 O.2   152  GLY152     -0.2714
    196  N        -12.7720   21.3310   53.0830 N.am  153  LEU153     -0.1977
    197  CA       -13.6420   21.9040   54.1020 C.3   153  LEU153      0.1596
    198  C        -12.8070   22.2060   55.3390 C.2   153  LEU153      0.2287
    199  O        -13.1880   21.8660   56.4640 O.2   153  LEU153     -0.2864
    200  CB       -14.8020   20.9730   54.4440 C.3   153  LEU153      0.0297
    201  CG       -15.6710   20.5890   53.2410 C.3   153  LEU153      0.0022
    202  CD1      -16.7090   19.5600   53.6430 C.3   153  LEU153      0.0001
    203  CD2      -16.3250   21.8050   52.6130 C.3   153  LEU153      0.0001
@<TRIPOS>BOND
     1    76    75    2
     2   103   100    1
     3   103   104    1
     4    75    74    1
     5   107   105   am
     6   100    99    1
     7   100   101    1
     8   104   105    1
     9   105   106    2
    10    95    94    2
    11   108   101   am
    12   108   109    1
    13    99    94   am
    14   111   110    2
    15    73    74    1
    16    74    77    1
    17   112   109    1
    18   112   113    1
    19    94    93    1
    20   101   102    2
    21   114   113   ar
    22   114   116   ar
    23    80    82   ar
    24    80    78   ar
    25    82    83   ar
    26   109   110    1
    27    78    77    1
    28    78    79   ar
    29   113   115   ar
    30   110   122   am
    31    83    81   ar
    32    93    92    1
    33    93    96    1
    34    36    37    1
    35    53    52    2
    36   116   117   ar
    37    79    81   ar
    38    58    59    1
    39    60    61    2
    40    60    59    1
    41    52    51    1
    42    67    68    2
    43    67    66    1
    44   115   117   ar
    45   115   118   ar
    46   122   123    1
    47    59    62    1
    48    39    38    2
    49    96    97    1
    50    96    98    1
    51   117   119   ar
    52   123   124    1
    53   123   126    1
    54    37    38    1
    55    37    40    1
    56   124   125    2
    57    66    65    1
    58    66    69    1
    59    51    54    1
    60    51    50    1
    61   127   126    1
    62   118   120   ar
    63    86    87    2
    64    86    85    1
    65    54    55    1
    66   119   121   ar
    67    62    63    1
    68    62    64    1
    69    72    70    1
    70    69    70    1
    71    85    84    1
    72    85    88    1
    73     1     2    1
    74   120   121   ar
    75    90    88    1
    76    70    71    1
    77    55    56    1
    78    55    57    1
    79    88    89    1
    80     5     2    1
    81     5     6    1
    82     2     3    1
    83    89    91    1
    84     8     7    2
    85    41    42    1
    86   191   189   ar
    87   191   190   ar
    88   128   129    1
    89     4     3    2
    90   161   160    2
    91   189   187   ar
    92     3    10   am
    93   160   159    1
    94     7     6    1
    95     7     9   am
    96   190   188   ar
    97   162   159    1
    98   162   163    1
    99    44    43    2
   100    42    43    1
   101    42    45    1
   102   129   132    1
   103   129   130    1
   104    28    26    1
   105   131   130    2
   106   159   158    1
   107    26    25    1
   108    10    11    1
   109   187   186   ar
   110    45    46    1
   111   163   164   ar
   112   163   165   ar
   113    34    33    1
   114   164   166   ar
   115   188   186   ar
   116   132   133    1
   117   130   134   am
   118    31    32    2
   119    31    30    1
   120   170   169    1
   121   170   171    1
   122   186   185    1
   123   165   167   ar
   124    11    12    1
   125    11    14    1
   126   166   168   ar
   127    30    33    1
   128    30    29    1
   129    25    27    1
   130    25    22    1
   131    33    35    1
   132    46    47    1
   133   193   192    1
   134   193   194    1
   135    12    21   am
   136    12    13    2
   137    21    22    1
   138   134   135    1
   139   167   168   ar
   140   203   201    1
   141   192   183   am
   142    48    47    1
   143    48    49    1
   144    14    15    1
   145   171   173   am
   146   171   172    2
   147    22    23    1
   148   173   174    1
   149   196   194   am
   150   196   197    1
   151   185   182    1
   152   201   202    1
   153   201   200    1
   154   194   195    2
   155   135   136    1
   156   135   138    1
   157   183   184    2
   158   183   182    1
   159   181   182    1
   160   181   175   am
   161    15    16    1
   162   136   137    2
   163   197   200    1
   164   197   198    1
   165   174   175    1
   166   174   177    1
   167   138   139    1
   168    23    24    2
   169   180   178   ar
   170   175   176    2
   171   147   149   ar
   172   147   145   ar
   173   149   148   ar
   174    16    17    1
   175   198   199    2
   176   177   178    1
   177   145   144    1
   178   145   146   ar
   179   178   179   ar
   180   153   152    2
   181   144   141    1
   182   148   146   ar
   183    17    18    2
   184   152   151    1
   185   142   141    1
   186   142   143    2
   187   141   140    1
   188    19    18    1
   189    18    20    1
   190   151   150    1
   191   151   154    1
   192   154   155    1
   193   156   155    2
   194   155   157   am
