@<TRIPOS>MOLECULE
tmp/5jsqB01.pdb
 126 121 0 0 0
SMALL
GASTEIGER

@<TRIPOS>ATOM
      1  N         15.7580   26.5650   39.8210 N.3    49  LEU49      -0.1245
      2  CA        15.4680   27.9820   40.1420 C.3    49  LEU49       0.1561
      3  C         16.6680   28.6130   40.8630 C.2    49  LEU49       0.2260
      4  O         17.2860   27.9920   41.7480 O.2    49  LEU49      -0.2867
      5  CB        14.1940   28.2100   40.9830 C.3    49  LEU49       0.0270
      6  CG        12.9040   27.5390   40.4470 C.3    49  LEU49       0.0019
      7  CD1       11.7010   27.8140   41.4400 C.3    49  LEU49       0.0001
      8  CD2       12.5700   28.0350   39.0740 C.3    49  LEU49       0.0001
      9  N         13.7730   22.0830   44.6620 N.3    90  GLU90      -0.1245
     10  CA        13.2730   23.3920   44.2520 C.3    90  GLU90       0.1567
     11  C         12.8320   24.1290   45.5110 C.2    90  GLU90       0.2260
     12  O         12.1690   23.5410   46.3610 O.2    90  GLU90      -0.2867
     13  CB        12.1280   23.2310   43.2710 C.3    90  GLU90       0.0388
     14  CG        11.7040   24.5120   42.6190 C.3    90  GLU90       0.1160
     15  CD        10.7390   24.2480   41.4650 C.2    90  GLU90       0.3649
     16  OE1       11.1470   23.7180   40.4160 O.co2  90  GLU90      -0.2457
     17  OE2        9.5370   24.5740   41.6280 O.co2  90  GLU90      -0.2457
     18  N         10.6340   26.5910   45.9340 N.3    92  ILE92      -0.1231
     19  CA         9.1880   26.7700   46.0340 C.3    92  ILE92       0.1692
     20  C          8.5160   26.0220   44.9050 C.2    92  ILE92       0.2592
     21  O          8.9820   26.0130   43.7560 O.2    92  ILE92      -0.2718
     22  CB         8.8290   28.2650   46.0590 C.3    92  ILE92       0.0266
     23  CG1        7.3240   28.4350   46.3450 C.3    92  ILE92       0.0019
     24  CG2        9.2280   28.9550   44.7190 C.3    92  ILE92       0.0020
     25  CD1        6.9500   29.8820   46.6690 C.3    92  ILE92       0.0001
     26  N          7.3720   25.4150   45.2300 N.am   93  LEU93      -0.1966
     27  CA         6.4930   24.7080   44.2900 C.3    93  LEU93       0.1728
     28  C          5.1260   25.3750   44.4070 C.2    93  LEU93       0.2616
     29  O          4.5570   25.4380   45.5040 O.2    93  LEU93      -0.2715
     30  CB         6.4260   23.2130   44.6590 C.3    93  LEU93       0.0311
     31  CG         5.3880   22.3590   43.9060 C.3    93  LEU93       0.0022
     32  CD1        5.6710   22.4360   42.3870 C.3    93  LEU93       0.0001
     33  CD2        5.5180   20.9040   44.4230 C.3    93  LEU93       0.0001
     34  N          4.6320   25.9300   43.3050 N.am   94  ASP94      -0.1957
     35  CA         3.3700   26.6940   43.3500 C.3    94  ASP94       0.1840
     36  C          2.4680   26.1660   42.2340 C.2    94  ASP94       0.2623
     37  O          1.6710   25.2520   42.4800 O.2    94  ASP94      -0.2715
     38  CB         3.7370   28.1820   43.2410 C.3    94  ASP94       0.1450
     39  CG         2.5340   29.0990   43.2890 C.2    94  ASP94       0.3671
     40  OD1        1.5730   28.8000   43.9880 O.co2  94  ASP94      -0.2456
     41  OD2        2.5830   30.1340   42.5960 O.co2  94  ASP94      -0.2456
     42  N          2.5840   26.6810   40.9840 N.am   95  THR95      -0.1937
     43  CA         1.7470   26.1550   39.9070 C.3    95  THR95       0.2028
     44  C          2.1290   24.7440   39.4810 C.2    95  THR95       0.2642
     45  O          1.2810   24.0370   38.9330 O.2    95  THR95      -0.2714
     46  CB         1.8210   27.0270   38.6660 C.3    95  THR95       0.1808
     47  OG1        3.1470   26.9470   38.1370 O.3    95  THR95      -0.2208
     48  CG2        1.4660   28.4950   39.0200 C.3    95  THR95       0.0379
     49  N          3.3690   24.3600   39.7260 N.am   96  ALA96      -0.1963
     50  CA         4.0180   23.0990   39.3850 C.3    96  ALA96       0.1728
     51  C          4.3690   23.0470   37.9060 C.2    96  ALA96       0.2616
     52  O          4.8680   21.9820   37.4450 O.2    96  ALA96      -0.2715
     53  CB         3.2120   21.8390   39.7320 C.3    96  ALA96       0.0334
     54  N          4.2070   24.1360   37.1680 N.am   97  LEU97      -0.1963
     55  CA         4.5250   24.0760   35.7420 C.3    97  LEU97       0.1728
     56  C          6.0320   23.9110   35.5210 C.2    97  LEU97       0.2617
     57  O          6.4150   23.2030   34.5820 O.2    97  LEU97      -0.2715
     58  CB         4.0460   25.3260   35.0130 C.3    97  LEU97       0.0311
     59  CG         2.5260   25.5060   35.0210 C.3    97  LEU97       0.0022
     60  CD1        2.1070   26.7950   34.3300 C.3    97  LEU97       0.0001
     61  CD2        1.8500   24.2880   34.3780 C.3    97  LEU97       0.0001
     62  N          6.8820   24.5150   36.3790 N.am   98  THR98      -0.1937
     63  CA         8.3180   24.3600   36.1670 C.3    98  THR98       0.2028
     64  C          8.7410   22.9390   36.4760 C.2    98  THR98       0.2642
     65  O          9.4320   22.3010   35.6640 O.2    98  THR98      -0.2714
     66  CB         9.0880   25.3520   37.0570 C.3    98  THR98       0.1808
     67  OG1        8.7390   26.6730   36.6710 O.3    98  THR98      -0.2208
     68  CG2       10.6010   25.1600   36.8490 C.3    98  THR98       0.0379
     69  N          8.3040   22.4070   37.6240 N.am   99  LEU99      -0.1977
     70  CA         8.7710   21.0720   38.0180 C.3    99  LEU99       0.1596
     71  C          8.2590   20.0110   37.0760 C.2    99  LEU99       0.2287
     72  O          8.9780   19.0420   36.7730 O.2    99  LEU99      -0.2864
     73  CB         8.3560   20.7150   39.4430 C.3    99  LEU99       0.0297
     74  CG         9.3920   20.9930   40.5140 C.3    99  LEU99       0.0022
     75  CD1        8.9170   20.5250   41.9110 C.3    99  LEU99       0.0001
     76  CD2       10.8260   20.4550   40.2130 C.3    99  LEU99       0.0001
     77  N          3.3000   25.4450   47.9460 N.3   122  LYS122     -0.1245
     78  CA         2.0420   26.2310   47.9820 C.3   122  LYS122      0.1561
     79  C          1.0220   25.4300   47.2360 C.2   122  LYS122      0.2260
     80  O          0.7820   25.7170   46.0540 O.2   122  LYS122     -0.2867
     81  CB         2.1880   27.5870   47.3080 C.3   122  LYS122      0.0271
     82  CG         2.9230   28.5540   48.0630 C.3   122  LYS122      0.0035
     83  CD         2.9990   29.9010   47.2740 C.3   122  LYS122      0.0206
     84  CE         2.2780   30.9930   47.8820 C.3   122  LYS122      0.1093
     85  NZ         2.5280   32.3320   47.2240 N.3   122  LYS122     -0.1314
     86  N         -0.0980   33.3370   50.4300 N.3   142  VAL142     -0.1231
     87  CA         0.6090   34.4820   50.9920 C.3   142  VAL142      0.1692
     88  C          1.9200   34.5890   50.2450 C.2   142  VAL142      0.2592
     89  O          2.4700   33.5840   49.7880 O.2   142  VAL142     -0.2718
     90  CB         0.8970   34.3600   52.5150 C.3   142  VAL142      0.0266
     91  CG1       -0.3610   34.3430   53.2710 C.3   142  VAL142      0.0020
     92  CG2        1.6800   33.1400   52.8180 C.3   142  VAL142      0.0020
     93  N          2.4540   35.8120   50.1800 N.am  143  PHE143     -0.1962
     94  CA         3.7130   36.0260   49.4530 C.3   143  PHE143      0.1771
     95  C          4.8770   36.0450   50.4350 C.2   143  PHE143      0.2619
     96  O          4.9710   36.9620   51.2640 O.2   143  PHE143     -0.2715
     97  CB         3.6580   37.3370   48.6460 C.3   143  PHE143      0.0574
     98  CG         4.8740   37.5060   47.7690 C.ar  143  PHE143     -0.0200
     99  CD1        5.0140   36.7890   46.6040 C.ar  143  PHE143     -0.0042
    100  CD2        5.9030   38.3310   48.1860 C.ar  143  PHE143     -0.0042
    101  CE1        6.1640   36.8910   45.8190 C.ar  143  PHE143     -0.0003
    102  CE2        7.0820   38.4210   47.4250 C.ar  143  PHE143     -0.0003
    103  CZ         7.1900   37.6980   46.2490 C.ar  143  PHE143     -0.0000
    104  N          5.7720   35.0780   50.3040 N.am  144  VAL144     -0.1977
    105  CA         6.8770   34.9070   51.2340 C.3   144  VAL144      0.1596
    106  C          8.2130   35.2220   50.5670 C.2   144  VAL144      0.2287
    107  O          8.3950   35.0830   49.3490 O.2   144  VAL144     -0.2864
    108  CB         6.9520   33.4760   51.8230 C.3   144  VAL144      0.0276
    109  CG1        5.7220   33.2280   52.6300 C.3   144  VAL144      0.0022
    110  CG2        7.0850   32.3960   50.7440 C.3   144  VAL144      0.0022
    111  N         14.2130   32.6890   48.6280 N.3   149  LEU149     -0.1231
    112  CA        13.0620   33.2830   47.9410 C.3   149  LEU149      0.1693
    113  C         13.1720   34.8090   47.9200 C.2   149  LEU149      0.2592
    114  O         13.4660   35.4280   48.9510 O.2   149  LEU149     -0.2718
    115  CB        11.7330   32.8500   48.6180 C.3   149  LEU149      0.0284
    116  CG        11.5590   31.3390   48.5580 C.3   149  LEU149      0.0019
    117  CD1       10.3340   31.0010   49.4030 C.3   149  LEU149      0.0001
    118  CD2       11.3240   30.8470   47.1630 C.3   149  LEU149      0.0001
    119  N         12.9230   35.4150   46.7460 N.am  150  ASP150     -0.1974
    120  CA        13.2040   36.8420   46.5590 C.3   150  ASP150      0.1709
    121  C         11.9440   37.6440   46.3550 C.2   150  ASP150      0.2293
    122  O         10.8840   37.1440   45.9410 O.2   150  ASP150     -0.2864
    123  CB        14.1150   37.1320   45.3480 C.3   150  ASP150      0.1436
    124  CG        13.4110   36.9450   44.0150 C.2   150  ASP150      0.3671
    125  OD1       13.3190   37.9120   43.2080 O.co2 150  ASP150     -0.2456
    126  OD2       12.9200   35.8210   43.7460 O.co2 150  ASP150     -0.2456
@<TRIPOS>BOND
     1    60    59    1
     2    61    59    1
     3    57    56    2
     4    58    59    1
     5    58    55    1
     6    56    55    1
     7    56    62   am
     8    65    64    2
     9    55    54    1
    10    63    62    1
    11    63    64    1
    12    63    66    1
    13    64    69   am
    14    67    66    1
    15    72    71    2
    16    68    66    1
    17    71    70    1
    18    54    51   am
    19    52    51    2
    20    69    70    1
    21    51    50    1
    22    70    73    1
    23    47    46    1
    24    46    48    1
    25    46    43    1
    26    45    44    2
    27     8     6    1
    28    50    49    1
    29    50    53    1
    30    73    74    1
    31    44    49   am
    32    44    43    1
    33     1     2    1
    34    43    42    1
    35     2     3    1
    36     2     5    1
    37    76    74    1
    38    16    15   ar
    39     6     5    1
    40     6     7    1
    41    74    75    1
    42     3     4    2
    43    42    36   am
    44    15    17   ar
    45    15    14    1
    46    36    37    2
    47    36    35    1
    48    32    31    1
    49    41    39   ar
    50    14    13    1
    51   125   124   ar
    52    38    39    1
    53    38    35    1
    54    13    10    1
    55    39    40   ar
    56    34    35    1
    57    34    28   am
    58   126   124   ar
    59    21    20    2
    60    31    33    1
    61    31    30    1
    62   124   123    1
    63    10     9    1
    64    10    11    1
    65    27    28    1
    66    27    30    1
    67    27    26    1
    68    28    29    2
    69    24    22    1
    70    20    26   am
    71    20    19    1
    72   123   120    1
    73    11    12    2
    74   101   103   ar
    75   101    99   ar
    76    18    19    1
    77   122   121    2
    78    19    22    1
    79    80    79    2
    80    22    23    1
    81   103   102   ar
    82    23    25    1
    83   121   120    1
    84   120   119    1
    85    99    98   ar
    86   119   113   am
    87   118   116    1
    88    85    84    1
    89    79    78    1
    90    83    84    1
    91    83    82    1
    92    81    78    1
    93    81    82    1
    94   102   100   ar
    95    98   100   ar
    96    98    97    1
    97   113   112    1
    98   113   114    2
    99   112   115    1
   100   112   111    1
   101    77    78    1
   102   116   115    1
   103   116   117    1
   104    97    94    1
   105   107   106    2
   106    94    93    1
   107    94    95    1
   108    89    88    2
   109    93    88   am
   110    88    87    1
   111   104    95   am
   112   104   105    1
   113    86    87    1
   114    95    96    2
   115   106   105    1
   116   110   108    1
   117    87    90    1
   118   105   108    1
   119   108   109    1
   120    90    92    1
   121    90    91    1
