@<TRIPOS>MOLECULE
tmp/5jsvA00.pdb
 157 147 0 0 0
SMALL
GASTEIGER

@<TRIPOS>ATOM
      1  N          9.6030   11.9640   22.2080 N.3    93  ASP93      -0.1225
      2  CA        10.3850   13.0360   22.7880 C.3    93  ASP93       0.1805
      3  C          9.5240   13.7890   23.8050 C.2    93  ASP93       0.2598
      4  O          8.2900   13.7790   23.7460 O.2    93  ASP93      -0.2718
      5  CB        10.9510   13.9520   21.7030 C.3    93  ASP93       0.1424
      6  CG        12.1360   14.7660   22.1850 C.2    93  ASP93       0.3668
      7  OD1       12.5610   14.6170   23.3540 O.co2  93  ASP93      -0.2456
      8  OD2       12.6410   15.5690   21.3690 O.co2  93  ASP93      -0.2456
      9  N         10.1930   14.4530   24.7480 N.am   94  SER94      -0.1952
     10  CA         9.5600   14.9930   25.9450 C.3    94  SER94       0.1924
     11  C          9.0890   16.4350   25.8040 C.2    94  SER94       0.2314
     12  O          8.3710   16.9180   26.6900 O.2    94  SER94      -0.2863
     13  CB        10.5730   14.9510   27.0800 C.3    94  SER94       0.2116
     14  OG        11.7020   15.7230   26.6960 O.3    94  SER94      -0.2180
     15  N         13.2920   19.7270   23.2680 N.3    97  TYR97      -0.1241
     16  CA        13.8120   20.4500   22.1070 C.3    97  TYR97       0.1605
     17  C         13.0170   21.7210   21.8560 C.2    97  TYR97       0.2264
     18  O         13.5920   22.7760   21.5550 O.2    97  TYR97      -0.2867
     19  CB        13.7970   19.5810   20.8490 C.3    97  TYR97       0.0534
     20  CG        14.4360   20.2410   19.6420 C.ar   97  TYR97      -0.0201
     21  CD1       15.8190   20.2580   19.4870 C.ar   97  TYR97      -0.0009
     22  CD2       13.6620   20.8520   18.6550 C.ar   97  TYR97      -0.0009
     23  CE1       16.4130   20.8560   18.3820 C.ar   97  TYR97       0.0417
     24  CE2       14.2530   21.4560   17.5430 C.ar   97  TYR97       0.0417
     25  CZ        15.6280   21.4450   17.4120 C.ar   97  TYR97       0.1957
     26  OH        16.2160   22.0400   16.3160 O.3    97  TYR97      -0.2866
     27  N         13.8260   17.6460   29.5580 N.3   143  ASP143     -0.1239
     28  CA        15.1150   18.3150   29.6430 C.3   143  ASP143      0.1674
     29  C         15.0230   19.6730   28.9690 C.2   143  ASP143      0.2266
     30  O         13.9450   20.1180   28.5640 O.2   143  ASP143     -0.2867
     31  CB        16.1900   17.4810   28.9300 C.3   143  ASP143      0.1410
     32  CG        15.9490   17.3600   27.4320 C.2   143  ASP143      0.3668
     33  OD1       14.7680   17.3470   27.0110 O.co2 143  ASP143     -0.2456
     34  OD2       16.9480   17.2610   26.6770 O.co2 143  ASP143     -0.2456
     35  N         17.1720   21.3400   25.7540 N.3   145  CYS145     -0.1235
     36  CA        18.2250   21.2740   24.7450 C.3   145  CYS145      0.1677
     37  C         18.9610   22.6050   24.7730 C.2   145  CYS145      0.2270
     38  O         18.4250   23.6190   24.3260 O.2   145  CYS145     -0.2867
     39  CB        17.6380   21.0210   23.3600 C.3   145  CYS145      0.0956
     40  SG        18.8890   20.9070   22.0740 S.3   145  CYS145     -0.0801
     41  N         18.5850   12.0450   29.3100 N.3   188  ILE188     -0.1245
     42  CA        19.1940   12.8280   28.2350 C.3   188  ILE188      0.1561
     43  C         20.3980   13.5900   28.7780 C.2   188  ILE188      0.2260
     44  O         20.2540   14.4790   29.6300 O.2   188  ILE188     -0.2867
     45  CB        18.2030   13.7910   27.5630 C.3   188  ILE188      0.0252
     46  CG1       16.9430   13.0510   27.1150 C.3   188  ILE188      0.0019
     47  CG2       18.8880   14.4760   26.3840 C.3   188  ILE188      0.0019
     48  CD1       15.8710   13.9500   26.5530 C.3   188  ILE188      0.0001
     49  N         23.2400   16.3400   28.7370 N.3   190  GLN190     -0.1245
     50  CA        23.4900   17.6830   28.2220 C.3   190  GLN190      0.1566
     51  C         24.9300   18.0850   28.5260 C.2   190  GLN190      0.2260
     52  O         25.7690   17.2220   28.8090 O.2   190  GLN190     -0.2867
     53  CB        22.4480   18.6760   28.7510 C.3   190  GLN190      0.0367
     54  CG        21.0210   18.3020   28.3360 C.3   190  GLN190      0.0905
     55  CD        20.7280   18.5670   26.8730 C.2   190  GLN190      0.2608
     56  OE1       21.4440   19.3100   26.1970 O.2   190  GLN190     -0.2717
     57  NE2       19.6540   17.9690   26.3790 N.am  190  GLN190     -0.0878
     58  N         22.1980   11.1740   23.9610 N.3   215  VAL215     -0.1231
     59  CA        23.0800   12.3250   23.8350 C.3   215  VAL215      0.1692
     60  C         22.2210   13.4550   23.2840 C.2   215  VAL215      0.2593
     61  O         21.8620   13.4620   22.1010 O.2   215  VAL215     -0.2718
     62  CB        24.2770   12.0230   22.9370 C.3   215  VAL215      0.0266
     63  CG1       25.1580   13.2550   22.8020 C.3   215  VAL215      0.0020
     64  CG2       25.0600   10.8500   23.4970 C.3   215  VAL215      0.0020
     65  N         21.8380   14.3790   24.1700 N.am  216  GLY216     -0.1942
     66  CA        21.0970   15.5570   23.7880 C.3   216  GLY216      0.2014
     67  C         22.0280   16.7040   23.4510 C.2   216  GLY216      0.2639
     68  O         23.2510   16.6110   23.5610 O.2   216  GLY216     -0.2714
     69  N         21.4260   17.8110   23.0160 N.am  217  GLY217     -0.1939
     70  CA        22.1770   19.0350   22.8120 C.3   217  GLY217      0.2014
     71  C         23.0640   19.0590   21.5940 C.2   217  GLY217      0.2639
     72  O         23.9030   19.9590   21.4860 O.2   217  GLY217     -0.2714
     73  N         22.9130   18.1110   20.6780 N.am  218  LEU218     -0.1963
     74  CA        23.6440   18.1070   19.4210 C.3   218  LEU218      0.1728
     75  C         22.6470   18.2190   18.2700 C.2   218  LEU218      0.2616
     76  O         21.4350   18.3000   18.4850 O.2   218  LEU218     -0.2715
     77  CB        24.5650   16.8880   19.3180 C.3   218  LEU218      0.0311
     78  CG        25.6860   16.8560   20.3630 C.3   218  LEU218      0.0022
     79  CD1       26.5020   15.5750   20.2120 C.3   218  LEU218      0.0001
     80  CD2       26.5860   18.0780   20.2510 C.3   218  LEU218      0.0001
     81  N         23.1670   18.2570   17.0430 N.am  219  ALA219     -0.1963
     82  CA        22.3480   18.5900   15.8790 C.3   219  ALA219      0.1728
     83  C         21.5980   19.8960   16.1240 C.2   219  ALA219      0.2616
     84  O         20.3810   20.0010   15.9420 O.2   219  ALA219     -0.2715
     85  CB        21.4190   17.4350   15.4860 C.3   219  ALA219      0.0334
     86  N         22.3580   20.8960   16.5690 N.am  220  VAL220     -0.1963
     87  CA        21.8290   22.2200   16.8850 C.3   220  VAL220      0.1727
     88  C         22.6260   23.2990   16.1630 C.2   220  VAL220      0.2616
     89  O         22.6350   24.4640   16.5810 O.2   220  VAL220     -0.2715
     90  CB        21.8040   22.4760   18.4050 C.3   220  VAL220      0.0290
     91  CG1       20.6780   21.6970   19.0530 C.3   220  VAL220      0.0023
     92  CG2       23.1480   22.1230   19.0340 C.3   220  VAL220      0.0023
     93  N         23.3030   22.9240   15.0800 N.am  221  GLY221     -0.1955
     94  CA        24.0420   23.8790   14.2780 C.3   221  GLY221      0.1869
     95  C         25.5440   23.7700   14.3850 C.2   221  GLY221      0.2309
     96  O         26.2510   24.5540   13.7380 O.2   221  GLY221     -0.2863
     97  N         19.9790   12.1800   19.4890 N.3   247  MET247     -0.1230
     98  CA        18.7160   12.8060   19.1160 C.3   247  MET247      0.1702
     99  C         18.8860   13.7320   17.9180 C.2   247  MET247      0.2592
    100  O         19.7420   14.6230   17.9190 O.2   247  MET247     -0.2718
    101  CB        18.1270   13.5760   20.3040 C.3   247  MET247      0.0401
    102  CG        18.0290   12.7220   21.5590 C.3   247  MET247      0.0596
    103  SD        17.0450   13.4540   22.8800 S.3   247  MET247     -0.1393
    104  CE        15.3960   13.1890   22.2070 C.3   247  MET247      0.0692
    105  N         18.0500   13.5340   16.9030 N.am  248  GLY248     -0.1957
    106  CA        17.9780   14.4450   15.7740 C.3   248  GLY248      0.1869
    107  C         18.9940   14.2220   14.6750 C.2   248  GLY248      0.2309
    108  O         19.0620   15.0360   13.7460 O.2   248  GLY248     -0.2863
    109  N         22.1760   13.0510    8.6700 N.3   251  LYS251     -0.1245
    110  CA        22.5110   12.6420    7.3130 C.3   251  LYS251      0.1561
    111  C         23.1520   11.2580    7.3510 C.2   251  LYS251      0.2260
    112  O         23.6840   10.8470    8.3850 O.2   251  LYS251     -0.2867
    113  CB        23.5310   13.6050    6.7100 C.3   251  LYS251      0.0271
    114  CG        23.1000   15.0490    6.5950 C.3   251  LYS251      0.0035
    115  CD        24.2970   15.9280    6.2030 C.3   251  LYS251      0.0206
    116  CE        25.1330   16.3070    7.4280 C.3   251  LYS251      0.1093
    117  NZ        26.6100   16.2400    7.2110 N.3   251  LYS251     -0.1314
    118  N         17.0930    9.3740   15.1860 N.3   267  ASP267     -0.1225
    119  CA        15.8830    9.8500   14.5260 C.3   267  ASP267      0.1805
    120  C         16.2460   11.1160   13.7710 C.2   267  ASP267      0.2598
    121  O         17.1290   11.8580   14.2010 O.2   267  ASP267     -0.2718
    122  CB        14.7890   10.2240   15.5340 C.3   267  ASP267      0.1424
    123  CG        15.0660   11.5620   16.2230 C.2   267  ASP267      0.3668
    124  OD1       15.8200   11.5860   17.2260 O.co2 267  ASP267     -0.2456
    125  OD2       14.5490   12.5900   15.7440 O.co2 267  ASP267     -0.2456
    126  N         15.5270   11.3780   12.6760 N.am  268  CYS268     -0.1956
    127  CA        15.7970   12.5670   11.8870 C.3   268  CYS268      0.1843
    128  C         14.6360   12.8350   10.9400 C.2   268  CYS268      0.2625
    129  O         14.0930   11.9020   10.3460 O.2   268  CYS268     -0.2714
    130  CB        17.0660   12.3390   11.0680 C.3   268  CYS268      0.0997
    131  SG        17.7240   13.8450   10.4340 S.3   268  CYS268     -0.0797
    132  N         14.2920   14.1170   10.7580 N.am  269  VAL269     -0.1963
    133  CA        13.3000   14.4690    9.7440 C.3   269  VAL269      0.1727
    134  C         13.8700   14.5000    8.3380 C.2   269  VAL269      0.2616
    135  O         13.1020   14.6070    7.3800 O.2   269  VAL269     -0.2715
    136  CB        12.6170   15.8260   10.0100 C.3   269  VAL269      0.0290
    137  CG1       11.8910   15.8060   11.3490 C.3   269  VAL269      0.0023
    138  CG2       13.6200   16.9780    9.9220 C.3   269  VAL269      0.0023
    139  N         15.1870   14.4030    8.1720 N.am  270  LEU270     -0.1977
    140  CA        15.7750   14.5670    6.8410 C.3   270  LEU270      0.1596
    141  C         15.1490   13.6760    5.7710 C.2   270  LEU270      0.2287
    142  O         14.7700   14.2000    4.7100 O.2   270  LEU270     -0.2864
    143  CB        17.3010   14.4250    6.9040 C.3   270  LEU270      0.0297
    144  CG        18.1210   14.8470    5.6850 C.3   270  LEU270      0.0022
    145  CD1       17.9840   16.3380    5.4190 C.3   270  LEU270      0.0001
    146  CD2       19.5730   14.4690    5.8900 C.3   270  LEU270      0.0001
    147  N         11.2250   15.0080    5.3750 N.3   273  ARG273     -0.1245
    148  CA        11.0740   16.4040    4.9790 C.3   273  ARG273      0.1563
    149  C         11.8130   16.7040    3.6820 C.2   273  ARG273      0.2260
    150  O         11.2590   17.3280    2.7700 O.2   273  ARG273     -0.2867
    151  CB        11.5370   17.3270    6.1010 C.3   273  ARG273      0.0307
    152  CG        11.2850   18.7890    5.7850 C.3   273  ARG273      0.0489
    153  CD        11.5220   19.6680    6.9880 C.3   273  ARG273      0.2205
    154  NE        12.9200   19.6730    7.4000 N.pl3 273  ARG273     -0.0865
    155  CZ        13.3900   20.4160    8.3980 C.cat 273  ARG273      0.5346
    156  NH1       12.5690   21.2030    9.0770 N.pl3 273  ARG273      0.1354
    157  NH2       14.6730   20.3740    8.7160 N.pl3 273  ARG273      0.1354
@<TRIPOS>BOND
     1   150   149    2
     2   149   148    1
     3   142   141    2
     4   148   147    1
     5   148   151    1
     6   145   144    1
     7   144   146    1
     8   144   143    1
     9   141   140    1
    10   152   151    1
    11   152   153    1
    12   115   114    1
    13   115   116    1
    14   114   113    1
    15   113   110    1
    16   140   143    1
    17   140   139    1
    18   153   154    1
    19   117   116    1
    20   110   111    1
    21   110   109    1
    22   111   112    2
    23   135   134    2
    24   154   155    2
    25   139   134   am
    26   134   133    1
    27   155   157    1
    28   155   156    1
    29   133   136    1
    30   133   132    1
    31   138   136    1
    32   136   137    1
    33   129   128    2
    34   131   130    1
    35   132   128   am
    36   128   127    1
    37   130   127    1
    38   127   126    1
    39   126   120   am
    40    96    95    2
    41   108   107    2
    42   120   121    2
    43   120   119    1
    44    94    95    1
    45    94    93    1
    46   119   118    1
    47   119   122    1
    48   107   106    1
    49    93    88   am
    50    85    82    1
    51   122   123    1
    52   125   123   ar
    53   106   105    1
    54    82    83    1
    55    82    81    1
    56    84    83    2
    57    83    86   am
    58    88    89    2
    59    88    87    1
    60   123   124   ar
    61    26    25    1
    62    86    87    1
    63    87    90    1
    64   105    99   am
    65    81    75   am
    66    25    24   ar
    67    25    23   ar
    68    24    22   ar
    69    99   100    2
    70    99    98    1
    71    75    76    2
    72    75    74    1
    73    23    21   ar
    74    90    92    1
    75    90    91    1
    76    22    20   ar
    77    98    97    1
    78    98   101    1
    79    77    74    1
    80    77    78    1
    81    74    73    1
    82    21    20   ar
    83    20    19    1
    84    79    78    1
    85    80    78    1
    86   101   102    1
    87    73    71   am
    88    19    16    1
    89     8     6   ar
    90    72    71    2
    91    18    17    2
    92   102   103    1
    93    71    70    1
    94     5     6    1
    95     5     2    1
    96    17    16    1
    97    40    39    1
    98    61    60    2
    99    16    15    1
   100     6     7   ar
   101   104   103    1
   102     1     2    1
   103     2     3    1
   104    63    62    1
   105    70    69    1
   106    62    64    1
   107    62    59    1
   108    69    67   am
   109    60    59    1
   110    60    65   am
   111    39    36    1
   112    67    68    2
   113    67    66    1
   114     4     3    2
   115    66    65    1
   116     3     9   am
   117    59    58    1
   118    38    37    2
   119    36    37    1
   120    36    35    1
   121     9    10    1
   122    11    10    1
   123    11    12    2
   124    10    13    1
   125    56    55    2
   126    57    55   am
   127    47    45    1
   128    48    46    1
   129    34    32   ar
   130    14    13    1
   131    55    54    1
   132    33    32   ar
   133    46    45    1
   134    32    31    1
   135    45    42    1
   136    50    51    1
   137    50    49    1
   138    50    53    1
   139    42    43    1
   140    42    41    1
   141    54    53    1
   142    51    52    2
   143    30    29    2
   144    43    44    2
   145    31    28    1
   146    29    28    1
   147    27    28    1
