@<TRIPOS>MOLECULE
tmp/5jswA00.pdb
 154 144 0 0 0
SMALL
GASTEIGER

@<TRIPOS>ATOM
      1  N          9.6090   12.2800   22.2390 N.3    93  ASP93      -0.1225
      2  CA        10.3920   13.3460   22.8300 C.3    93  ASP93       0.1805
      3  C          9.5260   14.1130   23.8240 C.2    93  ASP93       0.2598
      4  O          8.2950   14.0930   23.7620 O.2    93  ASP93      -0.2718
      5  CB        10.9550   14.2610   21.7450 C.3    93  ASP93       0.1424
      6  CG        12.1470   15.0730   22.2250 C.2    93  ASP93       0.3668
      7  OD1       12.5660   14.9250   23.4020 O.co2  93  ASP93      -0.2456
      8  OD2       12.6640   15.8740   21.4180 O.co2  93  ASP93      -0.2456
      9  N         10.1920   14.7680   24.7710 N.am   94  SER94      -0.1952
     10  CA         9.5550   15.3060   25.9670 C.3    94  SER94       0.1924
     11  C          9.0850   16.7460   25.8240 C.2    94  SER94       0.2314
     12  O          8.3610   17.2260   26.7050 O.2    94  SER94      -0.2863
     13  CB        10.5700   15.2760   27.1020 C.3    94  SER94       0.2116
     14  OG        11.7000   16.0500   26.7280 O.3    94  SER94      -0.2180
     15  N         13.2990   20.0500   23.3330 N.3    97  TYR97      -0.1241
     16  CA        13.8070   20.7830   22.1720 C.3    97  TYR97       0.1605
     17  C         13.0180   22.0650   21.9540 C.2    97  TYR97       0.2264
     18  O         13.5990   23.1270   21.6990 O.2    97  TYR97      -0.2867
     19  CB        13.7700   19.9300   20.9030 C.3    97  TYR97       0.0534
     20  CG        14.3990   20.6400   19.7230 C.ar   97  TYR97      -0.0201
     21  CD1       15.7810   20.6440   19.5510 C.ar   97  TYR97      -0.0009
     22  CD2       13.6200   21.3300   18.7960 C.ar   97  TYR97      -0.0009
     23  CE1       16.3720   21.3030   18.4820 C.ar   97  TYR97       0.0417
     24  CE2       14.2050   21.9940   17.7180 C.ar   97  TYR97       0.0417
     25  CZ        15.5800   21.9690   17.5650 C.ar   97  TYR97       0.1957
     26  OH        16.1640   22.6220   16.5010 O.3    97  TYR97      -0.2866
     27  N         13.7930   25.8940   20.9670 N.3   101  SER101     -0.1217
     28  CA        13.4740   26.4150   19.6390 C.3   101  SER101      0.1889
     29  C         12.3330   27.4230   19.6610 C.2   101  SER101      0.2288
     30  O         12.2860   28.3190   18.8100 O.2   101  SER101     -0.2866
     31  CB        13.1720   25.2700   18.6700 C.3   101  SER101      0.2089
     32  OG        11.9790   24.5910   19.0240 O.3   101  SER101     -0.2183
     33  N         13.8150   17.9550   29.6010 N.3   145  ASP145     -0.1239
     34  CA        15.0920   18.6500   29.6960 C.3   145  ASP145      0.1674
     35  C         14.9860   20.0110   29.0250 C.2   145  ASP145      0.2266
     36  O         13.9040   20.4200   28.5900 O.2   145  ASP145     -0.2867
     37  CB        16.1820   17.8280   28.9960 C.3   145  ASP145      0.1410
     38  CG        15.9480   17.6870   27.4960 C.2   145  ASP145      0.3668
     39  OD1       14.7710   17.6610   27.0690 O.co2 145  ASP145     -0.2456
     40  OD2       16.9440   17.5850   26.7370 O.co2 145  ASP145     -0.2456
     41  N         17.1090   21.5940   25.7680 N.3   147  CYS147     -0.1235
     42  CA        18.1890   21.5670   24.7840 C.3   147  CYS147      0.1677
     43  C         18.9270   22.9000   24.8480 C.2   147  CYS147      0.2270
     44  O         18.3810   23.9310   24.4500 O.2   147  CYS147     -0.2867
     45  CB        17.6260   21.3420   23.3860 C.3   147  CYS147      0.0956
     46  SG        18.8890   21.2600   22.1230 S.3   147  CYS147     -0.0801
     47  N         18.5840   12.3700   29.3450 N.3   190  ILE190     -0.1245
     48  CA        19.1890   13.1540   28.2690 C.3   190  ILE190      0.1561
     49  C         20.3920   13.9170   28.8130 C.2   190  ILE190      0.2260
     50  O         20.2450   14.8000   29.6710 O.2   190  ILE190     -0.2867
     51  CB        18.1940   14.1070   27.5910 C.3   190  ILE190      0.0252
     52  CG1       16.9420   13.3550   27.1420 C.3   190  ILE190      0.0019
     53  CG2       18.8820   14.8010   26.4210 C.3   190  ILE190      0.0019
     54  CD1       15.8590   14.2810   26.5980 C.3   190  ILE190      0.0001
     55  N         23.2400   16.6640   28.7960 N.3   192  GLN192     -0.1245
     56  CA        23.4770   18.0160   28.2940 C.3   192  GLN192      0.1566
     57  C         24.9140   18.4280   28.5970 C.2   192  GLN192      0.2260
     58  O         25.7520   17.5670   28.8810 O.2   192  GLN192     -0.2867
     59  CB        22.4320   19.0040   28.8320 C.3   192  GLN192      0.0367
     60  CG        21.0070   18.6410   28.4250 C.3   192  GLN192      0.0905
     61  CD        20.7160   18.9070   26.9520 C.2   192  GLN192      0.2608
     62  OE1       21.4350   19.6580   26.2800 O.2   192  GLN192     -0.2717
     63  NE2       19.6470   18.2970   26.4460 N.am  192  GLN192     -0.0878
     64  N         22.2070   11.5010   24.0040 N.3   217  VAL217     -0.1231
     65  CA        23.0860   12.6530   23.8880 C.3   217  VAL217      0.1692
     66  C         22.2270   13.7850   23.3410 C.2   217  VAL217      0.2593
     67  O         21.8590   13.7930   22.1590 O.2   217  VAL217     -0.2718
     68  CB        24.2900   12.3620   22.9960 C.3   217  VAL217      0.0266
     69  CG1       25.1630   13.5920   22.8570 C.3   217  VAL217      0.0020
     70  CG2       25.0800   11.1860   23.5650 C.3   217  VAL217      0.0020
     71  N         21.8510   14.7090   24.2260 N.am  218  GLY218     -0.1942
     72  CA        21.1070   15.8830   23.8370 C.3   218  GLY218      0.2014
     73  C         22.0310   17.0350   23.5090 C.2   218  GLY218      0.2639
     74  O         23.2530   16.9470   23.6230 O.2   218  GLY218     -0.2714
     75  N         21.4220   18.1380   23.0770 N.am  219  GLY219     -0.1939
     76  CA        22.1780   19.3600   22.8840 C.3   219  GLY219      0.2014
     77  C         23.0770   19.3830   21.6710 C.2   219  GLY219      0.2639
     78  O         23.9310   20.2680   21.5660 O.2   219  GLY219     -0.2714
     79  N         22.9270   18.4330   20.7580 N.am  220  LEU220     -0.1963
     80  CA        23.6620   18.4320   19.5010 C.3   220  LEU220      0.1728
     81  C         22.6660   18.5450   18.3490 C.2   220  LEU220      0.2616
     82  O         21.4530   18.6340   18.5620 O.2   220  LEU220     -0.2715
     83  CB        24.5940   17.2180   19.3950 C.3   220  LEU220      0.0311
     84  CG        25.7290   17.1740   20.4300 C.3   220  LEU220      0.0022
     85  CD1       26.5300   15.8750   20.2910 C.3   220  LEU220      0.0001
     86  CD2       26.6420   18.3890   20.3100 C.3   220  LEU220      0.0001
     87  N         23.1800   18.5730   17.1190 N.am  221  ALA221     -0.1963
     88  CA        22.3580   18.9150   15.9610 C.3   221  ALA221      0.1728
     89  C         21.6230   20.2320   16.2130 C.2   221  ALA221      0.2616
     90  O         20.4060   20.3490   16.0420 O.2   221  ALA221     -0.2715
     91  CB        21.4060   17.7760   15.5860 C.3   221  ALA221      0.0334
     92  N         22.3890   21.2290   16.6600 N.am  222  VAL222     -0.1963
     93  CA        21.8590   22.5490   16.9920 C.3   222  VAL222      0.1727
     94  C         22.6360   23.6300   16.2520 C.2   222  VAL222      0.2616
     95  O         22.6420   24.7960   16.6620 O.2   222  VAL222     -0.2715
     96  CB        21.8730   22.8050   18.5120 C.3   222  VAL222      0.0290
     97  CG1       20.7770   22.0020   19.2020 C.3   222  VAL222      0.0023
     98  CG2       23.2410   22.4620   19.1000 C.3   222  VAL222      0.0023
     99  N         23.2990   23.2550   15.1600 N.am  223  GLY223     -0.1955
    100  CA        24.0480   24.2050   14.3600 C.3   223  GLY223      0.1869
    101  C         25.5500   24.0820   14.4670 C.2   223  GLY223      0.2309
    102  O         26.2650   24.8480   13.8050 O.2   223  GLY223     -0.2863
    103  N         20.0050   12.5390   19.5310 N.3   249  MET249     -0.1230
    104  CA        18.7330   13.1510   19.1570 C.3   249  MET249      0.1702
    105  C         18.8990   14.0810   17.9600 C.2   249  MET249      0.2592
    106  O         19.7500   14.9800   17.9690 O.2   249  MET249     -0.2718
    107  CB        18.1350   13.9230   20.3380 C.3   249  MET249      0.0401
    108  CG        18.0620   13.0890   21.6030 C.3   249  MET249      0.0596
    109  SD        17.0400   13.7880   22.9120 S.3   249  MET249     -0.1393
    110  CE        15.4030   13.5440   22.2030 C.3   249  MET249      0.0692
    111  N         18.0680   13.8730   16.9380 N.am  250  GLY250     -0.1957
    112  CA        17.9920   14.7820   15.8120 C.3   250  GLY250      0.1869
    113  C         19.0000   14.5430   14.7090 C.2   250  GLY250      0.2309
    114  O         19.0310   15.3220   13.7510 O.2   250  GLY250     -0.2863
    115  N         17.1560    9.7120   15.1320 N.3   269  ASP269     -0.1225
    116  CA        15.9440   10.1870   14.4810 C.3   269  ASP269      0.1805
    117  C         16.3030   11.4580   13.7320 C.2   269  ASP269      0.2598
    118  O         17.1910   12.2010   14.1530 O.2   269  ASP269     -0.2718
    119  CB        14.8490   10.5420   15.4930 C.3   269  ASP269      0.1424
    120  CG        15.1060   11.8830   16.1780 C.2   269  ASP269      0.3668
    121  OD1       15.8330   11.9230   17.1980 O.co2 269  ASP269     -0.2456
    122  OD2       14.6220   12.9060   15.6600 O.co2 269  ASP269     -0.2456
    123  N         15.5680   11.7230   12.6480 N.am  270  CYS270     -0.1956
    124  CA        15.8530   12.8880   11.8260 C.3   270  CYS270      0.1843
    125  C         14.6780   13.1640   10.8970 C.2   270  CYS270      0.2625
    126  O         14.0960   12.2280   10.3460 O.2   270  CYS270     -0.2714
    127  CB        17.0950   12.5990   10.9870 C.3   270  CYS270      0.0997
    128  SG        17.7740   14.0510   10.2690 S.3   270  CYS270     -0.0797
    129  N         14.3530   14.4490   10.6950 N.am  271  VAL271     -0.1963
    130  CA        13.3400   14.7910    9.6980 C.3   271  VAL271      0.1727
    131  C         13.8830   14.8150    8.2800 C.2   271  VAL271      0.2616
    132  O         13.1000   14.9170    7.3400 O.2   271  VAL271     -0.2715
    133  CB        12.6470   16.1420    9.9710 C.3   271  VAL271      0.0290
    134  CG1       11.9830   16.1310   11.3450 C.3   271  VAL271      0.0023
    135  CG2       13.6320   17.3040    9.8240 C.3   271  VAL271      0.0023
    136  N         15.1940   14.7100    8.0910 N.am  272  LEU272     -0.1977
    137  CA        15.7670   14.8440    6.7500 C.3   272  LEU272      0.1596
    138  C         15.1250   13.9390    5.6990 C.2   272  LEU272      0.2287
    139  O         14.7240   14.4520    4.6420 O.2   272  LEU272     -0.2864
    140  CB        17.2930   14.6990    6.8240 C.3   272  LEU272      0.0297
    141  CG        18.1460   15.1350    5.6340 C.3   272  LEU272      0.0022
    142  CD1       17.9880   16.6250    5.3570 C.3   272  LEU272      0.0001
    143  CD2       19.5950   14.7990    5.9110 C.3   272  LEU272      0.0001
    144  N         11.1980   15.2880    5.3480 N.3   275  ARG275     -0.1245
    145  CA        11.0560   16.6810    4.9360 C.3   275  ARG275      0.1563
    146  C         11.7950   16.9670    3.6350 C.2   275  ARG275      0.2260
    147  O         11.2460   17.5940    2.7210 O.2   275  ARG275     -0.2867
    148  CB        11.5350   17.6040    6.0480 C.3   275  ARG275      0.0307
    149  CG        11.2940   19.0680    5.7110 C.3   275  ARG275      0.0489
    150  CD        11.4710   19.9580    6.9100 C.3   275  ARG275      0.2205
    151  NE        12.8670   20.0720    7.2940 N.pl3 275  ARG275     -0.0865
    152  CZ        13.3040   20.9070    8.2300 C.cat 275  ARG275      0.5346
    153  NH1       12.4430   21.6890    8.8700 N.pl3 275  ARG275      0.1354
    154  NH2       14.5930   20.9620    8.5240 N.pl3 275  ARG275      0.1354
@<TRIPOS>BOND
     1   147   146    2
     2   146   145    1
     3   139   138    2
     4   145   144    1
     5   145   148    1
     6   142   141    1
     7   141   143    1
     8   141   140    1
     9   138   137    1
    10   149   148    1
    11   149   150    1
    12   137   140    1
    13   137   136    1
    14   150   151    1
    15   151   152    2
    16   132   131    2
    17   136   131   am
    18   152   154    1
    19   152   153    1
    20   131   130    1
    21   130   133    1
    22   130   129    1
    23   135   133    1
    24   133   134    1
    25   128   127    1
    26   126   125    2
    27   129   125   am
    28   125   124    1
    29   127   124    1
    30   124   123    1
    31   123   117   am
    32   117   118    2
    33   117   116    1
    34   114   113    2
    35   102   101    2
    36   100   101    1
    37   100    99    1
    38   116   115    1
    39   116   119    1
    40   113   112    1
    41    99    94   am
    42   119   120    1
    43    91    88    1
    44   122   120   ar
    45   112   111    1
    46    88    89    1
    47    88    87    1
    48    90    89    2
    49   120   121   ar
    50    89    92   am
    51    94    95    2
    52    94    93    1
    53    26    25    1
    54    92    93    1
    55   111   105   am
    56    93    96    1
    57    87    81   am
    58    25    24   ar
    59    25    23   ar
    60    24    22   ar
    61   105   106    2
    62   105   104    1
    63    81    82    2
    64    81    80    1
    65    23    21   ar
    66    96    98    1
    67    96    97    1
    68    31    32    1
    69    31    28    1
    70    22    20   ar
    71    30    29    2
    72   104   103    1
    73   104   107    1
    74    83    80    1
    75    83    84    1
    76    80    79    1
    77    21    20   ar
    78    28    29    1
    79    28    27    1
    80    20    19    1
    81    85    84    1
    82    86    84    1
    83   107   108    1
    84    79    77   am
    85    19    16    1
    86     8     6   ar
    87    78    77    2
    88   108   109    1
    89    77    76    1
    90    18    17    2
    91     5     6    1
    92     5     2    1
    93    17    16    1
    94    46    45    1
    95    67    66    2
    96    16    15    1
    97   110   109    1
    98     6     7   ar
    99     1     2    1
   100     2     3    1
   101    69    68    1
   102    76    75    1
   103    68    70    1
   104    68    65    1
   105    75    73   am
   106    66    65    1
   107    66    71   am
   108    45    42    1
   109    73    74    2
   110    73    72    1
   111     4     3    2
   112     3     9   am
   113    72    71    1
   114    65    64    1
   115    44    43    2
   116     9    10    1
   117    42    43    1
   118    42    41    1
   119    11    10    1
   120    11    12    2
   121    10    13    1
   122    62    61    2
   123    53    51    1
   124    63    61   am
   125    54    52    1
   126    14    13    1
   127    40    38   ar
   128    61    60    1
   129    39    38   ar
   130    52    51    1
   131    38    37    1
   132    51    48    1
   133    48    49    1
   134    48    47    1
   135    56    57    1
   136    56    55    1
   137    56    59    1
   138    60    59    1
   139    36    35    2
   140    57    58    2
   141    49    50    2
   142    37    34    1
   143    35    34    1
   144    33    34    1
