@<TRIPOS>MOLECULE
tmp/5jt0A01.pdb
 184 173 0 0 0
SMALL
GASTEIGER

@<TRIPOS>ATOM
      1  N         14.0300  -13.4270   -7.8190 N.3    94  LYS94      -0.1245
      2  CA        13.2270  -14.6090   -7.5140 C.3    94  LYS94       0.1561
      3  C         12.9900  -15.4600   -8.7520 C.2    94  LYS94       0.2260
      4  O         13.0590  -16.6930   -8.6890 O.2    94  LYS94      -0.2867
      5  CB        11.8860  -14.1900   -6.9120 C.3    94  LYS94       0.0271
      6  CG        11.0480  -15.3460   -6.3750 C.3    94  LYS94       0.0035
      7  CD         9.6560  -14.8700   -5.9950 C.3    94  LYS94       0.0206
      8  CE         8.8380  -15.9610   -5.3270 C.3    94  LYS94       0.1093
      9  NZ         7.5110  -15.4470   -4.8850 N.3    94  LYS94      -0.1314
     10  N          6.4770  -20.3140   -0.6490 N.3   114  ASP114     -0.1239
     11  CA         7.4470  -19.3410   -0.1800 C.3   114  ASP114      0.1674
     12  C          7.9940  -19.8030    1.1670 C.2   114  ASP114      0.2266
     13  O          7.2870  -20.4160    1.9710 O.2   114  ASP114     -0.2867
     14  CB         6.8000  -17.9640   -0.0130 C.3   114  ASP114      0.1410
     15  CG         6.6580  -17.2090   -1.3250 C.2   114  ASP114      0.3668
     16  OD1        7.3380  -17.5680   -2.3110 O.co2 114  ASP114     -0.2456
     17  OD2        5.8690  -16.2390   -1.3630 O.co2 114  ASP114     -0.2456
     18  N         -6.1310  -16.4760    0.1470 N.3   145  TYR145     -0.1227
     19  CA        -5.9970  -16.5310    1.6010 C.3   145  TYR145      0.1736
     20  C         -6.4040  -15.1980    2.2160 C.2   145  TYR145      0.2595
     21  O         -6.8390  -14.2700    1.5290 O.2   145  TYR145     -0.2718
     22  CB        -4.5640  -16.9170    2.0140 C.3   145  TYR145      0.0548
     23  CG        -3.4760  -16.4340    1.0770 C.ar  145  TYR145     -0.0200
     24  CD1       -3.2400  -15.0760    0.8780 C.ar  145  TYR145     -0.0009
     25  CD2       -2.6710  -17.3420    0.4060 C.ar  145  TYR145     -0.0009
     26  CE1       -2.2420  -14.6440    0.0120 C.ar  145  TYR145      0.0417
     27  CE2       -1.6710  -16.9230   -0.4470 C.ar  145  TYR145      0.0417
     28  CZ        -1.4600  -15.5720   -0.6440 C.ar  145  TYR145      0.1957
     29  OH        -0.4500  -15.1620   -1.4900 O.3   145  TYR145     -0.2866
     30  N         -6.2560  -15.1360    3.5370 N.am  146  ARG146     -0.1980
     31  CA        -6.6520  -14.0180    4.4010 C.3   146  ARG146      0.1597
     32  C         -8.0660  -13.5390    4.1030 C.2   146  ARG146      0.2287
     33  O         -9.0300  -14.0630    4.6660 O.2   146  ARG146     -0.2864
     34  CB        -5.6590  -12.8630    4.2730 C.3   146  ARG146      0.0334
     35  CG        -4.4570  -13.0360    5.1400 C.3   146  ARG146      0.0492
     36  CD        -3.4260  -11.9910    4.8130 C.3   146  ARG146      0.2205
     37  NE        -2.8860  -12.1790    3.4760 N.pl3 146  ARG146     -0.0865
     38  CZ        -1.8670  -11.4830    2.9840 C.cat 146  ARG146      0.5346
     39  NH1       -1.2900  -10.5450    3.7220 N.pl3 146  ARG146      0.1354
     40  NH2       -1.4290  -11.7200    1.7590 N.pl3 146  ARG146      0.1354
     41  N         -2.2420   -5.9680    3.9730 N.3   147  GLY147     -0.1210
     42  CA        -3.1560   -6.9550    3.4260 C.3   147  GLY147      0.1956
     43  C         -2.9710   -7.1640    1.9340 C.2   147  GLY147      0.2612
     44  O         -3.9340   -7.1110    1.1670 O.2   147  GLY147     -0.2717
     45  N         -1.7290   -7.4020    1.5180 N.am  148  GLY148     -0.1942
     46  CA        -1.4170   -7.5660    0.1110 C.3   148  GLY148      0.2014
     47  C         -1.5530   -6.2670   -0.6550 C.2   148  GLY148      0.2639
     48  O         -2.5000   -6.0850   -1.4260 O.2   148  GLY148     -0.2714
     49  N         -0.5990   -5.3560   -0.4500 N.am  149  ARG149     -0.1963
     50  CA        -0.6890   -4.0090   -1.0140 C.3   149  ARG149      0.1729
     51  C         -0.4200   -4.0100   -2.5160 C.2   149  ARG149      0.2616
     52  O         -1.1400   -3.3620   -3.2830 O.2   149  ARG149     -0.2715
     53  CB         0.2590   -3.0720   -0.2780 C.3   149  ARG149      0.0348
     54  CG        -0.3660   -2.5190    0.9970 C.3   149  ARG149      0.0492
     55  CD         0.6900   -2.1280    1.9970 C.3   149  ARG149      0.2205
     56  NE         1.5340   -3.2700    2.3300 N.pl3 149  ARG149     -0.0865
     57  CZ         2.6360   -3.2010    3.0660 C.cat 149  ARG149      0.5346
     58  NH1        3.0510   -2.0320    3.5390 N.pl3 149  ARG149      0.1354
     59  NH2        3.3330   -4.3020    3.3100 N.pl3 149  ARG149      0.1354
     60  N          0.6190   -4.7170   -2.9610 N.am  150  VAL150     -0.1963
     61  CA         0.9100   -4.7360   -4.3890 C.3   150  VAL150      0.1727
     62  C         -0.2140   -5.4510   -5.1180 C.2   150  VAL150      0.2616
     63  O         -0.6280   -5.0400   -6.2090 O.2   150  VAL150     -0.2715
     64  CB         2.2750   -5.3910   -4.6690 C.3   150  VAL150      0.0290
     65  CG1        2.5280   -5.4860   -6.1650 C.3   150  VAL150      0.0023
     66  CG2        3.3920   -4.5870   -4.0280 C.3   150  VAL150      0.0023
     67  N         -0.7250   -6.5330   -4.5320 N.am  151  THR151     -0.1951
     68  CA        -1.7770   -7.2960   -5.1900 C.3   151  THR151      0.1897
     69  C         -3.0110   -6.4190   -5.3980 C.2   151  THR151      0.2313
     70  O         -3.5480   -6.3400   -6.5080 O.2   151  THR151     -0.2863
     71  CB        -2.1090   -8.5490   -4.3760 C.3   151  THR151      0.1794
     72  OG1       -1.0470   -9.5000   -4.5190 O.3   151  THR151     -0.2208
     73  CG2       -3.3930   -9.2040   -4.8720 C.3   151  THR151      0.0378
     74  N         -5.7600  -13.8570   -5.9340 N.3   171  GLN171     -0.1245
     75  CA        -4.3720  -13.5810   -5.5360 C.3   171  GLN171      0.1566
     76  C         -3.4040  -13.8770   -6.6800 C.2   171  GLN171      0.2260
     77  O         -2.6460  -14.8530   -6.6300 O.2   171  GLN171     -0.2867
     78  CB        -3.9840  -14.3820   -4.2910 C.3   171  GLN171      0.0367
     79  CG        -4.7580  -14.0610   -3.0100 C.3   171  GLN171      0.0905
     80  CD        -4.4780  -12.6650   -2.4820 C.2   171  GLN171      0.2608
     81  OE1       -3.4260  -12.0880   -2.7540 O.2   171  GLN171     -0.2717
     82  NE2       -5.3960  -12.1380   -1.6820 N.am  171  GLN171     -0.0878
     83  N         -0.5620  -12.7010   -7.5400 N.3   173  LEU173     -0.1231
     84  CA         0.8600  -12.7190   -7.2080 C.3   173  LEU173      0.1693
     85  C          1.2330  -13.7650   -6.1660 C.2   173  LEU173      0.2593
     86  O          2.4010  -13.8260   -5.7660 O.2   173  LEU173     -0.2718
     87  CB         1.3110  -11.3480   -6.7000 C.3   173  LEU173      0.0284
     88  CG         1.0090  -10.1640   -7.6120 C.3   173  LEU173      0.0019
     89  CD1        1.5800   -8.8980   -6.9970 C.3   173  LEU173      0.0001
     90  CD2        1.4950  -10.3820   -9.0390 C.3   173  LEU173      0.0001
     91  N          0.2840  -14.5750   -5.7110 N.am  174  SER174     -0.1938
     92  CA         0.5480  -15.5150   -4.6260 C.3   174  SER174      0.2055
     93  C          1.7560  -16.3850   -4.9420 C.2   174  SER174      0.2643
     94  O          1.8700  -16.9420   -6.0370 O.2   174  SER174     -0.2714
     95  CB        -0.6800  -16.3940   -4.3770 C.3   174  SER174      0.2130
     96  OG        -0.9430  -17.2370   -5.4860 O.3   174  SER174     -0.2179
     97  N          2.6520  -16.5060   -3.9660 N.am  175  GLY175     -0.1954
     98  CA         3.8270  -17.3430   -4.0810 C.3   175  GLY175      0.1869
     99  C          3.5850  -18.8200   -3.8670 C.2   175  GLY175      0.2309
    100  O          4.5140  -19.6120   -4.0490 O.2   175  GLY175     -0.2863
    101  N         10.6060  -10.2470   -9.0520 N.3   193  TYR193     -0.1241
    102  CA         9.2260  -10.4110   -8.6040 C.3   193  TYR193      0.1605
    103  C          8.1880  -10.4440   -9.7260 C.2   193  TYR193      0.2264
    104  O          6.9890  -10.4030   -9.4270 O.2   193  TYR193     -0.2867
    105  CB         8.8940   -9.3100   -7.5980 C.3   193  TYR193      0.0534
    106  CG         9.7290   -9.4300   -6.3440 C.ar  193  TYR193     -0.0201
    107  CD1        9.6070  -10.5430   -5.5250 C.ar  193  TYR193     -0.0009
    108  CD2       10.6530   -8.4530   -5.9900 C.ar  193  TYR193     -0.0009
    109  CE1       10.3650  -10.6780   -4.3850 C.ar  193  TYR193      0.0417
    110  CE2       11.4230   -8.5810   -4.8500 C.ar  193  TYR193      0.0417
    111  CZ        11.2730   -9.6970   -4.0500 C.ar  193  TYR193      0.1957
    112  OH        12.0240   -9.8390   -2.9040 O.3   193  TYR193     -0.2866
    113  N          5.5110  -14.4940  -10.8870 N.3   196  GLU196     -0.1245
    114  CA         4.1540  -15.0010  -10.6790 C.3   196  GLU196      0.1567
    115  C          3.1730  -14.4220  -11.6880 C.2   196  GLU196      0.2260
    116  O          2.3990  -15.1610  -12.3060 O.2   196  GLU196     -0.2867
    117  CB         3.6720  -14.6770   -9.2640 C.3   196  GLU196      0.0388
    118  CG         4.1430  -15.6320   -8.1850 C.3   196  GLU196      0.1160
    119  CD         5.5550  -15.3450   -7.7230 C.2   196  GLU196      0.3649
    120  OE1        6.2790  -16.3080   -7.3930 O.co2 196  GLU196     -0.2457
    121  OE2        5.9370  -14.1560   -7.6710 O.co2 196  GLU196     -0.2457
    122  N         -2.8430  -16.6830    5.6260 N.3   220  ARG220     -0.1245
    123  CA        -1.3950  -16.8320    5.5680 C.3   220  ARG220      0.1563
    124  C         -0.7700  -15.5680    6.1380 C.2   220  ARG220      0.2260
    125  O         -1.3070  -14.4670    5.9880 O.2   220  ARG220     -0.2867
    126  CB        -0.8250  -17.0410    4.1400 C.3   220  ARG220      0.0307
    127  CG        -0.5120  -15.7510    3.3310 C.3   220  ARG220      0.0489
    128  CD         0.6550  -16.0190    2.3910 C.3   220  ARG220      0.2205
    129  NE         1.1620  -14.7980    1.7750 N.pl3 220  ARG220     -0.0865
    130  CZ         2.0650  -14.7650    0.8000 C.cat 220  ARG220      0.5346
    131  NH1        2.5780  -15.8910    0.3210 N.pl3 220  ARG220      0.1354
    132  NH2        2.4790  -13.6000    0.3250 N.pl3 220  ARG220      0.1354
    133  N          3.1700  -13.5500    6.7000 N.3   222  HIS222     -0.1241
    134  CA         4.5680  -13.5090    6.2870 C.3   222  HIS222      0.1621
    135  C          5.1760  -12.1550    6.6280 C.2   222  HIS222      0.2264
    136  O          4.5050  -11.2520    7.1370 O.2   222  HIS222     -0.2867
    137  CB         4.7040  -13.7270    4.7770 C.3   222  HIS222      0.0745
    138  CG         4.1490  -12.6000    3.9560 C.ar  222  HIS222      0.0817
    139  ND1        4.8040  -12.0900    2.8540 N.ar  222  HIS222     -0.2268
    140  CD2        3.0170  -11.8680    4.0900 C.ar  222  HIS222      0.1154
    141  CE1        4.0940  -11.1020    2.3390 C.ar  222  HIS222      0.1986
    142  NE2        3.0050  -10.9470    3.0690 N.ar  222  HIS222     -0.2212
    143  N          6.0240   -8.6960    6.4690 N.3   224  ASN224     -0.1225
    144  CA         5.4430   -7.5430    5.7900 C.3   224  ASN224      0.1785
    145  C          6.5800   -6.5580    5.5290 C.2   224  ASN224      0.2597
    146  O          7.0830   -5.9140    6.4550 O.2   224  ASN224     -0.2718
    147  CB         4.3310   -6.9470    6.6470 C.3   224  ASN224      0.1169
    148  CG         2.9830   -7.5990    6.3820 C.2   224  ASN224      0.2627
    149  OD1        2.3990   -7.4360    5.3100 O.2   224  ASN224     -0.2716
    150  ND2        2.4870   -8.3520    7.3620 N.am  224  ASN224     -0.0877
    151  N          6.9780   -6.4430    4.2610 N.am  225  ARG225     -0.1979
    152  CA         8.0700   -5.5640    3.8600 C.3   225  ARG225      0.1597
    153  C          7.7450   -4.0730    3.9760 C.2   225  ARG225      0.2287
    154  O          6.5780   -3.6730    3.9330 O.2   225  ARG225     -0.2864
    155  CB         8.4630   -5.8510    2.4160 C.3   225  ARG225      0.0334
    156  CG         9.1910   -7.1590    2.1890 C.3   225  ARG225      0.0492
    157  CD         9.7370   -7.1960    0.7700 C.3   225  ARG225      0.2205
    158  NE        10.4740   -8.4200    0.4730 N.pl3 225  ARG225     -0.0865
    159  CZ        11.7100   -8.6720    0.8940 C.cat 225  ARG225      0.5346
    160  NH1       12.3560   -7.7920    1.6490 N.pl3 225  ARG225      0.1354
    161  NH2       12.3000   -9.8150    0.5660 N.pl3 225  ARG225      0.1354
    162  N          8.6190   -2.5200   -1.5430 N.3   230  LEU230     -0.1245
    163  CA         7.4370   -2.8270   -2.3400 C.3   230  LEU230      0.1561
    164  C          7.4110   -1.9970   -3.6130 C.2   230  LEU230      0.2260
    165  O          6.8200   -2.4170   -4.6130 O.2   230  LEU230     -0.2867
    166  CB         6.1670   -2.5810   -1.5250 C.3   230  LEU230      0.0270
    167  CG         5.9090   -3.4860   -0.3160 C.3   230  LEU230      0.0019
    168  CD1        4.5270   -3.2030    0.2410 C.3   230  LEU230      0.0001
    169  CD2        6.0470   -4.9630   -0.6700 C.3   230  LEU230      0.0001
    170  N          9.2690   -3.7870   -6.2550 N.3   233  MET233     -0.1245
    171  CA         8.5790   -5.0090   -6.6490 C.3   233  MET233      0.1570
    172  C          7.4510   -4.6500   -7.5990 C.2   233  MET233      0.2261
    173  O          7.2590   -5.2890   -8.6410 O.2   233  MET233     -0.2867
    174  CB         8.0310   -5.7260   -5.4140 C.3   233  MET233      0.0387
    175  CG         7.1170   -6.9230   -5.7070 C.3   233  MET233      0.0595
    176  SD         6.2440   -7.5550   -4.2540 S.3   233  MET233     -0.1393
    177  CE         7.5440   -7.5480   -3.0170 C.3   233  MET233      0.0692
    178  N          6.6200   -5.8570  -11.4020 N.3   237  VAL237     -0.1245
    179  CA         5.3540   -6.4830  -11.7560 C.3   237  VAL237      0.1561
    180  C          4.7430   -5.7340  -12.9310 C.2   237  VAL237      0.2260
    181  O          4.2150   -6.3360  -13.8750 O.2   237  VAL237     -0.2867
    182  CB         4.4150   -6.4960  -10.5310 C.3   237  VAL237      0.0252
    183  CG1        2.9540   -6.7180  -10.9340 C.3   237  VAL237      0.0019
    184  CG2        4.8610   -7.5410   -9.5170 C.3   237  VAL237      0.0019
@<TRIPOS>BOND
     1   181   180    2
     2   180   179    1
     3   116   115    2
     4   179   178    1
     5   179   182    1
     6   115   114    1
     7   183   182    1
     8   113   114    1
     9   114   117    1
    10   182   184    1
    11   103   104    2
    12   103   102    1
    13   117   118    1
    14   101   102    1
    15    90    88    1
    16     3     4    2
    17     3     2    1
    18   173   172    2
    19   102   105    1
    20   118   119    1
    21     1     2    1
    22   119   121   ar
    23   119   120   ar
    24    88    89    1
    25    88    87    1
    26   172   171    1
    27   105   106    1
    28    83    84    1
    29     2     5    1
    30    84    87    1
    31    84    85    1
    32     5     6    1
    33    76    77    2
    34    76    75    1
    35   171   170    1
    36   171   174    1
    37    70    69    2
    38     6     7    1
    39   106   108   ar
    40   106   107   ar
    41    63    62    2
    42    85    86    2
    43    85    91   am
    44    65    64    1
    45    94    93    2
    46     7     8    1
    47   108   110   ar
    48    74    75    1
    49    91    92    1
    50   175   174    1
    51   175   176    1
    52    75    78    1
    53   107   109   ar
    54    96    95    1
    55    69    68    1
    56     8     9    1
    57    68    67    1
    58    68    71    1
    59    62    67   am
    60    62    61    1
    61    93    92    1
    62    93    97   am
    63    73    71    1
    64   110   111   ar
    65    64    61    1
    66    64    66    1
    67    92    95    1
    68   165   164    2
    69    72    71    1
    70    61    60    1
    71   109   111   ar
    72    78    79    1
    73   176   177    1
    74    98    97    1
    75    98    99    1
    76   111   112    1
    77   100    99    2
    78   164   163    1
    79    52    51    2
    80    79    80    1
    81    60    51   am
    82    81    80    2
    83    51    50    1
    84    80    82   am
    85   163   162    1
    86   163   166    1
    87    16    15   ar
    88   166   167    1
    89    29    28    1
    90    48    47    2
    91    17    15   ar
    92    15    14    1
    93    50    49    1
    94    50    53    1
    95   169   167    1
    96    47    49   am
    97    47    46    1
    98    10    11    1
    99    28    27   ar
   100    28    26   ar
   101    27    25   ar
   102   167   168    1
   103    53    54    1
   104    11    14    1
   105    11    12    1
   106    26    24   ar
   107    46    45    1
   108    18    19    1
   109   131   130    1
   110   132   130    1
   111    25    23   ar
   112   158   157    1
   113   158   159    2
   114   161   159    1
   115   157   156    1
   116   130   129    2
   117    24    23   ar
   118   159   160    1
   119    54    55    1
   120    23    22    1
   121    12    13    2
   122    44    43    2
   123    45    43   am
   124    21    20    2
   125    19    22    1
   126    19    20    1
   127    40    38    1
   128   129   128    1
   129    43    42    1
   130    55    56    1
   131   156   155    1
   132    20    30   am
   133    56    57    2
   134   141   139   ar
   135   141   142   ar
   136   128   127    1
   137   155   152    1
   138   139   138   ar
   139    38    37    2
   140    38    39    1
   141    57    59    1
   142    57    58    1
   143   142   140   ar
   144   127   126    1
   145    42    41    1
   146    37    36    1
   147    30    31    1
   148   152   153    1
   149   152   151    1
   150   154   153    2
   151   138   140   ar
   152   138   137    1
   153    32    31    1
   154    32    33    2
   155   126   123    1
   156   151   145   am
   157    34    31    1
   158    34    35    1
   159   137   134    1
   160    36    35    1
   161   149   148    2
   162   145   144    1
   163   145   146    2
   164   123   122    1
   165   123   124    1
   166   144   143    1
   167   144   147    1
   168   125   124    2
   169   134   135    1
   170   134   133    1
   171   148   147    1
   172   148   150   am
   173   135   136    2
