@<TRIPOS>MOLECULE
tmp/5jt2D01.pdb
 210 202 0 0 0
SMALL
GASTEIGER

@<TRIPOS>ATOM
      1  N        -10.8120    0.3200  -46.7900 N.3    16  GLN16      -0.1231
      2  CA       -10.9380   -0.1880  -48.1540 C.3    16  GLN16       0.1698
      3  C        -11.2050    0.9780  -49.1310 C.2    16  GLN16       0.2592
      4  O        -11.9580    1.8960  -48.8170 O.2    16  GLN16      -0.2718
      5  CB       -12.0800   -1.2180  -48.2070 C.3    16  GLN16       0.0381
      6  CG       -12.2100   -2.0230  -49.4960 C.3    16  GLN16       0.0905
      7  CD       -13.4200   -2.9790  -49.4750 C.2    16  GLN16       0.2608
      8  OE1      -13.5980   -3.7850  -48.5470 O.2    16  GLN16      -0.2717
      9  NE2      -14.2630   -2.8790  -50.5150 N.am   16  GLN16      -0.0878
     10  N        -10.5490    0.9970  -50.2860 N.am   17  ARG17      -0.1966
     11  CA       -10.9620    1.9620  -51.3160 C.3    17  ARG17       0.1729
     12  C        -12.2930    1.4930  -51.9040 C.2    17  ARG17       0.2616
     13  O        -12.4600    0.2950  -52.1450 O.2    17  ARG17      -0.2715
     14  CB        -9.9390    2.1080  -52.4280 C.3    17  ARG17       0.0348
     15  CG       -10.3130    3.1970  -53.4040 C.3    17  ARG17       0.0492
     16  CD        -9.4080    3.2190  -54.6360 C.3    17  ARG17       0.2205
     17  NE       -10.0930    2.4430  -55.6590 N.pl3  17  ARG17      -0.0865
     18  CZ       -10.7700    2.9750  -56.6710 C.cat  17  ARG17       0.5346
     19  NH1      -10.7950    4.2950  -56.8320 N.pl3  17  ARG17       0.1354
     20  NH2      -11.4010    2.1820  -57.5330 N.pl3  17  ARG17       0.1354
     21  N        -13.2340    2.4080  -52.1420 N.am   18  ILE18      -0.1977
     22  CA       -14.5730    2.0000  -52.5860 C.3    18  ILE18       0.1596
     23  C        -14.8560    2.2800  -54.0570 C.2    18  ILE18       0.2287
     24  O        -15.3930    1.4190  -54.7550 O.2    18  ILE18      -0.2864
     25  CB       -15.6710    2.6770  -51.7550 C.3    18  ILE18       0.0276
     26  CG1      -15.6180    2.1580  -50.3160 C.3    18  ILE18       0.0022
     27  CG2      -17.0530    2.4310  -52.3880 C.3    18  ILE18       0.0022
     28  CD1      -15.8440    0.6370  -50.1890 C.3    18  ILE18       0.0001
     29  N        -13.5160    7.8010  -52.9720 N.3    26  VAL26      -0.1245
     30  CA       -14.1690    7.4740  -51.7090 C.3    26  VAL26       0.1561
     31  C        -13.5660    6.2310  -51.0830 C.2    26  VAL26       0.2260
     32  O        -13.4510    5.1990  -51.7300 O.2    26  VAL26      -0.2867
     33  CB       -15.6680    7.2100  -51.9050 C.3    26  VAL26       0.0252
     34  CG1      -16.2940    6.6830  -50.6170 C.3    26  VAL26       0.0019
     35  CG2      -16.3800    8.4490  -52.3970 C.3    26  VAL26       0.0019
     36  N        -17.1470    7.4710  -43.9550 N.3    36  ALA36      -0.1231
     37  CA       -16.7750    7.4840  -45.3530 C.3    36  ALA36       0.1694
     38  C        -15.8050    8.6360  -45.5800 C.2    36  ALA36       0.2592
     39  O        -15.9510    9.7240  -44.9990 O.2    36  ALA36      -0.2718
     40  CB       -18.0040    7.6300  -46.2230 C.3    36  ALA36       0.0304
     41  N        -14.7980    8.4020  -46.4090 N.am   37  VAL37      -0.1966
     42  CA       -13.8030    9.4240  -46.6350 C.3    37  VAL37       0.1727
     43  C        -13.6510    9.6410  -48.1290 C.2    37  VAL37       0.2616
     44  O        -13.3360    8.6970  -48.8520 O.2    37  VAL37      -0.2715
     45  CB       -12.4600    9.0400  -46.0450 C.3    37  VAL37       0.0290
     46  CG1      -11.5660   10.2660  -46.0220 C.3    37  VAL37       0.0023
     47  CG2      -12.6340    8.5380  -44.6270 C.3    37  VAL37       0.0023
     48  N        -13.9210   10.8620  -48.5900 N.am   38  LYS38      -0.1977
     49  CA       -13.6960   11.2390  -49.9710 C.3    38  LYS38       0.1596
     50  C        -12.4440   12.0920  -50.1480 C.2    38  LYS38       0.2287
     51  O        -12.4140   13.2640  -49.7810 O.2    38  LYS38      -0.2864
     52  CB       -14.9100   11.9750  -50.5520 C.3    38  LYS38       0.0298
     53  CG       -14.5750   12.7030  -51.8690 C.3    38  LYS38       0.0038
     54  CD       -15.6840   12.6530  -52.9100 C.3    38  LYS38       0.0206
     55  CE       -16.9580   13.3090  -52.4540 C.3    38  LYS38       0.1093
     56  NZ       -18.0080   13.2680  -53.5100 N.3    38  LYS38      -0.1314
     57  N        -21.6290   23.3250  -46.1320 N.3    58  LEU58      -0.1245
     58  CA       -21.9050   21.9230  -45.8330 C.3    58  LEU58       0.1561
     59  C        -22.4120   21.6760  -44.4150 C.2    58  LEU58       0.2260
     60  O        -23.2300   20.7980  -44.2160 O.2    58  LEU58      -0.2867
     61  CB       -20.6610   21.0710  -46.1070 C.3    58  LEU58       0.0270
     62  CG       -20.3810   20.7430  -47.5880 C.3    58  LEU58       0.0019
     63  CD1      -19.1010   19.9540  -47.7580 C.3    58  LEU58       0.0001
     64  CD2      -21.5510   19.9910  -48.2200 C.3    58  LEU58       0.0001
     65  N        -26.3910   22.2570  -44.3130 N.3    61  THR61      -0.1218
     66  CA       -27.3850   21.4390  -45.0040 C.3    61  THR61       0.1862
     67  C        -27.5370   20.1250  -44.2420 C.2    61  THR61       0.2287
     68  O        -26.7190   19.2050  -44.3440 O.2    61  THR61      -0.2866
     69  CB       -27.0120   21.1750  -46.4760 C.3    61  THR61       0.1770
     70  OG1      -26.1450   20.0400  -46.5400 O.3    61  THR61      -0.2211
     71  CG2      -26.2840   22.3730  -47.0640 C.3    61  THR61       0.0375
     72  N        -26.6210   12.9780  -46.5700 N.3    67  LEU67      -0.1245
     73  CA       -25.4480   12.6870  -45.7510 C.3    67  LEU67       0.1561
     74  C        -25.0210   13.8640  -44.8500 C.2    67  LEU67       0.2260
     75  O        -24.9920   15.0230  -45.2930 O.2    67  LEU67      -0.2867
     76  CB       -24.2750   12.3150  -46.6500 C.3    67  LEU67       0.0270
     77  CG       -24.1200   10.9840  -47.3450 C.3    67  LEU67       0.0019
     78  CD1      -22.8650   11.0360  -48.2200 C.3    67  LEU67       0.0001
     79  CD2      -24.0260    9.8830  -46.2940 C.3    67  LEU67       0.0001
     80  N        -22.2480   16.0250  -42.9140 N.3    69  PHE69      -0.1241
     81  CA       -20.8370   16.3980  -42.9980 C.3    69  PHE69       0.1605
     82  C        -20.1940   16.3350  -41.6110 C.2    69  PHE69       0.2264
     83  O        -20.7270   16.8870  -40.6370 O.2    69  PHE69      -0.2867
     84  CB       -20.7210   17.7820  -43.6060 C.3    69  PHE69       0.0534
     85  CG       -19.3460   18.3610  -43.5840 C.ar   69  PHE69      -0.0203
     86  CD1      -18.2750   17.6850  -44.1350 C.ar   69  PHE69      -0.0042
     87  CD2      -19.1440   19.6520  -43.1320 C.ar   69  PHE69      -0.0042
     88  CE1      -17.0120   18.2440  -44.1490 C.ar   69  PHE69      -0.0003
     89  CE2      -17.8780   20.2140  -43.1590 C.ar   69  PHE69      -0.0003
     90  CZ       -16.8130   19.4980  -43.6740 C.ar   69  PHE69      -0.0000
     91  N        -13.3040   15.1060  -47.4870 N.3    80  ILE80      -0.1245
     92  CA       -14.5860   15.3050  -46.8510 C.3    80  ILE80       0.1561
     93  C        -14.9700   14.0190  -46.1180 C.2    80  ILE80       0.2260
     94  O        -14.9450   12.9480  -46.7120 O.2    80  ILE80      -0.2867
     95  CB       -15.6480   15.6740  -47.8950 C.3    80  ILE80       0.0252
     96  CG1      -15.2500   16.9730  -48.6070 C.3    80  ILE80       0.0019
     97  CG2      -17.0110   15.7640  -47.2560 C.3    80  ILE80       0.0019
     98  CD1      -16.1330   17.3310  -49.7900 C.3    80  ILE80       0.0001
     99  N        -17.9290   11.9670  -44.1110 N.3    82  THR82      -0.1203
    100  CA       -19.3640   11.8510  -43.8370 C.3    82  THR82       0.1994
    101  C        -19.6140   10.5300  -43.1390 C.2    82  THR82       0.2618
    102  O        -18.6840    9.7930  -42.8560 O.2    82  THR82      -0.2717
    103  CB       -20.2390   11.9370  -45.1260 C.3    82  THR82       0.1784
    104  OG1      -20.2690   10.6640  -45.7970 O.3    82  THR82      -0.2211
    105  CG2      -19.7290   13.0490  -46.0750 C.3    82  THR82       0.0376
    106  N        -20.8630   10.2430  -42.8290 N.am   83  GLN83      -0.1965
    107  CA       -21.1940    8.9760  -42.1940 C.3    83  GLN83       0.1733
    108  C        -21.0860    7.8130  -43.2080 C.2    83  GLN83       0.2616
    109  O        -21.1920    8.0380  -44.4260 O.2    83  GLN83      -0.2715
    110  CB       -22.5990    9.0630  -41.6000 C.3    83  GLN83       0.0408
    111  CG       -23.6370    9.3320  -42.6340 C.3    83  GLN83       0.0908
    112  CD       -24.8020   10.1320  -42.1080 C.2    83  GLN83       0.2608
    113  OE1      -25.1850   11.1280  -42.6900 O.2    83  GLN83      -0.2717
    114  NE2      -25.3630    9.7030  -40.9920 N.am   83  GLN83      -0.0878
    115  N        -20.9120    6.5840  -42.7030 N.am   84  TRP84      -0.1960
    116  CA       -20.8200    5.3770  -43.5450 C.3    84  TRP84       0.1771
    117  C        -22.1530    4.7250  -43.7560 C.2    84  TRP84       0.2619
    118  O        -22.8800    4.4660  -42.8100 O.2    84  TRP84      -0.2715
    119  CB       -19.8810    4.3400  -42.9190 C.3    84  TRP84       0.0590
    120  CG       -19.8070    3.0390  -43.6740 C.ar   84  TRP84       0.0006
    121  CD1      -20.4190    1.8610  -43.3460 C.ar   84  TRP84       0.0946
    122  CD2      -19.0720    2.7810  -44.8840 C.ar   84  TRP84       0.0152
    123  NE1      -20.1240    0.8910  -44.2820 N.ar   84  TRP84      -0.2442
    124  CE2      -19.2980    1.4300  -45.2330 C.ar   84  TRP84       0.0810
    125  CE3      -18.2460    3.5630  -45.7050 C.ar   84  TRP84       0.0012
    126  CZ2      -18.7300    0.8430  -46.3610 C.ar   84  TRP84       0.0191
    127  CZ3      -17.6840    2.9760  -46.8250 C.ar   84  TRP84       0.0001
    128  CH2      -17.9260    1.6190  -47.1420 C.ar   84  TRP84       0.0015
    129  N        -22.4460    4.3750  -44.9930 N.am   85  CYS85      -0.1968
    130  CA       -23.6990    3.6920  -45.2780 C.3    85  CYS85       0.1712
    131  C        -23.4340    2.2380  -45.6550 C.2    85  CYS85       0.2296
    132  O        -23.0820    1.9350  -46.7950 O.2    85  CYS85      -0.2864
    133  CB       -24.4370    4.4200  -46.3870 C.3    85  CYS85       0.0983
    134  SG       -24.9800    6.0590  -45.8600 S.3    85  CYS85      -0.0798
    135  N        -24.4360    0.3770  -48.7690 N.3    88  SER88      -0.1202
    136  CA       -23.8370    0.9320  -49.9920 C.3    88  SER88       0.2020
    137  C        -24.8380    1.7150  -50.8470 C.2    88  SER88       0.2619
    138  O        -25.8000    2.2480  -50.3200 O.2    88  SER88      -0.2717
    139  CB       -23.1640   -0.1780  -50.8280 C.3    88  SER88       0.2103
    140  OG       -24.0870   -0.9790  -51.5400 O.3    88  SER88      -0.2182
    141  N        -24.6210    1.7770  -52.1610 N.am   89  SER89      -0.1951
    142  CA       -25.4410    2.6410  -53.0160 C.3    89  SER89       0.1924
    143  C        -26.6450    1.9570  -53.6450 C.2    89  SER89       0.2314
    144  O        -26.7510    0.7420  -53.6510 O.2    89  SER89      -0.2863
    145  CB       -24.5810    3.2450  -54.1160 C.3    89  SER89       0.2116
    146  OG       -24.1450    2.2470  -55.0060 O.3    89  SER89      -0.2180
    147  N        -25.3530    0.1670  -56.8100 N.3    92  HIS92      -0.1241
    148  CA       -24.7180   -1.1010  -56.5300 C.3    92  HIS92       0.1621
    149  C        -25.7360   -2.2190  -56.3200 C.2    92  HIS92       0.2264
    150  O        -25.5070   -3.3500  -56.7320 O.2    92  HIS92      -0.2867
    151  CB       -23.8180   -0.9990  -55.3090 C.3    92  HIS92       0.0745
    152  CG       -22.8000   -2.0910  -55.2280 C.ar   92  HIS92       0.0817
    153  ND1      -22.9120   -3.1480  -54.3470 N.ar   92  HIS92      -0.2268
    154  CD2      -21.6530   -2.2950  -55.9150 C.ar   92  HIS92       0.1154
    155  CE1      -21.8770   -3.9540  -54.4940 C.ar   92  HIS92       0.1986
    156  NE2      -21.0970   -3.4600  -55.4380 N.ar   92  HIS92      -0.2212
    157  N        -25.8390    6.0880  -58.1680 N.3   133  ASN133     -0.1240
    158  CA       -24.4840    5.9710  -57.6160 C.3   133  ASN133      0.1653
    159  C        -24.2660    6.7410  -56.3030 C.2   133  ASN133      0.2266
    160  O        -23.4470    6.3530  -55.4630 O.2   133  ASN133     -0.2867
    161  CB       -23.4540    6.4760  -58.6300 C.3   133  ASN133      0.1155
    162  CG       -23.3860    5.6190  -59.8670 C.2   133  ASN133      0.2627
    163  OD1      -24.0370    5.9090  -60.8860 O.2   133  ASN133     -0.2716
    164  ND2      -22.5860    4.5570  -59.8000 N.am  133  ASN133     -0.0877
    165  N        -27.3930    6.6690  -51.2420 N.3   136  PHE136     -0.1241
    166  CA       -26.8400    5.6060  -50.4060 C.3   136  PHE136      0.1605
    167  C        -27.8590    5.0910  -49.3980 C.2   136  PHE136      0.2264
    168  O        -28.7740    5.8010  -49.0090 O.2   136  PHE136     -0.2867
    169  CB       -25.5700    6.0880  -49.6970 C.3   136  PHE136      0.0534
    170  CG       -24.5200    6.6010  -50.6330 C.ar  136  PHE136     -0.0203
    171  CD1      -24.3020    7.9540  -50.7760 C.ar  136  PHE136     -0.0042
    172  CD2      -23.7860    5.7300  -51.4120 C.ar  136  PHE136     -0.0042
    173  CE1      -23.3450    8.4320  -51.6570 C.ar  136  PHE136     -0.0003
    174  CE2      -22.8260    6.2040  -52.2860 C.ar  136  PHE136     -0.0003
    175  CZ       -22.6050    7.5540  -52.4000 C.ar  136  PHE136     -0.0000
    176  N        -25.8130   11.9340  -51.3790 N.3   146  GLY146     -0.1210
    177  CA       -24.4670   12.4780  -51.3830 C.3   146  GLY146      0.1956
    178  C        -24.0900   13.0730  -52.7300 C.2   146  GLY146      0.2612
    179  O        -24.9050   13.1470  -53.6460 O.2   146  GLY146     -0.2717
    180  N        -22.8390   13.5000  -52.8430 N.am  147  ASP147     -0.1959
    181  CA       -22.2940   14.1520  -54.0400 C.3   147  ASP147      0.1840
    182  C        -22.9560   15.4620  -54.4430 C.2   147  ASP147      0.2622
    183  O        -22.8790   15.8690  -55.6000 O.2   147  ASP147     -0.2715
    184  CB       -22.3810   13.1990  -55.2340 C.3   147  ASP147      0.1450
    185  CG       -21.2010   12.2540  -55.3330 C.2   147  ASP147      0.3671
    186  OD1      -20.9730   11.7280  -56.4470 O.co2 147  ASP147     -0.2456
    187  OD2      -20.4990   12.0440  -54.3240 O.co2 147  ASP147     -0.2456
    188  N        -23.5970   16.1390  -53.5060 N.am  148  PHE148     -0.1960
    189  CA       -24.1120   17.4610  -53.8170 C.3   148  PHE148      0.1771
    190  C        -23.1440   18.5480  -53.3680 C.2   148  PHE148      0.2620
    191  O        -23.3020   19.7060  -53.7300 O.2   148  PHE148     -0.2715
    192  CB       -25.4820   17.6800  -53.1920 C.3   148  PHE148      0.0574
    193  CG       -25.4950   17.5720  -51.7030 C.ar  148  PHE148     -0.0200
    194  CD1      -25.1970   18.6740  -50.9200 C.ar  148  PHE148     -0.0042
    195  CD2      -25.8290   16.3840  -51.0900 C.ar  148  PHE148     -0.0042
    196  CE1      -25.2100   18.5920  -49.5530 C.ar  148  PHE148     -0.0003
    197  CE2      -25.8500   16.2950  -49.7180 C.ar  148  PHE148     -0.0003
    198  CZ       -25.5370   17.4050  -48.9440 C.ar  148  PHE148     -0.0000
    199  N        -22.1690   18.1810  -52.5450 N.am  149  GLY149     -0.1940
    200  CA       -21.2140   19.1570  -52.0460 C.3   149  GLY149      0.2014
    201  C        -20.2430   19.6080  -53.1310 C.2   149  GLY149      0.2638
    202  O        -20.0280   18.9020  -54.1270 O.2   149  GLY149     -0.2714
    203  N        -19.6090   20.7530  -52.8970 N.am  150  LEU150     -0.1977
    204  CA       -18.7320   21.3890  -53.8720 C.3   150  LEU150      0.1596
    205  C        -19.6090   21.8860  -55.0070 C.2   150  LEU150      0.2287
    206  O        -19.2320   21.8340  -56.1760 O.2   150  LEU150     -0.2864
    207  CB       -17.6370   20.4500  -54.3850 C.3   150  LEU150      0.0297
    208  CG       -16.5010   20.0990  -53.4160 C.3   150  LEU150      0.0022
    209  CD1      -15.5560   21.2700  -53.2350 C.3   150  LEU150      0.0001
    210  CD2      -17.0110   19.6110  -52.0830 C.3   150  LEU150      0.0001
@<TRIPOS>BOND
     1   163   162    2
     2   162   164   am
     3   162   161    1
     4   161   158    1
     5   157   158    1
     6   158   159    1
     7    20    18    1
     8    19    18    1
     9   147   148    1
    10   150   149    2
    11    18    17    2
    12   148   149    1
    13   148   151    1
    14   186   185   ar
    15   159   160    2
    16   206   205    2
    17   154   156   ar
    18   154   152   ar
    19    17    16    1
    20   183   182    2
    21   156   155   ar
    22   185   184    1
    23   185   187   ar
    24   151   152    1
    25   184   181    1
    26   152   153   ar
    27   205   204    1
    28   146   145    1
    29    24    23    2
    30    16    15    1
    31   155   153   ar
    32   182   181    1
    33   182   188   am
    34   207   204    1
    35   207   208    1
    36   202   201    2
    37   145   142    1
    38    23    22    1
    39   181   180    1
    40   204   203    1
    41   189   188    1
    42   189   190    1
    43   189   192    1
    44   191   190    2
    45   144   143    2
    46   179   178    2
    47   143   142    1
    48    56    55    1
    49   208   209    1
    50   208   210    1
    51    15    14    1
    52   190   199   am
    53   192   193    1
    54   201   203   am
    55   201   200    1
    56   142   141    1
    57    29    30    1
    58    54    55    1
    59    54    53    1
    60   180   178   am
    61   178   177    1
    62    22    21    1
    63    22    25    1
    64   199   200    1
    65    14    11    1
    66   175   174   ar
    67   175   173   ar
    68    35    33    1
    69    27    25    1
    70   174   172   ar
    71   141   137   am
    72    13    12    2
    73    21    12   am
    74    33    30    1
    75    33    34    1
    76    12    11    1
    77    53    52    1
    78    25    26    1
    79    32    31    2
    80    30    31    1
    81   193   195   ar
    82   193   194   ar
    83   173   171   ar
    84   140   139    1
    85   172   170   ar
    86   177   176    1
    87    11    10    1
    88   165   166    1
    89   195   197   ar
    90   194   196   ar
    91   137   138    2
    92   137   136    1
    93   139   136    1
    94   171   170   ar
    95   170   169    1
    96    52    49    1
    97     9     7   am
    98   166   169    1
    99   166   167    1
   100    26    28    1
   101    10     3   am
   102    50    49    1
   103    50    51    2
   104   136   135    1
   105    49    48    1
   106    98    96    1
   107   197   198   ar
   108   196   198   ar
   109     6     7    1
   110     6     5    1
   111     7     8    2
   112   167   168    2
   113     3     4    2
   114     3     2    1
   115    44    43    2
   116    96    95    1
   117    48    43   am
   118    64    62    1
   119    78    77    1
   120     5     2    1
   121     2     1    1
   122    43    42    1
   123    95    97    1
   124    95    92    1
   125    63    62    1
   126    62    61    1
   127    91    92    1
   128    77    76    1
   129    77    79    1
   130   128   127   ar
   131   128   126   ar
   132    71    69    1
   133    92    93    1
   134   127   125   ar
   135   132   131    2
   136    94    93    2
   137    76    73    1
   138    42    41    1
   139    42    45    1
   140    72    73    1
   141    70    69    1
   142    69    66    1
   143    41    38   am
   144   133   134    1
   145   133   130    1
   146   126   124   ar
   147    40    37    1
   148    57    58    1
   149    61    58    1
   150   105   103    1
   151    45    46    1
   152    45    47    1
   153    58    59    1
   154   104   103    1
   155    73    74    1
   156   125   122   ar
   157   131   130    1
   158    38    37    1
   159    38    39    2
   160    37    36    1
   161    75    74    2
   162   130   129    1
   163   124   122   ar
   164   124   123   ar
   165   103   100    1
   166    66    65    1
   167    66    67    1
   168   129   117   am
   169   122   120   ar
   170   109   108    2
   171    59    60    2
   172    68    67    2
   173   123   121   ar
   174    88    86   ar
   175    88    90   ar
   176    86    85   ar
   177    99   100    1
   178   100   101    1
   179   117   116    1
   180   117   118    2
   181   120   121   ar
   182   120   119    1
   183    90    89   ar
   184    84    85    1
   185    84    81    1
   186    85    87   ar
   187   116   119    1
   188   116   115    1
   189   108   115   am
   190   108   107    1
   191    89    87   ar
   192   101   102    2
   193   101   106   am
   194    81    80    1
   195    81    82    1
   196   106   107    1
   197   113   112    2
   198   111   112    1
   199   111   110    1
   200   107   110    1
   201   112   114   am
   202    82    83    2
