@<TRIPOS>MOLECULE
tmp/5jt2B00.pdb
 203 194 0 0 0
SMALL
GASTEIGER

@<TRIPOS>ATOM
      1  N        -12.7310   -5.7960  -20.4100 N.3    15  GLN15      -0.1231
      2  CA       -13.1270   -5.3220  -19.0770 C.3    15  GLN15       0.1698
      3  C        -13.7070   -6.4150  -18.1820 C.2    15  GLN15       0.2592
      4  O        -14.6360   -7.1280  -18.5820 O.2    15  GLN15      -0.2718
      5  CB       -14.1570   -4.1960  -19.2010 C.3    15  GLN15       0.0381
      6  CG       -15.3670   -4.5160  -20.0650 C.3    15  GLN15       0.0905
      7  CD       -16.2490   -3.2860  -20.3090 C.2    15  GLN15       0.2608
      8  OE1      -16.4080   -2.8290  -21.4590 O.2    15  GLN15      -0.2717
      9  NE2      -16.8020   -2.7330  -19.2330 N.am   15  GLN15      -0.0878
     10  N        -13.2390   -6.4800  -16.9410 N.am   16  ARG16      -0.1966
     11  CA       -13.8330   -7.3840  -15.9740 C.3    16  ARG16       0.1729
     12  C        -15.2420   -6.8770  -15.6770 C.2    16  ARG16       0.2616
     13  O        -15.4480   -5.6680  -15.5290 O.2    16  ARG16      -0.2715
     14  CB       -12.9920   -7.4330  -14.7110 C.3    16  ARG16       0.0348
     15  CG       -13.4120   -8.4320  -13.6770 C.3    16  ARG16       0.0492
     16  CD       -12.5230   -8.2900  -12.4380 C.3    16  ARG16       0.2205
     17  NE       -12.8780   -9.2460  -11.3970 N.pl3  16  ARG16      -0.0865
     18  CZ       -13.9590   -9.1570  -10.6350 C.cat  16  ARG16       0.5346
     19  NH1      -14.1990  -10.0920   -9.7260 N.pl3  16  ARG16       0.1354
     20  NH2      -14.8210   -8.1630  -10.8060 N.pl3  16  ARG16       0.1354
     21  N        -16.2110   -7.7920  -15.6240 N.am   17  ILE17      -0.1977
     22  CA       -17.6120   -7.4130  -15.4520 C.3    17  ILE17       0.1596
     23  C        -18.1180   -7.7620  -14.0670 C.2    17  ILE17       0.2287
     24  O        -18.8300   -6.9890  -13.4260 O.2    17  ILE17      -0.2864
     25  CB       -18.5260   -8.1060  -16.4910 C.3    17  ILE17       0.0276
     26  CG1      -18.2480   -7.5420  -17.8780 C.3    17  ILE17       0.0022
     27  CG2      -20.0000   -7.9000  -16.1420 C.3    17  ILE17       0.0022
     28  CD1      -18.5350   -6.0770  -17.9360 C.3    17  ILE17       0.0001
     29  N        -16.6280  -13.0140  -15.0350 N.3    25  VAL25      -0.1245
     30  CA       -17.0530  -12.7010  -16.3850 C.3    25  VAL25       0.1561
     31  C        -16.3650  -11.4640  -16.9040 C.2    25  VAL25       0.2260
     32  O        -16.3330  -10.4440  -16.2340 O.2    25  VAL25      -0.2867
     33  CB       -18.5660  -12.4890  -16.4740 C.3    25  VAL25       0.0252
     34  CG1      -18.9490  -11.9430  -17.8520 C.3    25  VAL25       0.0019
     35  CG2      -19.2800  -13.7830  -16.1740 C.3    25  VAL25       0.0019
     36  N        -18.6560  -12.7130  -24.4300 N.3    35  ALA35      -0.1245
     37  CA       -18.5140  -12.7340  -22.9810 C.3    35  ALA35       0.1562
     38  C        -17.6740  -13.9310  -22.5880 C.2    35  ALA35       0.2260
     39  O        -17.7950  -14.9850  -23.2000 O.2    35  ALA35      -0.2867
     40  CB       -19.8640  -12.7880  -22.3160 C.3    35  ALA35       0.0290
     41  N        -16.3560  -16.2490  -19.2520 N.3    37  LYS37      -0.1245
     42  CA       -16.3250  -16.5730  -17.8310 C.3    37  LYS37       0.1561
     43  C        -15.1080  -17.3940  -17.5460 C.2    37  LYS37       0.2260
     44  O        -15.0460  -18.5530  -17.9540 O.2    37  LYS37      -0.2867
     45  CB       -17.5640  -17.3410  -17.3800 C.3    37  LYS37       0.0271
     46  CG       -17.4020  -17.9870  -15.9870 C.3    37  LYS37       0.0035
     47  CD       -18.7220  -17.9650  -15.2130 C.3    37  LYS37       0.0206
     48  CE       -19.8220  -18.7340  -15.9410 C.3    37  LYS37       0.1093
     49  NZ       -21.1410  -18.7410  -15.2400 N.3    37  LYS37      -0.1314
     50  N        -23.5530  -28.7300  -22.8250 N.3    55  LEU55      -0.1245
     51  CA       -23.8180  -27.3380  -23.1570 C.3    55  LEU55       0.1561
     52  C        -24.0330  -27.0950  -24.6320 C.2    55  LEU55       0.2260
     53  O        -24.8140  -26.2390  -25.0280 O.2    55  LEU55      -0.2867
     54  CB       -22.6710  -26.4350  -22.7100 C.3    55  LEU55       0.0270
     55  CG       -22.5160  -25.9690  -21.2680 C.3    55  LEU55       0.0019
     56  CD1      -21.2500  -25.1290  -21.1850 C.3    55  LEU55       0.0001
     57  CD2      -23.7480  -25.1500  -20.8580 C.3    55  LEU55       0.0001
     58  N        -27.7970  -27.7380  -25.5210 N.3    58  THR58      -0.1218
     59  CA       -28.9800  -27.0070  -25.0790 C.3    58  THR58       0.1862
     60  C        -29.0090  -25.6190  -25.7570 C.2    58  THR58       0.2287
     61  O        -28.3040  -24.6820  -25.3780 O.2    58  THR58      -0.2866
     62  CB       -29.0440  -26.9020  -23.5470 C.3    58  THR58       0.1770
     63  OG1      -28.3740  -25.7200  -23.1070 O.3    58  THR58      -0.2211
     64  CG2      -28.4070  -28.1220  -22.9130 C.3    58  THR58       0.0375
     65  N        -28.3960  -18.2410  -23.4520 N.3    64  LEU64      -0.1245
     66  CA       -27.0930  -17.9240  -24.0270 C.3    64  LEU64       0.1561
     67  C        -26.5380  -19.0670  -24.8770 C.2    64  LEU64       0.2260
     68  O        -26.5830  -20.2390  -24.4740 O.2    64  LEU64      -0.2867
     69  CB       -26.0730  -17.5850  -22.9400 C.3    64  LEU64       0.0270
     70  CG       -26.0400  -16.2340  -22.2120 C.3    64  LEU64       0.0019
     71  CD1      -24.8760  -16.2670  -21.2150 C.3    64  LEU64       0.0001
     72  CD2      -25.9480  -14.9920  -23.1650 C.3    64  LEU64       0.0001
     73  N        -23.5980  -21.2680  -26.3740 N.3    66  PHE66      -0.1241
     74  CA       -22.2360  -21.6740  -26.0330 C.3    66  PHE66       0.1605
     75  C        -21.4180  -21.6160  -27.3030 C.2    66  PHE66       0.2264
     76  O        -21.8140  -22.1990  -28.3160 O.2    66  PHE66      -0.2867
     77  CB       -22.2510  -23.0660  -25.3740 C.3    66  PHE66       0.0534
     78  CG       -20.8940  -23.6850  -25.1560 C.ar   66  PHE66      -0.0203
     79  CD1      -19.8890  -23.0060  -24.4790 C.ar   66  PHE66      -0.0042
     80  CD2      -20.6690  -25.0130  -25.5070 C.ar   66  PHE66      -0.0042
     81  CE1      -18.6460  -23.6020  -24.2530 C.ar   66  PHE66      -0.0003
     82  CE2      -19.4260  -25.6230  -25.2800 C.ar   66  PHE66      -0.0003
     83  CZ       -18.4180  -24.9090  -24.6480 C.ar   66  PHE66      -0.0000
     84  N        -15.5090  -20.3050  -20.4190 N.3    77  ILE77      -0.1245
     85  CA       -16.7100  -20.5390  -21.2050 C.3    77  ILE77       0.1561
     86  C        -17.0110  -19.2640  -21.9950 C.2    77  ILE77       0.2260
     87  O        -17.0920  -18.1640  -21.4330 O.2    77  ILE77      -0.2867
     88  CB       -17.9110  -20.9110  -20.3110 C.3    77  ILE77       0.0252
     89  CG1      -17.5870  -22.1660  -19.4810 C.3    77  ILE77       0.0019
     90  CG2      -19.2090  -21.0370  -21.1430 C.3    77  ILE77       0.0019
     91  CD1      -18.6360  -22.5250  -18.4150 C.3    77  ILE77       0.0001
     92  N        -19.5990  -17.2340  -24.4560 N.3    79  THR79      -0.1203
     93  CA       -20.9280  -17.1120  -25.0310 C.3    79  THR79       0.1994
     94  C        -21.0890  -15.7570  -25.7440 C.2    79  THR79       0.2618
     95  O        -20.1620  -14.9490  -25.7930 O.2    79  THR79      -0.2717
     96  CB       -22.0110  -17.2610  -23.9650 C.3    79  THR79       0.1784
     97  OG1      -22.1510  -16.0360  -23.2300 O.3    79  THR79      -0.2211
     98  CG2      -21.6480  -18.3690  -23.0280 C.3    79  THR79       0.0376
     99  N        -22.2680  -15.5020  -26.2920 N.am   80  GLN80      -0.1965
    100  CA       -22.4860  -14.2380  -26.9700 C.3    80  GLN80       0.1733
    101  C        -22.5390  -13.0950  -25.9600 C.2    80  GLN80       0.2616
    102  O        -22.7950  -13.3160  -24.7690 O.2    80  GLN80      -0.2715
    103  CB       -23.7590  -14.3210  -27.7870 C.3    80  GLN80       0.0408
    104  CG       -24.9350  -14.6650  -26.9380 C.3    80  GLN80       0.0908
    105  CD       -25.9810  -15.4530  -27.6960 C.2    80  GLN80       0.2608
    106  OE1      -26.3730  -16.5330  -27.2590 O.2    80  GLN80      -0.2717
    107  NE2      -26.4640  -14.9100  -28.8190 N.am   80  GLN80      -0.0878
    108  N        -22.2740  -11.8770  -26.4360 N.am   81  TRP81      -0.1960
    109  CA       -22.2980  -10.7010  -25.5760 C.3    81  TRP81       0.1771
    110  C        -23.6620  -10.0470  -25.5820 C.2    81  TRP81       0.2619
    111  O        -24.2560   -9.8550  -26.6400 O.2    81  TRP81      -0.2715
    112  CB       -21.2460   -9.6850  -26.0060 C.3    81  TRP81       0.0590
    113  CG       -21.3210   -8.3930  -25.1930 C.ar   81  TRP81       0.0006
    114  CD1      -21.8750   -7.2060  -25.5890 C.ar   81  TRP81       0.0946
    115  CD2      -20.8120   -8.1700  -23.8670 C.ar   81  TRP81       0.0152
    116  NE1      -21.7510   -6.2760  -24.6000 N.ar   81  TRP81      -0.2442
    117  CE2      -21.1040   -6.8340  -23.5310 C.ar   81  TRP81       0.0810
    118  CE3      -20.1390   -8.9720  -22.9340 C.ar   81  TRP81       0.0012
    119  CZ2      -20.7580   -6.2790  -22.2960 C.ar   81  TRP81       0.0191
    120  CZ3      -19.7980   -8.4230  -21.7010 C.ar   81  TRP81       0.0001
    121  CH2      -20.1040   -7.0890  -21.3940 C.ar   81  TRP81       0.0015
    122  N        -24.1390   -9.6850  -24.3950 N.am   82  CYS82      -0.1968
    123  CA       -25.4160   -8.9910  -24.2510 C.3    82  CYS82       0.1712
    124  C        -25.2330   -7.5160  -23.8270 C.2    82  CYS82       0.2296
    125  O        -24.9790   -7.2480  -22.6440 O.2    82  CYS82      -0.2864
    126  CB       -26.2860   -9.7370  -23.2370 C.3    82  CYS82       0.0983
    127  SG       -26.8680  -11.3680  -23.7960 S.3    82  CYS82      -0.0798
    128  N        -26.7980   -5.7170  -20.8950 N.3    85  SER85      -0.1202
    129  CA       -26.3700   -6.2550  -19.6070 C.3    85  SER85       0.2020
    130  C        -27.4890   -7.0440  -18.8950 C.2    85  SER85       0.2619
    131  O        -28.3540   -7.6310  -19.5490 O.2    85  SER85      -0.2717
    132  CB       -25.8470   -5.1420  -18.7080 C.3    85  SER85       0.2103
    133  OG       -26.9150   -4.4080  -18.1740 O.3    85  SER85      -0.2182
    134  N        -27.4650   -7.0810  -17.5710 N.am   86  SER86      -0.1951
    135  CA       -28.4170   -7.9230  -16.8690 C.3    86  SER86       0.1924
    136  C        -29.6660   -7.1570  -16.4630 C.2    86  SER86       0.2314
    137  O        -29.6980   -5.9330  -16.4710 O.2    86  SER86      -0.2863
    138  CB       -27.7790   -8.5680  -15.6410 C.3    86  SER86       0.2116
    139  OG       -27.4980   -7.6130  -14.6490 O.3    86  SER86      -0.2180
    140  N        -28.9510   -5.3670  -13.2270 N.3    89  HIS89      -0.1241
    141  CA       -28.3020   -4.0900  -13.4520 C.3    89  HIS89       0.1621
    142  C        -29.2830   -2.9870  -13.7990 C.2    89  HIS89       0.2264
    143  O        -29.2060   -1.8930  -13.2640 O.2    89  HIS89      -0.2867
    144  CB       -27.2730   -4.1930  -14.5700 C.3    89  HIS89       0.0745
    145  CG       -26.2980   -3.0560  -14.5840 C.ar   89  HIS89       0.0817
    146  ND1      -25.2270   -2.9770  -13.7190 N.ar   89  HIS89      -0.2268
    147  CD2      -26.2500   -1.9340  -15.3440 C.ar   89  HIS89       0.1154
    148  CE1      -24.5490   -1.8680  -13.9610 C.ar   89  HIS89       0.1986
    149  NE2      -25.1570   -1.2120  -14.9320 N.ar   89  HIS89      -0.2212
    150  N        -29.6820  -11.3650  -11.8980 N.3   130  ASN130     -0.1240
    151  CA       -28.2600  -11.2140  -12.2020 C.3   130  ASN130      0.1653
    152  C        -27.8020  -11.9550  -13.4590 C.2   130  ASN130      0.2266
    153  O        -26.8570  -11.5290  -14.1280 O.2   130  ASN130     -0.2867
    154  CB       -27.3970  -11.7180  -11.0380 C.3   130  ASN130      0.1155
    155  CG       -27.5430  -10.8850   -9.7970 C.2   130  ASN130      0.2627
    156  OD1      -28.3240  -11.2130   -8.8920 O.2   130  ASN130     -0.2716
    157  ND2      -26.7980   -9.7880   -9.7420 N.am  130  ASN130     -0.0877
    158  N        -30.1300  -11.9190  -18.9690 N.3   133  PHE133     -0.1241
    159  CA       -29.4560  -10.8970  -19.7400 C.3   133  PHE133      0.1605
    160  C        -30.2980  -10.3510  -20.8900 C.2   133  PHE133      0.2264
    161  O        -31.1770  -11.0380  -21.4110 O.2   133  PHE133     -0.2867
    162  CB       -28.1190  -11.4550  -20.2370 C.3   133  PHE133      0.0534
    163  CG       -27.2500  -11.9700  -19.1270 C.ar  133  PHE133     -0.0203
    164  CD1      -27.0670  -13.3420  -18.9330 C.ar  133  PHE133     -0.0042
    165  CD2      -26.6310  -11.0920  -18.2560 C.ar  133  PHE133     -0.0042
    166  CE1      -26.2610  -13.8340  -17.8910 C.ar  133  PHE133     -0.0003
    167  CE2      -25.8260  -11.5760  -17.2130 C.ar  133  PHE133     -0.0003
    168  CZ       -25.6490  -12.9620  -17.0310 C.ar  133  PHE133     -0.0000
    169  N        -28.5220  -17.1370  -18.3780 N.3   143  GLY143     -0.1210
    170  CA       -27.2150  -17.7270  -18.1630 C.3   143  GLY143      0.1956
    171  C        -27.1610  -18.4060  -16.8090 C.2   143  GLY143      0.2612
    172  O        -28.1660  -18.4570  -16.0740 O.2   143  GLY143     -0.2717
    173  N        -25.9910  -18.9560  -16.4920 N.am  144  ASP144     -0.1959
    174  CA       -25.7490  -19.7320  -15.2730 C.3   144  ASP144      0.1840
    175  C        -26.5850  -20.9830  -15.0940 C.2   144  ASP144      0.2622
    176  O        -26.7990  -21.4400  -13.9690 O.2   144  ASP144     -0.2715
    177  CB       -25.9330  -18.8690  -14.0380 C.3   144  ASP144      0.1450
    178  CG       -24.7050  -18.0710  -13.7120 C.2   144  ASP144      0.3671
    179  OD1      -24.5800  -17.6430  -12.5410 O.co2 144  ASP144     -0.2456
    180  OD2      -23.8670  -17.8850  -14.6210 O.co2 144  ASP144     -0.2456
    181  N        -27.0350  -21.5800  -16.1770 N.am  145  PHE145     -0.1960
    182  CA       -27.6370  -22.8860  -16.0380 C.3   145  PHE145      0.1771
    183  C        -26.5720  -23.9600  -16.2200 C.2   145  PHE145      0.2620
    184  O        -26.7670  -25.0980  -15.8250 O.2   145  PHE145     -0.2715
    185  CB       -28.7720  -23.0640  -17.0370 C.3   145  PHE145      0.0574
    186  CG       -28.3570  -22.8680  -18.4650 C.ar  145  PHE145     -0.0200
    187  CD1      -27.9990  -23.9590  -19.2620 C.ar  145  PHE145     -0.0042
    188  CD2      -28.3160  -21.5910  -19.0130 C.ar  145  PHE145     -0.0042
    189  CE1      -27.6080  -23.7720  -20.5760 C.ar  145  PHE145     -0.0003
    190  CE2      -27.9350  -21.4010  -20.3230 C.ar  145  PHE145     -0.0003
    191  CZ       -27.5800  -22.4840  -21.1040 C.ar  145  PHE145     -0.0000
    192  N        -25.4330  -23.5750  -16.7840 N.am  146  GLY146     -0.1940
    193  CA       -24.3650  -24.5120  -17.0800 C.3   146  GLY146      0.2014
    194  C        -23.5690  -24.9750  -15.8830 C.2   146  GLY146      0.2638
    195  O        -23.5670  -24.3020  -14.8440 O.2   146  GLY146     -0.2714
    196  N        -22.8550  -26.0900  -16.0570 N.am  147  LEU147     -0.1977
    197  CA       -22.0520  -26.7020  -14.9960 C.3   147  LEU147      0.1596
    198  C        -22.9660  -27.2690  -13.9280 C.2   147  LEU147      0.2287
    199  O        -22.6350  -27.2560  -12.7490 O.2   147  LEU147     -0.2864
    200  CB       -21.0650  -25.7020  -14.3690 C.3   147  LEU147      0.0297
    201  CG       -19.8010  -25.2150  -15.1040 C.3   147  LEU147      0.0022
    202  CD1      -18.7090  -26.2720  -15.1110 C.3   147  LEU147      0.0001
    203  CD2      -20.0640  -24.7240  -16.5240 C.3   147  LEU147      0.0001
@<TRIPOS>BOND
     1   107   105   am
     2    76    75    2
     3   103   100    1
     4   103   104    1
     5   105   106    2
     6   105   104    1
     7    75    74    1
     8   100    99    1
     9   100   101    1
    10   111   110    2
    11   108   101   am
    12   108   109    1
    13    73    74    1
    14    99    94   am
    15    74    77    1
    16   112   109    1
    17   112   113    1
    18   101   102    2
    19    95    94    2
    20    60    61    2
    21    60    59    1
    22    94    93    1
    23   114   113   ar
    24   114   116   ar
    25   110   109    1
    26   110   122   am
    27    58    59    1
    28    80    82   ar
    29    80    78   ar
    30    77    78    1
    31    82    83   ar
    32   113   115   ar
    33    78    79   ar
    34    59    62    1
    35    93    92    1
    36    93    96    1
    37    53    52    2
    38    67    68    2
    39    67    66    1
    40    83    81   ar
    41    52    51    1
    42   116   117   ar
    43    79    81   ar
    44    36    37    1
    45   122   123    1
    46   123   124    1
    47   123   126    1
    48    66    65    1
    49    66    69    1
    50    96    97    1
    51    96    98    1
    52   115   117   ar
    53   115   118   ar
    54   124   125    2
    55   127   126    1
    56    62    63    1
    57    62    64    1
    58   117   119   ar
    59    39    38    2
    60    72    70    1
    61    51    50    1
    62    51    54    1
    63    37    38    1
    64    37    40    1
    65    69    70    1
    66   118   120   ar
    67    54    55    1
    68   119   121   ar
    69    70    71    1
    70    86    87    2
    71    86    85    1
    72   120   121   ar
    73     8     7    2
    74   161   160    2
    75    55    56    1
    76    55    57    1
    77    85    84    1
    78    85    88    1
    79    90    88    1
    80   191   189   ar
    81   191   190   ar
    82   128   129    1
    83   160   159    1
    84   189   187   ar
    85     1     2    1
    86   190   188   ar
    87    88    89    1
    88     7     6    1
    89     7     9   am
    90   162   159    1
    91   162   163    1
    92     6     5    1
    93   159   158    1
    94   129   130    1
    95   129   132    1
    96   131   130    2
    97    89    91    1
    98   187   186   ar
    99    41    42    1
   100     5     2    1
   101   163   164   ar
   102   163   165   ar
   103     2     3    1
   104   188   186   ar
   105   164   166   ar
   106   130   134   am
   107   132   133    1
   108     4     3    2
   109   186   185    1
   110   169   170    1
   111   165   167   ar
   112     3    10   am
   113   170   171    1
   114    44    43    2
   115    28    26    1
   116   166   168   ar
   117    26    25    1
   118    34    33    1
   119    42    43    1
   120    42    45    1
   121   134   135    1
   122    45    46    1
   123   167   168   ar
   124   193   192    1
   125   193   194    1
   126   185   182    1
   127    10    11    1
   128    31    30    1
   129    31    32    2
   130   135   136    1
   131   135   138    1
   132   171   173   am
   133   171   172    2
   134   192   183   am
   135   203   201    1
   136   173   174    1
   137    25    27    1
   138    25    22    1
   139    33    30    1
   140    33    35    1
   141   137   136    2
   142    30    29    1
   143   183   182    1
   144   183   184    2
   145   181   182    1
   146   181   175   am
   147   196   194   am
   148   196   197    1
   149    46    47    1
   150    11    12    1
   151    11    14    1
   152    48    49    1
   153    48    47    1
   154   194   195    2
   155    12    21   am
   156    12    13    2
   157   138   139    1
   158    21    22    1
   159    22    23    1
   160   147   149   ar
   161   147   145   ar
   162   174   175    1
   163   174   177    1
   164   202   201    1
   165   201   200    1
   166   175   176    2
   167   197   200    1
   168   197   198    1
   169   149   148   ar
   170    14    15    1
   171   180   178   ar
   172   145   144    1
   173   145   146   ar
   174   144   141    1
   175   153   152    2
   176    23    24    2
   177   177   178    1
   178   148   146   ar
   179   198   199    2
   180   142   141    1
   181   142   143    2
   182   178   179   ar
   183    15    16    1
   184   152   151    1
   185   141   140    1
   186    16    17    1
   187   151   150    1
   188   151   154    1
   189    17    18    2
   190   154   155    1
   191    20    18    1
   192    18    19    1
   193   155   157   am
   194   155   156    2
