@<TRIPOS>MOLECULE
tmp/5jt6A00.pdb
 121 113 0 0 0
SMALL
GASTEIGER

@<TRIPOS>ATOM
      1  N          9.4990   12.0680   22.3590 N.3    93  ASP93      -0.1239
      2  CA        10.2640   13.1700   22.9130 C.3    93  ASP93       0.1674
      3  C          9.4370   13.8410   24.0040 C.2    93  ASP93       0.2266
      4  O          8.2060   13.7720   23.9990 O.2    93  ASP93      -0.2867
      5  CB        10.6200   14.1630   21.8040 C.3    93  ASP93       0.1410
      6  CG        11.6830   15.1580   22.2230 C.2    93  ASP93       0.3668
      7  OD1       12.1320   15.1080   23.3920 O.co2  93  ASP93      -0.2456
      8  OD2       12.0680   15.9930   21.3770 O.co2  93  ASP93      -0.2456
      9  N         12.6690   20.3450   23.7570 N.3    97  TYR97      -0.1227
     10  CA        13.2700   21.0140   22.6080 C.3    97  TYR97       0.1736
     11  C         12.2410   21.8390   21.8400 C.2    97  TYR97       0.2595
     12  O         12.5100   22.9920   21.4780 O.2    97  TYR97      -0.2718
     13  CB        13.9390   19.9800   21.7000 C.3    97  TYR97       0.0548
     14  CG        14.5480   20.5600   20.4450 C.ar   97  TYR97      -0.0200
     15  CD1       15.7680   21.2240   20.4840 C.ar   97  TYR97      -0.0009
     16  CD2       13.9050   20.4390   19.2200 C.ar   97  TYR97      -0.0009
     17  CE1       16.3260   21.7580   19.3370 C.ar   97  TYR97       0.0417
     18  CE2       14.4550   20.9680   18.0680 C.ar   97  TYR97       0.0417
     19  CZ        15.6650   21.6260   18.1320 C.ar   97  TYR97       0.1957
     20  OH        16.2140   22.1520   16.9850 O.3    97  TYR97      -0.2866
     21  N         11.0540   21.2770   21.5870 N.am   98  GLN98      -0.1979
     22  CA        10.0610   22.0020   20.7960 C.3    98  GLN98       0.1601
     23  C          9.4870   23.1880   21.5540 C.2    98  GLN98       0.2287
     24  O          9.1220   24.1930   20.9340 O.2    98  GLN98      -0.2864
     25  CB         8.9250   21.0770   20.3520 C.3    98  GLN98       0.0394
     26  CG         9.1270   20.4460   18.9930 C.3    98  GLN98       0.0908
     27  CD         9.9860   19.2140   19.0720 C.2    98  GLN98       0.2608
     28  OE1       10.2010   18.6720   20.1550 O.2    98  GLN98      -0.2717
     29  NE2       10.4880   18.7600   17.9280 N.am   98  GLN98      -0.0878
     30  N         13.5250   17.8290   29.9820 N.3   142  ASP142     -0.1239
     31  CA        14.7030   18.6150   30.3180 C.3   142  ASP142      0.1674
     32  C         14.4990   20.0650   29.8960 C.2   142  ASP142      0.2266
     33  O         13.4730   20.4310   29.3150 O.2   142  ASP142     -0.2867
     34  CB        15.9620   18.0160   29.6820 C.3   142  ASP142      0.1410
     35  CG        15.8690   17.9160   28.1730 C.2   142  ASP142      0.3668
     36  OD1       14.7640   18.0570   27.6070 O.co2 142  ASP142     -0.2456
     37  OD2       16.9180   17.6830   27.5400 O.co2 142  ASP142     -0.2456
     38  N         16.3050   22.8910   27.6060 N.3   144  CYS144     -0.1235
     39  CA        17.2820   23.1610   26.5630 C.3   144  CYS144      0.1677
     40  C         17.5920   24.6520   26.5000 C.2   144  CYS144      0.2270
     41  O         16.7320   25.4940   26.7680 O.2   144  CYS144     -0.2867
     42  CB        16.7700   22.6930   25.1990 C.3   144  CYS144      0.0956
     43  SG        16.0930   21.0110   25.1570 S.3   144  CYS144     -0.0801
     44  N         18.5380   12.2030   29.4990 N.3   187  ILE187     -0.1245
     45  CA        19.1750   12.9920   28.4420 C.3   187  ILE187      0.1561
     46  C         20.4130   13.6760   29.0130 C.2   187  ILE187      0.2260
     47  O         20.3100   14.4840   29.9460 O.2   187  ILE187     -0.2867
     48  CB        18.2120   14.0290   27.8390 C.3   187  ILE187      0.0252
     49  CG1       16.9610   13.3590   27.2710 C.3   187  ILE187      0.0019
     50  CG2       18.9150   14.8260   26.7440 C.3   187  ILE187      0.0019
     51  CD1       15.8940   14.3460   26.7670 C.3   187  ILE187      0.0001
     52  N         23.1890   16.4220   28.9460 N.3   189  GLN189     -0.1245
     53  CA        23.3980   17.7730   28.4490 C.3   189  GLN189      0.1566
     54  C         24.8210   18.2040   28.8010 C.2   189  GLN189      0.2260
     55  O         25.6640   17.3870   29.1830 O.2   189  GLN189     -0.2867
     56  CB        22.3340   18.7280   29.0070 C.3   189  GLN189      0.0367
     57  CG        20.9030   18.3900   28.5510 C.3   189  GLN189      0.0905
     58  CD        20.6730   18.6330   27.0610 C.2   189  GLN189      0.2608
     59  OE1       21.5340   19.1730   26.3640 O.2   189  GLN189     -0.2717
     60  NE2       19.5000   18.2390   26.5720 N.am  189  GLN189     -0.0878
     61  N         21.8330   14.7540   24.2540 N.3   215  GLY215     -0.1210
     62  CA        21.0900   15.9170   23.8400 C.3   215  GLY215      0.1956
     63  C         22.0210   17.0650   23.4970 C.2   215  GLY215      0.2612
     64  O         23.2400   16.9830   23.6330 O.2   215  GLY215     -0.2717
     65  N         21.4110   18.1500   23.0280 N.am  216  GLY216     -0.1942
     66  CA        22.1480   19.3780   22.8120 C.3   216  GLY216      0.2014
     67  C         23.0600   19.3830   21.6110 C.2   216  GLY216      0.2639
     68  O         23.8910   20.2880   21.4940 O.2   216  GLY216     -0.2714
     69  N         22.9420   18.4010   20.7220 N.am  217  LEU217     -0.1963
     70  CA        23.6710   18.3640   19.4630 C.3   217  LEU217      0.1728
     71  C         22.6650   18.4360   18.3170 C.2   217  LEU217      0.2616
     72  O         21.4520   18.4430   18.5330 O.2   217  LEU217     -0.2715
     73  CB        24.5480   17.1100   19.3790 C.3   217  LEU217      0.0311
     74  CG        25.5570   16.9320   20.5220 C.3   217  LEU217      0.0022
     75  CD1       26.3750   15.6530   20.3710 C.3   217  LEU217      0.0001
     76  CD2       26.4760   18.1450   20.6500 C.3   217  LEU217      0.0001
     77  N         23.1740   18.4910   17.0880 N.am  218  ALA218     -0.1963
     78  CA        22.3410   18.7600   15.9140 C.3   218  ALA218      0.1728
     79  C         21.5550   20.0570   16.1040 C.2   218  ALA218      0.2616
     80  O         20.3400   20.1200   15.9070 O.2   218  ALA218     -0.2715
     81  CB        21.4040   17.5900   15.6120 C.3   218  ALA218      0.0334
     82  N         22.2670   21.1000   16.5170 N.am  219  VAL219     -0.1977
     83  CA        21.6570   22.4070   16.7300 C.3   219  VAL219      0.1596
     84  C         22.4390   23.4640   15.9630 C.2   219  VAL219      0.2287
     85  O         22.2500   24.6650   16.1750 O.2   219  VAL219     -0.2864
     86  CB        21.5810   22.7480   18.2290 C.3   219  VAL219      0.0276
     87  CG1       20.5270   21.8830   18.9120 C.3   219  VAL219      0.0022
     88  CG2       22.9350   22.5500   18.8780 C.3   219  VAL219      0.0022
     89  N         19.8350   12.3650   19.6080 N.3   246  MET246     -0.1230
     90  CA        18.5720   12.9800   19.2090 C.3   246  MET246      0.1702
     91  C         18.7650   13.9130   18.0160 C.2   246  MET246      0.2592
     92  O         19.6850   14.7320   18.0030 O.2   246  MET246     -0.2718
     93  CB        17.9740   13.7460   20.3920 C.3   246  MET246      0.0401
     94  CG        17.7930   12.8600   21.6210 C.3   246  MET246      0.0596
     95  SD        17.0800   13.7460   23.0290 S.3   246  MET246     -0.1393
     96  CE        15.3720   13.8180   22.4980 C.3   246  MET246      0.0692
     97  N         17.8970   13.7800   17.0110 N.am  247  GLY247     -0.1957
     98  CA        17.8650   14.7280   15.9080 C.3   247  GLY247      0.1869
     99  C         18.9120   14.5420   14.8280 C.2   247  GLY247      0.2309
    100  O         19.0630   15.4260   13.9800 O.2   247  GLY247     -0.2863
    101  N         17.0800    9.6330   15.3640 N.3   266  ASP266     -0.1225
    102  CA        15.8550   10.1180   14.7410 C.3   266  ASP266      0.1805
    103  C         16.1760   11.3890   13.9820 C.2   266  ASP266      0.2598
    104  O         17.0370   12.1680   14.3980 O.2   266  ASP266     -0.2718
    105  CB        14.7490   10.4270   15.7560 C.3   266  ASP266      0.1424
    106  CG        14.9570   11.7760   16.4390 C.2   266  ASP266      0.3668
    107  OD1       15.6750   11.8150   17.4640 O.co2 266  ASP266     -0.2456
    108  OD2       14.4280   12.8120   15.9480 O.co2 266  ASP266     -0.2456
    109  N         15.4780   11.6140   12.8680 N.am  267  CYS267     -0.1956
    110  CA        15.6900   12.8490   12.1310 C.3   267  CYS267      0.1843
    111  C         14.5310   13.0650   11.1700 C.2   267  CYS267      0.2625
    112  O         14.0680   12.0930   10.5750 O.2   267  CYS267     -0.2714
    113  CB        17.0070   12.7550   11.3650 C.3   267  CYS267      0.0997
    114  SG        17.5420   14.2770   10.7200 S.3   267  CYS267     -0.0797
    115  N         14.1100   14.3130   10.9760 N.am  268  VAL268     -0.1977
    116  CA        13.1150   14.6040    9.9480 C.3   268  VAL268      0.1596
    117  C         13.7000   14.6650    8.5440 C.2   268  VAL268      0.2287
    118  O         12.9360   14.7800    7.5820 O.2   268  VAL268     -0.2864
    119  CB        12.3780   15.9280   10.2260 C.3   268  VAL268      0.0276
    120  CG1       11.6680   15.8850   11.5830 C.3   268  VAL268      0.0022
    121  CG2       13.3400   17.1120   10.1750 C.3   268  VAL268      0.0022
@<TRIPOS>BOND
     1   118   117    2
     2   117   116    1
     3   116   119    1
     4   116   115    1
     5   121   119    1
     6   119   120    1
     7   112   111    2
     8   114   113    1
     9   115   111   am
    10   111   110    1
    11   113   110    1
    12   110   109    1
    13   109   103   am
    14   100    99    2
    15   103   104    2
    16   103   102    1
    17   102   101    1
    18   102   105    1
    19    99    98    1
    20    81    78    1
    21   105   106    1
    22    80    79    2
    23    98    97    1
    24    78    79    1
    25    78    77    1
    26   108   106   ar
    27    84    85    2
    28    84    83    1
    29    79    82   am
    30   106   107   ar
    31    82    83    1
    32    83    86    1
    33    20    19    1
    34    97    91   am
    35    77    71   am
    36    29    27   am
    37    92    91    2
    38    91    90    1
    39    18    19   ar
    40    18    16   ar
    41    19    17   ar
    42    86    88    1
    43    86    87    1
    44    71    72    2
    45    71    70    1
    46    26    27    1
    47    26    25    1
    48    27    28    2
    49    90    89    1
    50    90    93    1
    51    16    14   ar
    52    17    15   ar
    53    73    70    1
    54    73    74    1
    55    70    69    1
    56    25    22    1
    57    75    74    1
    58    93    94    1
    59    14    15   ar
    60    14    13    1
    61    74    76    1
    62    69    67   am
    63    22    23    1
    64    22    21    1
    65    24    23    2
    66     8     6   ar
    67    12    11    2
    68    68    67    2
    69    21    11   am
    70    67    66    1
    71    94    95    1
    72    13    10    1
    73     5     6    1
    74     5     2    1
    75    11    10    1
    76     6     7   ar
    77     1     2    1
    78    96    95    1
    79    10     9    1
    80    66    65    1
    81     2     3    1
    82    65    63   am
    83    63    64    2
    84    63    62    1
    85    62    61    1
    86     4     3    2
    87    43    42    1
    88    42    39    1
    89    59    58    2
    90    40    39    1
    91    40    41    2
    92    39    38    1
    93    60    58   am
    94    50    48    1
    95    51    49    1
    96    58    57    1
    97    49    48    1
    98    37    35   ar
    99    36    35   ar
   100    48    45    1
   101    35    34    1
   102    45    46    1
   103    45    44    1
   104    53    54    1
   105    53    52    1
   106    53    56    1
   107    57    56    1
   108    54    55    2
   109    46    47    2
   110    33    32    2
   111    34    31    1
   112    32    31    1
   113    30    31    1
