@<TRIPOS>MOLECULE
tmp/5jt7A00.pdb
 106 99 0 0 0
SMALL
GASTEIGER

@<TRIPOS>ATOM
      1  N         99.6140   11.7360   22.4220 N.3    92  ASP92      -0.1225
      2  CA       100.3920   12.7920   23.0410 C.3    92  ASP92       0.1805
      3  C         99.5300   13.4970   24.0790 C.2    92  ASP92       0.2598
      4  O         98.2980   13.4430   24.0360 O.2    92  ASP92      -0.2718
      5  CB       100.9020   13.7890   21.9970 C.3    92  ASP92       0.1424
      6  CG       102.0590   14.6320   22.5190 C.2    92  ASP92       0.3668
      7  OD1      102.4410   14.4640   23.7100 O.co2  92  ASP92      -0.2456
      8  OD2      102.5850   15.4640   21.7480 O.co2  92  ASP92      -0.2456
      9  N        100.1920   14.1640   25.0260 N.am   93  SER93      -0.1952
     10  CA        99.5370   14.6740   26.2200 C.3    93  SER93       0.1924
     11  C         98.8960   16.0400   26.0360 C.2    93  SER93       0.2314
     12  O         98.0830   16.4440   26.8750 O.2    93  SER93      -0.2863
     13  CB       100.5520   14.7560   27.3550 C.3    93  SER93       0.2116
     14  OG       101.6150   15.6220   26.9930 O.3    93  SER93      -0.2180
     15  N        102.5450   20.1290   23.9480 N.3    96  TYR96      -0.1227
     16  CA       103.1400   20.8630   22.8330 C.3    96  TYR96       0.1736
     17  C        102.1210   21.7750   22.1560 C.2    96  TYR96       0.2595
     18  O        102.4210   22.9380   21.8640 O.2    96  TYR96      -0.2718
     19  CB       103.7490   19.8880   21.8250 C.3    96  TYR96       0.0548
     20  CG       104.6020   20.5660   20.7770 C.ar   96  TYR96      -0.0200
     21  CD1      104.0520   21.0010   19.5750 C.ar   96  TYR96      -0.0009
     22  CD2      105.9570   20.7810   20.9910 C.ar   96  TYR96      -0.0009
     23  CE1      104.8300   21.6270   18.6140 C.ar   96  TYR96       0.0417
     24  CE2      106.7420   21.4040   20.0400 C.ar   96  TYR96       0.0417
     25  CZ       106.1750   21.8240   18.8530 C.ar   96  TYR96       0.1957
     26  OH       106.9630   22.4440   17.9080 O.3    96  TYR96      -0.2866
     27  N        100.9120   21.2720   21.8890 N.am   97  GLN97      -0.1979
     28  CA        99.9260   22.0950   21.1920 C.3    97  GLN97       0.1601
     29  C         99.4230   23.2280   22.0670 C.2    97  GLN97       0.2287
     30  O         99.1120   24.3120   21.5560 O.2    97  GLN97      -0.2864
     31  CB        98.7440   21.2510   20.7140 C.3    97  GLN97       0.0394
     32  CG        99.0430   20.3780   19.5290 C.3    97  GLN97       0.0908
     33  CD        99.9250   19.2130   19.9020 C.2    97  GLN97       0.2608
     34  OE1       99.8510   18.6980   21.0230 O.2    97  GLN97      -0.2717
     35  NE2      100.7770   18.7990   18.9800 N.am   97  GLN97      -0.0878
     36  N        103.5610   17.5030   29.9450 N.3   137  ASP137     -0.1239
     37  CA       104.7570   18.2840   30.1920 C.3   137  ASP137      0.1674
     38  C        104.4850   19.7520   29.9020 C.2   137  ASP137      0.2266
     39  O        103.4250   20.1240   29.3920 O.2   137  ASP137     -0.2867
     40  CB       105.9380   17.7570   29.3670 C.3   137  ASP137      0.1410
     41  CG       105.6570   17.7310   27.8750 C.2   137  ASP137      0.3668
     42  OD1      104.4750   17.6550   27.4630 O.co2 137  ASP137     -0.2456
     43  OD2      106.6420   17.7770   27.1110 O.co2 137  ASP137     -0.2456
     44  N        106.1200   22.6630   27.7160 N.3   139  CYS139     -0.1235
     45  CA       107.0620   22.8710   26.6310 C.3   139  CYS139      0.1677
     46  C        107.4920   24.3290   26.5590 C.2   139  CYS139      0.2270
     47  O        106.7520   25.2390   26.9430 O.2   139  CYS139     -0.2867
     48  CB       106.4400   22.4460   25.3020 C.3   139  CYS139      0.0956
     49  SG       105.9200   20.7190   25.2840 S.3   139  CYS139     -0.0801
     50  N        108.5600   11.9030   29.5380 N.3   182  ILE182     -0.1245
     51  CA       109.1660   12.7160   28.4850 C.3   182  ILE182      0.1561
     52  C        110.3810   13.4230   29.0630 C.2   182  ILE182      0.2260
     53  O        110.2500   14.2370   29.9840 O.2   182  ILE182     -0.2867
     54  CB       108.1810   13.7400   27.8960 C.3   182  ILE182      0.0252
     55  CG1      106.9610   13.0290   27.3050 C.3   182  ILE182      0.0019
     56  CG2      108.8800   14.5710   26.8150 C.3   182  ILE182      0.0019
     57  CD1      105.8000   13.9620   26.9150 C.3   182  ILE182      0.0001
     58  N        113.1350   16.1820   29.0080 N.3   184  GLN184     -0.1245
     59  CA       113.3270   17.5230   28.4690 C.3   184  GLN184      0.1566
     60  C        114.7410   17.9960   28.8170 C.2   184  GLN184      0.2260
     61  O        115.5870   17.2130   29.2570 O.2   184  GLN184     -0.2867
     62  CB       112.2400   18.4740   28.9930 C.3   184  GLN184      0.0367
     63  CG       110.8270   18.1550   28.4940 C.3   184  GLN184      0.0905
     64  CD       110.6340   18.4520   26.9990 C.2   184  GLN184      0.2608
     65  OE1      111.5530   18.9060   26.3130 O.2   184  GLN184     -0.2717
     66  NE2      109.4270   18.2090   26.5020 N.am  184  GLN184     -0.0878
     67  N        111.8100   14.5000   24.3810 N.3   210  GLY210     -0.1210
     68  CA       111.0810   15.6590   23.9220 C.3   210  GLY210      0.1956
     69  C        112.0080   16.7950   23.5310 C.2   210  GLY210      0.2612
     70  O        113.2220   16.7180   23.6920 O.2   210  GLY210     -0.2717
     71  N        111.4080   17.8550   22.9980 N.am  211  GLY211     -0.1942
     72  CA       112.1340   19.0920   22.7830 C.3   211  GLY211      0.2014
     73  C        113.0420   19.1080   21.5750 C.2   211  GLY211      0.2639
     74  O        113.9030   19.9870   21.4770 O.2   211  GLY211     -0.2714
     75  N        112.8790   18.1670   20.6560 N.am  212  LEU212     -0.1963
     76  CA       113.6390   18.1190   19.4100 C.3   212  LEU212      0.1728
     77  C        112.6840   18.1740   18.2160 C.2   212  LEU212      0.2616
     78  O        111.4590   18.1760   18.3640 O.2   212  LEU212     -0.2715
     79  CB       114.5140   16.8620   19.3640 C.3   212  LEU212      0.0311
     80  CG       115.6800   16.8490   20.3530 C.3   212  LEU212      0.0022
     81  CD1      116.3170   15.4700   20.4350 C.3   212  LEU212      0.0001
     82  CD2      116.7190   17.8960   19.9710 C.3   212  LEU212      0.0001
     83  N        113.2640   18.2140   17.0180 N.am  213  ALA213     -0.1963
     84  CA       112.5160   18.4460   15.7840 C.3   213  ALA213      0.1728
     85  C        111.6810   19.7210   15.8890 C.2   213  ALA213      0.2616
     86  O        110.4960   19.7540   15.5450 O.2   213  ALA213     -0.2715
     87  CB       111.6430   17.2380   15.4280 C.3   213  ALA213      0.0334
     88  N        112.3180   20.7890   16.3750 N.am  214  VAL214     -0.1977
     89  CA       111.6600   22.0830   16.5240 C.3   214  VAL214      0.1596
     90  C        112.4610   23.1580   15.8000 C.2   214  VAL214      0.2287
     91  O        112.1700   24.3520   15.9290 O.2   214  VAL214     -0.2864
     92  CB       111.4660   22.4460   18.0080 C.3   214  VAL214      0.0276
     93  CG1      110.4310   21.5250   18.6490 C.3   214  VAL214      0.0022
     94  CG2      112.7890   22.3590   18.7450 C.3   214  VAL214      0.0022
     95  N        110.0460   12.0010   19.7410 N.3   241  MET241     -0.1230
     96  CA       108.7880   12.6180   19.3360 C.3   241  MET241      0.1702
     97  C        109.0010   13.5880   18.1730 C.2   241  MET241      0.2592
     98  O        109.9090   14.4240   18.2110 O.2   241  MET241     -0.2718
     99  CB       108.1660   13.3460   20.5320 C.3   241  MET241      0.0401
    100  CG       108.0270   12.4350   21.7580 C.3   241  MET241      0.0596
    101  SD       107.1850   13.2510   23.1600 S.3   241  MET241     -0.1393
    102  CE       105.5130   13.2970   22.5080 C.3   241  MET241      0.0692
    103  N        108.1560   13.4790   17.1480 N.am  242  GLY242     -0.1957
    104  CA       108.1450   14.4460   16.0630 C.3   242  GLY242      0.1869
    105  C        109.1870   14.2420   14.9850 C.2   242  GLY242      0.2309
    106  O        109.3410   15.1120   14.1200 O.2   242  GLY242     -0.2863
@<TRIPOS>BOND
     1   106   105    2
     2   105   104    1
     3    87    84    1
     4    86    85    2
     5    84    85    1
     6    84    83    1
     7    90    91    2
     8    90    89    1
     9    85    88   am
    10   104   103    1
    11    88    89    1
    12    89    92    1
    13    83    77   am
    14   103    97   am
    15    26    25    1
    16    92    93    1
    17    92    94    1
    18    97    98    2
    19    97    96    1
    20    77    78    2
    21    77    76    1
    22    23    25   ar
    23    23    21   ar
    24    25    24   ar
    25    35    33   am
    26    96    95    1
    27    96    99    1
    28    79    76    1
    29    79    80    1
    30    76    75    1
    31    32    33    1
    32    32    31    1
    33    21    20   ar
    34    33    34    2
    35    82    80    1
    36    24    22   ar
    37    80    81    1
    38    99   100    1
    39    75    73   am
    40    31    28    1
    41    20    22   ar
    42    20    19    1
    43    28    27    1
    44    28    29    1
    45    74    73    2
    46    30    29    2
    47    73    72    1
    48     8     6   ar
    49   100   101    1
    50    19    16    1
    51    18    17    2
    52    27    17   am
    53     5     6    1
    54     5     2    1
    55    17    16    1
    56     1     2    1
    57   102   101    1
    58     6     7   ar
    59    72    71    1
    60    16    15    1
    61    71    69   am
    62     2     3    1
    63    69    70    2
    64    69    68    1
    65    68    67    1
    66     4     3    2
    67     3     9   am
    68     9    10    1
    69    49    48    1
    70    48    45    1
    71    11    10    1
    72    11    12    2
    73    10    13    1
    74    65    64    2
    75    66    64   am
    76    46    45    1
    77    46    47    2
    78    45    44    1
    79    56    54    1
    80    57    55    1
    81    14    13    1
    82    64    63    1
    83    43    41   ar
    84    55    54    1
    85    42    41   ar
    86    41    40    1
    87    54    51    1
    88    59    60    1
    89    59    62    1
    90    59    58    1
    91    51    52    1
    92    51    50    1
    93    63    62    1
    94    60    61    2
    95    52    53    2
    96    40    37    1
    97    39    38    2
    98    38    37    1
    99    36    37    1
