@<TRIPOS>MOLECULE
tmp/5jtbA11.pdb
 121 116 0 0 0
SMALL
GASTEIGER

@<TRIPOS>ATOM
      1  N         -7.4070  -19.4030   65.8760 N.3     4  PRO4       -0.2116
      2  CA        -7.3880  -18.1920   65.0370 C.3     4  PRO4        0.1372
      3  C         -8.2090  -17.0010   65.5540 C.2     4  PRO4        0.2244
      4  O         -7.7370  -15.8660   65.4570 O.2     4  PRO4       -0.2868
      5  CB        -7.9450  -18.6860   63.7010 C.3     4  PRO4        0.0268
      6  CG        -7.5210  -20.1090   63.6450 C.3     4  PRO4        0.0207
      7  CD        -7.6360  -20.6130   65.0580 C.3     4  PRO4        0.0892
      8  N         -6.3820  -14.1480   68.1290 N.3     7  GLY7       -0.1210
      9  CA        -5.5630  -13.1620   67.4220 C.3     7  GLY7        0.1956
     10  C         -6.3960  -12.3290   66.4610 C.2     7  GLY7        0.2612
     11  O         -6.1730  -11.1230   66.3220 O.2     7  GLY7       -0.2717
     12  N         -7.3540  -12.9860   65.8040 N.am    8  SER8       -0.1952
     13  CA        -8.3290  -12.3350   64.9260 C.3     8  SER8        0.1924
     14  C         -9.1160  -11.2390   65.6560 C.2     8  SER8        0.2314
     15  O         -9.2320  -10.1260   65.1380 O.2     8  SER8       -0.2863
     16  CB        -9.2690  -13.3790   64.3000 C.3     8  SER8        0.2116
     17  OG       -10.3370  -12.7910   63.5750 O.3     8  SER8       -0.2180
     18  N         -8.3140   -9.5350   68.4280 N.3    10  VAL10      -0.1231
     19  CA        -7.4170   -8.4230   68.7650 C.3    10  VAL10       0.1692
     20  C         -7.2590   -7.5020   67.5600 C.2    10  VAL10       0.2592
     21  O         -7.5240   -6.2990   67.6620 O.2    10  VAL10      -0.2718
     22  CB        -6.0480   -8.9230   69.2950 C.3    10  VAL10       0.0266
     23  CG1       -5.0230   -7.7950   69.3690 C.3    10  VAL10       0.0020
     24  CG2       -6.2210   -9.5710   70.6610 C.3    10  VAL10       0.0020
     25  N         -6.8660   -8.0900   66.4270 N.am   11  TYR11      -0.1976
     26  CA        -6.6660   -7.3720   65.1700 C.3    11  TYR11       0.1639
     27  C         -7.9070   -6.5850   64.7350 C.2    11  TYR11       0.2290
     28  O         -7.8000   -5.4020   64.4060 O.2    11  TYR11      -0.2864
     29  CB        -6.1920   -8.3290   64.0620 C.3    11  TYR11       0.0560
     30  CG        -6.3320   -7.7660   62.6640 C.ar   11  TYR11      -0.0198
     31  CD1       -5.4850   -6.7480   62.2090 C.ar   11  TYR11      -0.0009
     32  CD2       -7.3270   -8.2370   61.8010 C.ar   11  TYR11      -0.0009
     33  CE1       -5.6220   -6.2230   60.9340 C.ar   11  TYR11       0.0417
     34  CE2       -7.4730   -7.7160   60.5240 C.ar   11  TYR11       0.0417
     35  CZ        -6.6180   -6.7130   60.0960 C.ar   11  TYR11       0.1957
     36  OH        -6.7570   -6.1960   58.8320 O.3    11  TYR11      -0.2866
     37  N         -8.6660   -3.6500   67.1580 N.3    14  VAL14      -0.1245
     38  CA        -7.6610   -2.6110   66.9000 C.3    14  VAL14       0.1561
     39  C         -7.9880   -1.8290   65.6120 C.2    14  VAL14       0.2260
     40  O         -7.9290   -0.5920   65.6080 O.2    14  VAL14      -0.2867
     41  CB        -6.2130   -3.1910   66.9230 C.3    14  VAL14       0.0252
     42  CG1       -5.1860   -2.2250   66.3330 C.3    14  VAL14       0.0019
     43  CG2       -5.8120   -3.5600   68.3460 C.3    14  VAL14       0.0019
     44  N         -8.9560    2.2590   65.1100 N.3    18  ILE18      -0.1245
     45  CA        -8.2910    3.1060   64.1080 C.3    18  ILE18       0.1561
     46  C         -9.3160    3.7300   63.1520 C.2    18  ILE18       0.2260
     47  O         -9.2230    4.9230   62.8440 O.2    18  ILE18      -0.2867
     48  CB        -7.1860    2.3320   63.3340 C.3    18  ILE18       0.0252
     49  CG1       -6.0570    1.9190   64.2850 C.3    18  ILE18       0.0019
     50  CG2       -6.6070    3.1620   62.1890 C.3    18  ILE18       0.0019
     51  CD1       -5.2680    0.7080   63.8350 C.3    18  ILE18       0.0001
     52  N         -9.0450  -10.6970   55.8380 N.3    69  SER69      -0.1217
     53  CA        -8.2780  -11.4560   56.8330 C.3    69  SER69       0.1889
     54  C         -8.9000  -12.8180   57.1640 C.2    69  SER69       0.2288
     55  O         -8.1950  -13.7270   57.6070 O.2    69  SER69      -0.2866
     56  CB        -8.0700  -10.6300   58.1060 C.3    69  SER69       0.2089
     57  OG        -9.2600  -10.5430   58.8650 O.3    69  SER69      -0.2183
     58  N          2.7830  -14.1240   60.6660 N.3   348  LEU348     -0.1231
     59  CA         1.4280  -13.5790   60.6100 C.3   348  LEU348      0.1693
     60  C          1.2390  -12.3310   61.4910 C.2   348  LEU348      0.2592
     61  O          0.6170  -11.3600   61.0510 O.2   348  LEU348     -0.2718
     62  CB         0.4060  -14.6630   60.9730 C.3   348  LEU348      0.0284
     63  CG        -1.0510  -14.4710   60.5390 C.3   348  LEU348      0.0019
     64  CD1       -1.3000  -15.0860   59.1700 C.3   348  LEU348      0.0001
     65  CD2       -1.9880  -15.0880   61.5640 C.3   348  LEU348      0.0001
     66  N          1.7880  -12.3520   62.7100 N.am  349  TRP349     -0.1976
     67  CA         1.6690  -11.2140   63.6400 C.3   349  TRP349      0.1640
     68  C          2.3090   -9.9280   63.1000 C.2   349  TRP349      0.2290
     69  O          1.7450   -8.8430   63.2710 O.2   349  TRP349     -0.2864
     70  CB         2.1830  -11.5590   65.0570 C.3   349  TRP349      0.0576
     71  CG         3.6800  -11.7550   65.1860 C.ar  349  TRP349      0.0006
     72  CD1        4.3620  -12.9430   65.1290 C.ar  349  TRP349      0.0946
     73  CD2        4.6710  -10.7370   65.4030 C.ar  349  TRP349      0.0152
     74  NE1        5.7130  -12.7260   65.2900 N.ar  349  TRP349     -0.2442
     75  CE2        5.9320  -11.3840   65.4590 C.ar  349  TRP349      0.0810
     76  CE3        4.6180   -9.3380   65.5510 C.ar  349  TRP349      0.0012
     77  CZ2        7.1340  -10.6810   65.6600 C.ar  349  TRP349      0.0191
     78  CZ3        5.8190   -8.6350   65.7490 C.ar  349  TRP349      0.0001
     79  CH2        7.0590   -9.3150   65.8030 C.ar  349  TRP349      0.0015
     80  N          0.2080   -8.4220   60.1710 N.3   352  TYR352     -0.1227
     81  CA        -0.9280   -7.6490   60.6590 C.3   352  TYR352      0.1736
     82  C         -0.5430   -6.3950   61.4440 C.2   352  TYR352      0.2595
     83  O         -1.3050   -5.4240   61.4460 O.2   352  TYR352     -0.2718
     84  CB        -1.9560   -8.5360   61.3780 C.3   352  TYR352      0.0548
     85  CG        -2.7360   -9.3740   60.3880 C.ar  352  TYR352     -0.0200
     86  CD1       -3.8000   -8.8260   59.6690 C.ar  352  TYR352     -0.0009
     87  CD2       -2.3810  -10.6990   60.1270 C.ar  352  TYR352     -0.0009
     88  CE1       -4.5040   -9.5760   58.7360 C.ar  352  TYR352      0.0417
     89  CE2       -3.0800  -11.4610   59.1940 C.ar  352  TYR352      0.0417
     90  CZ        -4.1420  -10.8950   58.5030 C.ar  352  TYR352      0.1957
     91  OH        -4.8400  -11.6390   57.5790 O.3   352  TYR352     -0.2866
     92  N          0.6400   -6.3980   62.0630 N.am  353  LEU353     -0.1980
     93  CA         1.1780   -5.1870   62.6890 C.3   353  LEU353      0.1596
     94  C          1.4740   -4.1140   61.6380 C.2   353  LEU353      0.2287
     95  O          1.1640   -2.9390   61.8450 O.2   353  LEU353     -0.2864
     96  CB         2.4260   -5.4890   63.5400 C.3   353  LEU353      0.0297
     97  CG         3.1090   -4.3230   64.2880 C.3   353  LEU353      0.0022
     98  CD1        2.1950   -3.6750   65.3290 C.3   353  LEU353      0.0001
     99  CD2        4.4110   -4.7750   64.9340 C.3   353  LEU353      0.0001
    100  N         -1.8350   -2.6940   60.2880 N.3   356  VAL356     -0.1231
    101  CA        -2.3560   -1.7930   61.3240 C.3   356  VAL356      0.1692
    102  C         -1.5910   -0.4660   61.3310 C.2   356  VAL356      0.2591
    103  O         -2.2100    0.6050   61.3550 O.2   356  VAL356     -0.2718
    104  CB        -2.3750   -2.4950   62.7140 C.3   356  VAL356      0.0266
    105  CG1       -2.3240   -1.5100   63.8740 C.3   356  VAL356      0.0020
    106  CG2       -3.6030   -3.3850   62.8360 C.3   356  VAL356      0.0020
    107  N         -0.2570   -0.5440   61.2820 N.am  357  LEU357     -0.1980
    108  CA         0.5970    0.6490   61.2380 C.3   357  LEU357      0.1596
    109  C          0.3040    1.5250   60.0140 C.2   357  LEU357      0.2287
    110  O          0.2240    2.7480   60.1370 O.2   357  LEU357     -0.2864
    111  CB         2.0930    0.2860   61.3230 C.3   357  LEU357      0.0297
    112  CG         3.1530    1.4000   61.1930 C.3   357  LEU357      0.0022
    113  CD1        3.0600    2.4530   62.2970 C.3   357  LEU357      0.0001
    114  CD2        4.5590    0.8190   61.1350 C.3   357  LEU357      0.0001
    115  N         -2.9200    3.4140   60.6930 N.3   360  THR360     -0.1218
    116  CA        -2.7810    4.5270   61.6720 C.3   360  THR360      0.1862
    117  C         -2.3380    5.8510   61.0410 C.2   360  THR360      0.2287
    118  O         -2.4140    6.9020   61.6860 O.2   360  THR360     -0.2866
    119  CB        -1.8250    4.2300   62.8670 C.3   360  THR360      0.1770
    120  OG1       -0.4910    3.9960   62.3950 O.3   360  THR360     -0.2211
    121  CG2       -2.3050    3.0630   63.7140 C.3   360  THR360      0.0375
@<TRIPOS>BOND
     1    52    53    1
     2    53    54    1
     3    53    56    1
     4    54    55    2
     5    91    90    1
     6    56    57    1
     7    90    88   ar
     8    90    89   ar
     9    88    86   ar
    10    36    35    1
    11    64    63    1
    12    89    87   ar
    13    86    85   ar
    14   109   110    2
    15   109   108    1
    16    35    34   ar
    17    35    33   ar
    18    87    85   ar
    19    80    81    1
    20   100   101    1
    21    85    84    1
    22    34    32   ar
    23    63    62    1
    24    63    65    1
    25    59    58    1
    26    59    62    1
    27    59    60    1
    28    81    84    1
    29    81    82    1
    30   115   116    1
    31    33    31   ar
    32   117   116    1
    33   117   118    2
    34    61    60    2
    35   114   112    1
    36   112   111    1
    37   112   113    1
    38   108   107    1
    39   108   111    1
    40   107   102   am
    41   101   102    1
    42   101   104    1
    43   102   103    2
    44    82    83    2
    45    82    92   am
    46    60    66   am
    47    94    95    2
    48    94    93    1
    49   116   119    1
    50    32    30   ar
    51    92    93    1
    52    50    48    1
    53    31    30   ar
    54   120   119    1
    55    30    29    1
    56    93    96    1
    57    66    67    1
    58   104   106    1
    59   104   105    1
    60    47    46    2
    61   119   121    1
    62    68    69    2
    63    68    67    1
    64    46    45    1
    65    48    45    1
    66    48    49    1
    67    96    97    1
    68    17    16    1
    69    67    70    1
    70     6     5    1
    71     6     7    1
    72     5     2    1
    73    51    49    1
    74    29    26    1
    75    45    44    1
    76    97    99    1
    77    97    98    1
    78    16    13    1
    79    28    27    2
    80    27    26    1
    81    13    14    1
    82    13    12    1
    83     2     3    1
    84     2     1    1
    85    70    71    1
    86     7     1    1
    87    72    71   ar
    88    72    74   ar
    89    15    14    2
    90    26    25    1
    91    71    73   ar
    92    74    75   ar
    93    73    75   ar
    94    73    76   ar
    95     4     3    2
    96    75    77   ar
    97    76    78   ar
    98    40    39    2
    99    39    38    1
   100    77    79   ar
   101    78    79   ar
   102    12    10   am
   103    11    10    2
   104    42    41    1
   105    25    20   am
   106    10     9    1
   107    38    41    1
   108    38    37    1
   109    41    43    1
   110     9     8    1
   111    20    21    2
   112    20    19    1
   113    18    19    1
   114    19    22    1
   115    22    23    1
   116    22    24    1
