@<TRIPOS>MOLECULE
tmp/5jtcA00.pdb
 169 159 0 0 0
SMALL
GASTEIGER

@<TRIPOS>ATOM
      1  N         67.1420   21.4910   10.0160 N.3   296  TRP296     -0.1241
      2  CA        65.7480   21.5520   10.4380 C.3   296  TRP296      0.1605
      3  C         65.4470   22.9930   10.8160 C.2   296  TRP296      0.2264
      4  O         66.1100   23.5490   11.6960 O.2   296  TRP296     -0.2867
      5  CB        65.5080   20.6030   11.6190 C.3   296  TRP296      0.0550
      6  CG        64.1100   20.5750   12.1630 C.ar  296  TRP296      0.0003
      7  CD1       62.9710   21.0020   11.5450 C.ar  296  TRP296      0.0946
      8  CD2       63.7100   20.0940   13.4540 C.ar  296  TRP296      0.0152
      9  NE1       61.8840   20.8140   12.3720 N.ar  296  TRP296     -0.2442
     10  CE2       62.3130   20.2590   13.5500 C.ar  296  TRP296      0.0810
     11  CE3       64.3990   19.5400   14.5380 C.ar  296  TRP296      0.0012
     12  CZ2       61.5940   19.8890   14.6850 C.ar  296  TRP296      0.0191
     13  CZ3       63.6820   19.1730   15.6650 C.ar  296  TRP296      0.0001
     14  CH2       62.2950   19.3500   15.7290 C.ar  296  TRP296      0.0015
     15  N         62.1570   26.2100   11.0730 N.3   298  GLN298     -0.1245
     16  CA        60.7410   26.4250   11.3250 C.3   298  GLN298      0.1566
     17  C         60.3810   27.8830   11.0880 C.2   298  GLN298      0.2260
     18  O         61.1670   28.7870   11.3870 O.2   298  GLN298     -0.2867
     19  CB        60.3740   26.0200   12.7570 C.3   298  GLN298      0.0367
     20  CG        60.7320   24.5790   13.0900 C.3   298  GLN298      0.0905
     21  CD        60.6080   24.2740   14.5620 C.2   298  GLN298      0.2608
     22  OE1       61.2530   24.9100   15.3940 O.2   298  GLN298     -0.2717
     23  NE2       59.7780   23.2950   14.8940 N.am  298  GLN298     -0.0878
     24  N         53.1750   26.6830   12.8920 N.3   337  LYS337     -0.1245
     25  CA        54.4380   26.9180   12.2100 C.3   337  LYS337      0.1561
     26  C         54.6260   25.9350   11.0650 C.2   337  LYS337      0.2260
     27  O         54.1710   24.7890   11.1250 O.2   337  LYS337     -0.2867
     28  CB        55.6070   26.8040   13.1930 C.3   337  LYS337      0.0271
     29  CG        55.7290   25.4420   13.8510 C.3   337  LYS337      0.0035
     30  CD        56.6630   25.4970   15.0520 C.3   337  LYS337      0.0206
     31  CE        56.6000   24.2210   15.8720 C.3   337  LYS337      0.1093
     32  NZ        57.4300   24.3260   17.1010 N.3   337  LYS337     -0.1314
     33  N         57.4140   23.6730    9.1390 N.3   339  SER339     -0.1217
     34  CA        58.6170   22.9590    9.5490 C.3   339  SER339      0.1889
     35  C         59.2280   22.2830    8.3320 C.2   339  SER339      0.2288
     36  O         58.6040   21.4030    7.7310 O.2   339  SER339     -0.2866
     37  CB        58.3030   21.9220   10.6290 C.3   339  SER339      0.2089
     38  OG        59.4790   21.2220   11.0000 O.3   339  SER339     -0.2183
     39  N         62.4770   20.0610    6.8900 N.3   341  MET341     -0.1245
     40  CA        63.5460   19.1620    7.2880 C.3   341  MET341      0.1570
     41  C         64.1640   18.5600    6.0370 C.2   341  MET341      0.2261
     42  O         63.4480   18.1430    5.1220 O.2   341  MET341     -0.2867
     43  CB        63.0210   18.0580    8.2080 C.3   341  MET341      0.0387
     44  CG        64.1140   17.2320    8.8600 C.3   341  MET341      0.0595
     45  SD        63.4610   16.0640   10.0650 S.3   341  MET341     -0.1393
     46  CE        62.8760   17.1690   11.3470 C.3   341  MET341      0.0692
     47  N         66.2940   13.4310   14.4820 N.3   347  VAL347     -0.1245
     48  CA        65.9070   14.1370   15.6960 C.3   347  VAL347      0.1561
     49  C         65.9240   13.1350   16.8390 C.2   347  VAL347      0.2260
     50  O         65.2530   12.0980   16.7740 O.2   347  VAL347     -0.2867
     51  CB        64.5250   14.7920   15.5490 C.3   347  VAL347      0.0252
     52  CG1       64.1360   15.5210   16.8310 C.3   347  VAL347      0.0019
     53  CG2       64.5190   15.7470   14.3690 C.3   347  VAL347      0.0019
     54  N         62.5800   12.5110   22.0600 N.3   350  HIS350     -0.1241
     55  CA        62.3380   13.6210   22.9680 C.3   350  HIS350      0.1621
     56  C         60.8550   13.6940   23.2980 C.2   350  HIS350      0.2264
     57  O         60.0130   13.0650   22.6530 O.2   350  HIS350     -0.2867
     58  CB        62.8270   14.9470   22.3750 C.3   350  HIS350      0.0745
     59  CG        62.0320   15.4150   21.1970 C.ar  350  HIS350      0.0817
     60  ND1       62.1470   14.8470   19.9470 N.ar  350  HIS350     -0.2268
     61  CD2       61.1160   16.4060   21.0760 C.ar  350  HIS350      0.1154
     62  CE1       61.3320   15.4610   19.1090 C.ar  350  HIS350      0.1986
     63  NE2       60.6960   16.4130   19.7690 N.ar  350  HIS350     -0.2212
     64  N         49.2160   17.7280   18.8110 N.3   359  ARG359     -0.1245
     65  CA        50.0080   18.2330   17.6980 C.3   359  ARG359      0.1563
     66  C         49.4330   17.7160   16.3880 C.2   359  ARG359      0.2260
     67  O         49.3580   16.5010   16.1780 O.2   359  ARG359     -0.2867
     68  CB        51.4680   17.8060   17.8520 C.3   359  ARG359      0.0307
     69  CG        52.4670   18.8620   17.4300 C.3   359  ARG359      0.0489
     70  CD        53.5130   19.1420   18.5000 C.3   359  ARG359      0.2205
     71  NE        53.7520   20.5760   18.6190 N.pl3 359  ARG359     -0.0865
     72  CZ        54.9170   21.1340   18.9230 C.cat 359  ARG359      0.5346
     73  NH1       55.9940   20.3890   19.1400 N.pl3 359  ARG359      0.1354
     74  NH2       55.0060   22.4540   19.0010 N.pl3 359  ARG359      0.1354
     75  N         49.9670   17.5620   12.3210 N.3   361  HIS361     -0.1241
     76  CA        50.9350   17.6850   11.2360 C.3   361  HIS361      0.1621
     77  C         50.2070   17.5460    9.9060 C.2   361  HIS361      0.2264
     78  O         49.6490   16.4840    9.6100 O.2   361  HIS361     -0.2867
     79  CB        52.0290   16.6230   11.3450 C.3   361  HIS361      0.0745
     80  CG        53.0660   16.9180   12.3830 C.ar  361  HIS361      0.0817
     81  ND1       54.2540   16.2240   12.4610 N.ar  361  HIS361     -0.2268
     82  CD2       53.0950   17.8260   13.3870 C.ar  361  HIS361      0.1154
     83  CE1       54.9740   16.6970   13.4620 C.ar  361  HIS361      0.1986
     84  NE2       54.2930   17.6690   14.0410 N.ar  361  HIS361     -0.2212
     85  N         58.0550    9.3230   11.3380 N.3   373  ILE373     -0.1245
     86  CA        57.9830    9.8210   12.7060 C.3   373  ILE373      0.1561
     87  C         57.4740    8.6970   13.5970 C.2   373  ILE373      0.2260
     88  O         56.4560    8.0660   13.2930 O.2   373  ILE373     -0.2867
     89  CB        57.0710   11.0600   12.8180 C.3   373  ILE373      0.0252
     90  CG1       56.8120   11.4030   14.2880 C.3   373  ILE373      0.0019
     91  CG2       55.7580   10.8310   12.0780 C.3   373  ILE373      0.0019
     92  CD1       56.2650   12.7990   14.5030 C.3   373  ILE373      0.0001
     93  N         54.0340   10.8900    6.9020 N.3   382  TRP382     -0.1241
     94  CA        53.1680   11.9720    6.4750 C.3   382  TRP382      0.1605
     95  C         52.6170   11.6970    5.0810 C.2   382  TRP382      0.2264
     96  O         53.1260   10.8590    4.3340 O.2   382  TRP382     -0.2867
     97  CB        53.9290   13.2950    6.4760 C.3   382  TRP382      0.0550
     98  CG        54.4060   13.7030    7.8260 C.ar  382  TRP382      0.0003
     99  CD1       53.7020   14.3900    8.7640 C.ar  382  TRP382      0.0946
    100  CD2       55.6980   13.4480    8.3960 C.ar  382  TRP382      0.0152
    101  NE1       54.4710   14.5830    9.8820 N.ar  382  TRP382     -0.2442
    102  CE2       55.7020   14.0160    9.6840 C.ar  382  TRP382      0.0810
    103  CE3       56.8510   12.7980    7.9410 C.ar  382  TRP382      0.0012
    104  CZ2       56.8120   13.9530   10.5280 C.ar  382  TRP382      0.0191
    105  CZ3       57.9530   12.7380    8.7770 C.ar  382  TRP382      0.0001
    106  CH2       57.9260   13.3120   10.0550 C.ar  382  TRP382      0.0015
    107  N         49.1800   13.5970   17.0790 N.3   390  PHE390     -0.1241
    108  CA        49.8240   12.8220   18.1280 C.3   390  PHE390      0.1605
    109  C         50.0380   13.7060   19.3480 C.2   390  PHE390      0.2264
    110  O         50.0320   14.9380   19.2620 O.2   390  PHE390     -0.2867
    111  CB        51.1590   12.2310   17.6550 C.3   390  PHE390      0.0534
    112  CG        52.2240   13.2580   17.3980 C.ar  390  PHE390     -0.0203
    113  CD1       52.2720   13.9430   16.1950 C.ar  390  PHE390     -0.0042
    114  CD2       53.1840   13.5310   18.3560 C.ar  390  PHE390     -0.0042
    115  CE1       53.2520   14.8870   15.9570 C.ar  390  PHE390     -0.0003
    116  CE2       54.1680   14.4730   18.1220 C.ar  390  PHE390     -0.0003
    117  CZ        54.2020   15.1500   16.9210 C.ar  390  PHE390     -0.0000
    118  N         52.5850   14.9170   21.7580 N.3   392  ASP392     -0.1239
    119  CA        54.0390   15.0070   21.7950 C.3   392  ASP392      0.1674
    120  C         54.5980   14.9670   23.2130 C.2   392  ASP392      0.2266
    121  O         55.8230   14.9960   23.3760 O.2   392  ASP392     -0.2867
    122  CB        54.5180   16.2720   21.0600 C.3   392  ASP392      0.1410
    123  CG        54.4520   17.5250   21.9150 C.2   392  ASP392      0.3668
    124  OD1       53.4500   17.7210   22.6340 O.co2 392  ASP392     -0.2456
    125  OD2       55.4110   18.3230   21.8550 O.co2 392  ASP392     -0.2456
    126  N         58.9080   10.8170   21.1530 N.3   396  HIS396     -0.1241
    127  CA        58.7820   10.6710   19.7130 C.3   396  HIS396      0.1621
    128  C         60.1140   10.9910   19.0510 C.2   396  HIS396      0.2264
    129  O         60.9730   11.6700   19.6210 O.2   396  HIS396     -0.2867
    130  CB        57.6570   11.5520   19.1470 C.3   396  HIS396      0.0745
    131  CG        57.7860   13.0040   19.4870 C.ar  396  HIS396      0.0817
    132  ND1       57.5620   13.4950   20.7550 N.ar  396  HIS396     -0.2268
    133  CD2       58.0920   14.0750   18.7180 C.ar  396  HIS396      0.1154
    134  CE1       57.7410   14.8040   20.7560 C.ar  396  HIS396      0.1986
    135  NE2       58.0580   15.1820   19.5310 N.ar  396  HIS396     -0.2212
    136  N         62.1340   11.3480   14.9130 N.3   398  VAL398     -0.1245
    137  CA        61.9180   11.6810   13.5080 C.3   398  VAL398      0.1561
    138  C         63.2000   11.4440   12.7220 C.2   398  VAL398      0.2260
    139  O         64.3030   11.7210   13.2060 O.2   398  VAL398     -0.2867
    140  CB        61.4370   13.1390   13.3470 C.3   398  VAL398      0.0252
    141  CG1       61.4250   13.5580   11.8800 C.3   398  VAL398      0.0019
    142  CG2       60.0500   13.2950   13.9480 C.3   398  VAL398      0.0019
    143  N         61.5010   18.0190    2.9950 N.3   406  ARG406     -0.1245
    144  CA        60.1780   17.6510    3.4860 C.3   406  ARG406      0.1563
    145  C         59.6010   18.8390    4.2420 C.2   406  ARG406      0.2260
    146  O         60.2130   19.3260    5.1990 O.2   406  ARG406     -0.2867
    147  CB        60.2510   16.4210    4.3920 C.3   406  ARG406      0.0307
    148  CG        58.9160   15.9940    4.9860 C.3   406  ARG406      0.0489
    149  CD        59.0010   15.8840    6.4990 C.3   406  ARG406      0.2205
    150  NE        59.2320   17.1800    7.1320 N.pl3 406  ARG406     -0.0865
    151  CZ        59.3470   17.3620    8.4430 C.cat 406  ARG406      0.5346
    152  NH1       59.2510   16.3310    9.2720 N.pl3 406  ARG406      0.1354
    153  NH2       59.5530   18.5790    8.9290 N.pl3 406  ARG406      0.1354
    154  N         56.1940   20.3770    6.2630 N.3   408  ILE408     -0.1245
    155  CA        54.9270   20.1090    6.9270 C.3   408  ILE408      0.1561
    156  C         54.4580   21.3810    7.6190 C.2   408  ILE408      0.2260
    157  O         55.2220   22.3270    7.8260 O.2   408  ILE408     -0.2867
    158  CB        55.0180   18.9460    7.9430 C.3   408  ILE408      0.0252
    159  CG1       55.9660   19.2950    9.0960 C.3   408  ILE408      0.0019
    160  CG2       55.4710   17.6670    7.2450 C.3   408  ILE408      0.0019
    161  CD1       55.9120   18.3170   10.2540 C.3   408  ILE408      0.0001
    162  N         52.4870   22.5910   11.1400 N.3   410  ILE410     -0.1245
    163  CA        52.2680   22.0990   12.4990 C.3   410  ILE410      0.1561
    164  C         51.2860   23.0300   13.1960 C.2   410  ILE410      0.2260
    165  O         51.5360   24.2360   13.3090 O.2   410  ILE410     -0.2867
    166  CB        53.5840   22.0000   13.2860 C.3   410  ILE410      0.0252
    167  CG1       54.5880   21.1270   12.5230 C.3   410  ILE410      0.0019
    168  CG2       53.3180   21.4360   14.6850 C.3   410  ILE410      0.0019
    169  CD1       55.9270   20.9530   13.2130 C.3   410  ILE410      0.0001
@<TRIPOS>BOND
     1   143   144    1
     2   144   145    1
     3   144   147    1
     4   145   146    2
     5    96    95    2
     6   147   148    1
     7   148   149    1
     8    95    94    1
     9    42    41    2
    10    41    40    1
    11   154   155    1
    12    94    97    1
    13    94    93    1
    14    97    98    1
    15   149   150    1
    16    39    40    1
    17   155   156    1
    18   155   158    1
    19   150   151    2
    20   160   158    1
    21    40    43    1
    22   156   157    2
    23    36    35    2
    24    98   100   ar
    25    98    99   ar
    26   103   100   ar
    27   103   105   ar
    28   158   159    1
    29    43    44    1
    30    35    34    1
    31   100   102   ar
    32   151   153    1
    33   151   152    1
    34    99   101   ar
    35   105   106   ar
    36    44    45    1
    37   159   161    1
    38    33    34    1
    39    34    37    1
    40    78    77    2
    41   102   101   ar
    42   102   104   ar
    43    77    76    1
    44     1     2    1
    45   106   104   ar
    46    45    46    1
    47     2     3    1
    48     2     5    1
    49    37    38    1
    50     3     4    2
    51    26    27    2
    52    26    25    1
    53    15    16    1
    54    17    16    1
    55    17    18    2
    56   162   163    1
    57    76    79    1
    58    76    75    1
    59    16    19    1
    60    85    86    1
    61    79    80    1
    62     7     6   ar
    63     7     9   ar
    64     5     6    1
    65   141   140    1
    66    91    89    1
    67     6     8   ar
    68    25    24    1
    69    25    28    1
    70     9    10   ar
    71    80    81   ar
    72    80    82   ar
    73    81    83   ar
    74   163   164    1
    75   163   166    1
    76   167   169    1
    77   167   166    1
    78    86    89    1
    79    86    87    1
    80   138   139    2
    81   138   137    1
    82    19    20    1
    83    89    90    1
    84    20    21    1
    85    28    29    1
    86   164   165    2
    87   166   168    1
    88    88    87    2
    89   140   137    1
    90   140   142    1
    91    82    84   ar
    92     8    10   ar
    93     8    11   ar
    94    83    84   ar
    95   137   136    1
    96    10    12   ar
    97    29    30    1
    98    90    92    1
    99    53    51    1
   100    47    48    1
   101    11    13   ar
   102    21    23   am
   103    21    22    2
   104    12    14   ar
   105    30    31    1
   106    51    48    1
   107    51    52    1
   108    13    14   ar
   109    48    49    1
   110    31    32    1
   111   115   113   ar
   112   115   117   ar
   113    67    66    2
   114   113   112   ar
   115    66    65    1
   116    50    49    2
   117   117   116   ar
   118   107   108    1
   119   112   111    1
   120   112   114   ar
   121    69    68    1
   122    69    70    1
   123   111   108    1
   124    65    68    1
   125    65    64    1
   126   116   114   ar
   127   108   109    1
   128    70    71    1
   129    71    72    2
   130   133   131   ar
   131   133   135   ar
   132    72    74    1
   133    72    73    1
   134   128   129    2
   135   128   127    1
   136    62    63   ar
   137    62    60   ar
   138   130   131    1
   139   130   127    1
   140   110   109    2
   141   131   132   ar
   142   135   134   ar
   143   127   126    1
   144    63    61   ar
   145    60    59   ar
   146   132   134   ar
   147   122   119    1
   148   122   123    1
   149    61    59   ar
   150    59    58    1
   151   118   119    1
   152   119   120    1
   153   125   123   ar
   154   123   124   ar
   155    54    55    1
   156    58    55    1
   157    57    56    2
   158    55    56    1
   159   120   121    2
