@<TRIPOS>MOLECULE
tmp/5jtuA01.pdb
 238 228 0 0 0
SMALL
GASTEIGER

@<TRIPOS>ATOM
      1  N         33.0100   20.2200   39.3740 N.3    77  GLU77      -0.1245
      2  CA        31.7130   20.7470   38.9440 C.3    77  GLU77       0.1567
      3  C         30.7580   19.6170   38.6140 C.2    77  GLU77       0.2260
      4  O         31.1280   18.6790   37.9190 O.2    77  GLU77      -0.2867
      5  CB        31.8620   21.6660   37.7100 C.3    77  GLU77       0.0388
      6  CG        32.7150   22.9030   37.9640 C.3    77  GLU77       0.1160
      7  CD        32.6660   23.9510   36.8510 C.2    77  GLU77       0.3649
      8  OE1       33.5700   24.8110   36.8230 O.co2  77  GLU77      -0.2457
      9  OE2       31.7420   23.9480   36.0130 O.co2  77  GLU77      -0.2457
     10  N         29.4530   25.6320   35.9710 N.3   122  ASN122     -0.1240
     11  CA        29.4390   26.8380   35.1790 C.3   122  ASN122      0.1653
     12  C         28.6190   26.6920   33.8950 C.2   122  ASN122      0.2266
     13  O         28.0840   27.6500   33.4070 O.2   122  ASN122     -0.2867
     14  CB        30.8780   27.2270   34.8280 C.3   122  ASN122      0.1155
     15  CG        31.5110   28.0750   35.8970 C.2   122  ASN122      0.2627
     16  OD1       31.1740   29.2580   36.0540 O.2   122  ASN122     -0.2716
     17  ND2       32.3680   27.4810   36.6710 N.am  122  ASN122     -0.0877
     18  N         28.8190   23.7700   30.3160 N.3   124  GLY124     -0.1210
     19  CA        28.9930   22.4740   29.6510 C.3   124  GLY124      0.1956
     20  C         29.7740   21.3990   30.3590 C.2   124  GLY124      0.2611
     21  O         29.4220   20.2200   30.3400 O.2   124  GLY124     -0.2717
     22  N         30.8590   21.7750   31.0100 N.am  125  LEU125     -0.1979
     23  CA        31.7410   20.7840   31.6260 C.3   125  LEU125      0.1596
     24  C         31.0760   20.1850   32.8520 C.2   125  LEU125      0.2287
     25  O         31.1260   18.9550   33.0730 O.2   125  LEU125     -0.2864
     26  CB        33.1060   21.4300   31.9730 C.3   125  LEU125      0.0297
     27  CG        34.0770   20.5640   32.7650 C.3   125  LEU125      0.0022
     28  CD1       35.5140   20.8640   32.4160 C.3   125  LEU125      0.0001
     29  CD2       33.8940   20.8310   34.2280 C.3   125  LEU125      0.0001
     30  N         28.1080   18.0520   31.6490 N.3   128  LEU128     -0.1245
     31  CA        28.5910   16.7790   31.1400 C.3   128  LEU128      0.1561
     32  C         28.7780   15.7540   32.2530 C.2   128  LEU128      0.2260
     33  O         28.4180   14.6080   32.1050 O.2   128  LEU128     -0.2867
     34  CB        29.9050   16.9460   30.3650 C.3   128  LEU128      0.0270
     35  CG        30.3790   15.6890   29.6190 C.3   128  LEU128      0.0019
     36  CD1       29.5630   15.4180   28.3560 C.3   128  LEU128      0.0001
     37  CD2       31.8440   15.8590   29.2870 C.3   128  LEU128      0.0001
     38  N         33.9400   28.9330   41.9160 N.3   263  TYR263     -0.1241
     39  CA        34.5260   29.9100   41.0160 C.3   263  TYR263      0.1605
     40  C         33.6620   29.9560   39.7410 C.2   263  TYR263      0.2264
     41  O         33.3680   28.9280   39.1680 O.2   263  TYR263     -0.2867
     42  CB        35.9910   29.5970   40.6990 C.3   263  TYR263      0.0534
     43  CG        36.9120   30.1820   41.7390 C.ar  263  TYR263     -0.0201
     44  CD1       37.1610   29.5110   42.9390 C.ar  263  TYR263     -0.0009
     45  CD2       37.5100   31.4160   41.5410 C.ar  263  TYR263     -0.0009
     46  CE1       37.9650   30.0550   43.9160 C.ar  263  TYR263      0.0417
     47  CE2       38.3550   31.9610   42.5150 C.ar  263  TYR263      0.0417
     48  CZ        38.5670   31.2770   43.6960 C.ar  263  TYR263      0.1957
     49  OH        39.3940   31.8130   44.6610 O.3   263  TYR263     -0.2866
     50  N         33.9690   31.1600   36.5690 N.3   265  ASN265     -0.1225
     51  CA        34.6020   31.3600   35.2630 C.3   265  ASN265      0.1785
     52  C         34.4640   30.1130   34.3920 C.2   265  ASN265      0.2597
     53  O         34.8570   29.0120   34.7870 O.2   265  ASN265     -0.2718
     54  CB        36.1040   31.6270   35.4400 C.3   265  ASN265      0.1169
     55  CG        36.3780   32.7720   36.3780 C.2   265  ASN265      0.2627
     56  OD1       35.6610   33.7870   36.3670 O.2   265  ASN265     -0.2716
     57  ND2       37.3840   32.6080   37.2320 N.am  265  ASN265     -0.0877
     58  N         33.9340   30.3030   33.2020 N.am  266  ASP266     -0.1960
     59  CA        33.8340   29.2390   32.2250 C.3   266  ASP266      0.1840
     60  C         35.0130   29.3760   31.2600 C.2   266  ASP266      0.2622
     61  O         35.2400   30.4350   30.6930 O.2   266  ASP266     -0.2715
     62  CB        32.4980   29.3680   31.4970 C.3   266  ASP266      0.1450
     63  CG        32.2450   28.2040   30.5360 C.2   266  ASP266      0.3671
     64  OD1       32.7860   28.2150   29.4110 O.co2 266  ASP266     -0.2456
     65  OD2       31.5270   27.2800   30.9030 O.co2 266  ASP266     -0.2456
     66  N         35.7830   28.3130   31.0760 N.am  267  ASN267     -0.1958
     67  CA        36.9140   28.3720   30.1300 C.3   267  ASN267      0.1819
     68  C         37.8800   29.5130   30.3860 C.2   267  ASN267      0.2621
     69  O         38.3330   30.1720   29.4630 O.2   267  ASN267     -0.2715
     70  CB        36.3990   28.4730   28.6970 C.3   267  ASN267      0.1195
     71  CG        36.7630   27.2670   27.8890 C.2   267  ASN267      0.2630
     72  OD1       37.9090   26.8380   27.8980 O.2   267  ASN267     -0.2716
     73  ND2       35.7840   26.6630   27.2620 N.am  267  ASN267     -0.0877
     74  N         38.2040   29.7330   31.6460 N.am  268  PHE268     -0.1960
     75  CA        39.1840   30.7480   32.0030 C.3   268  PHE268      0.1771
     76  C         39.8670   30.3620   33.3050 C.2   268  PHE268      0.2620
     77  O         39.1970   30.1220   34.3140 O.2   268  PHE268     -0.2715
     78  CB        38.5230   32.1060   32.1360 C.3   268  PHE268      0.0574
     79  CG        39.4740   33.2300   32.4680 C.ar  268  PHE268     -0.0200
     80  CD1       40.3160   33.7550   31.4940 C.ar  268  PHE268     -0.0042
     81  CD2       39.4990   33.7910   33.7390 C.ar  268  PHE268     -0.0042
     82  CE1       41.1670   34.8110   31.7880 C.ar  268  PHE268     -0.0003
     83  CE2       40.3590   34.8420   34.0350 C.ar  268  PHE268     -0.0003
     84  CZ        41.1920   35.3530   33.0590 C.ar  268  PHE268     -0.0000
     85  N         41.1960   30.3150   33.2830 N.am  269  PHE269     -0.1960
     86  CA        41.9420   30.0010   34.4750 C.3   269  PHE269      0.1771
     87  C         42.2810   31.2530   35.2930 C.2   269  PHE269      0.2619
     88  O         42.8290   32.2350   34.7750 O.2   269  PHE269     -0.2715
     89  CB        43.2130   29.2550   34.0890 C.3   269  PHE269      0.0574
     90  CG        44.1590   29.0360   35.2250 C.ar  269  PHE269     -0.0200
     91  CD1       43.8140   28.2240   36.2800 C.ar  269  PHE269     -0.0042
     92  CD2       45.4420   29.6140   35.2050 C.ar  269  PHE269     -0.0042
     93  CE1       44.6950   28.0130   37.3240 C.ar  269  PHE269     -0.0003
     94  CE2       46.3220   29.3900   36.2520 C.ar  269  PHE269     -0.0003
     95  CZ        45.9580   28.5900   37.2940 C.ar  269  PHE269     -0.0000
     96  N         41.9600   31.1820   36.5760 N.am  270  GLU270     -0.1977
     97  CA        42.3050   32.2110   37.5530 C.3   270  GLU270      0.1602
     98  C         43.1290   31.5480   38.6490 C.2   270  GLU270      0.2287
     99  O         42.6120   30.7360   39.4110 O.2   270  GLU270     -0.2864
    100  CB        41.0120   32.8140   38.1020 C.3   270  GLU270      0.0415
    101  CG        41.2130   34.0500   38.9420 C.3   270  GLU270      0.1163
    102  CD        39.9090   34.6150   39.4740 C.2   270  GLU270      0.3649
    103  OE1       39.9790   35.5460   40.3110 O.co2 270  GLU270     -0.2457
    104  OE2       38.8180   34.1330   39.0720 O.co2 270  GLU270     -0.2457
    105  N         41.3230   28.6260   45.1190 N.3   275  ARG275     -0.1245
    106  CA        40.9880   27.6110   44.1000 C.3   275  ARG275      0.1563
    107  C         41.9020   26.4080   44.1840 C.2   275  ARG275      0.2260
    108  O         41.4630   25.2950   44.0350 O.2   275  ARG275     -0.2867
    109  CB        41.0460   28.2380   42.7170 C.3   275  ARG275      0.0307
    110  CG        40.9360   27.2460   41.5870 C.3   275  ARG275      0.0489
    111  CD        39.5590   26.6130   41.5120 C.3   275  ARG275      0.2205
    112  NE        39.4880   25.8170   40.2830 N.pl3 275  ARG275     -0.0865
    113  CZ        38.3720   25.3510   39.7310 C.cat 275  ARG275      0.5346
    114  NH1       37.1880   25.6080   40.2810 N.pl3 275  ARG275      0.1354
    115  NH2       38.4430   24.6890   38.5710 N.pl3 275  ARG275      0.1354
    116  N         39.0430   17.1610   33.1540 N.3   313  ASP313     -0.1239
    117  CA        40.0270   18.2080   32.8940 C.3   313  ASP313      0.1674
    118  C         41.1830   18.1310   33.9210 C.2   313  ASP313      0.2266
    119  O         41.3150   17.1390   34.6010 O.2   313  ASP313     -0.2867
    120  CB        39.4150   19.6120   32.7490 C.3   313  ASP313      0.1410
    121  CG        40.1530   20.4430   31.7020 C.2   313  ASP313      0.3668
    122  OD1       39.8750   20.3460   30.4950 O.co2 313  ASP313     -0.2456
    123  OD2       41.1550   21.0960   32.0780 O.co2 313  ASP313     -0.2456
    124  N         41.5180   19.9760   36.5470 N.3   315  HIS315     -0.1241
    125  CA        41.1880   20.5770   37.8380 C.3   315  HIS315      0.1621
    126  C         41.4680   19.6110   39.0340 C.2   315  HIS315      0.2264
    127  O         41.8630   20.0650   40.1170 O.2   315  HIS315     -0.2867
    128  CB        39.7370   21.1400   37.8130 C.3   315  HIS315      0.0745
    129  CG        39.3920   21.9070   36.5640 C.ar  315  HIS315      0.0817
    130  ND1       38.0980   22.0470   36.1090 N.ar  315  HIS315     -0.2268
    131  CD2       40.1740   22.5520   35.6560 C.ar  315  HIS315      0.1154
    132  CE1       38.0890   22.7590   34.9960 C.ar  315  HIS315      0.1986
    133  NE2       39.3420   23.0800   34.6980 N.ar  315  HIS315     -0.2212
    134  N         39.1930   19.2540   27.8120 N.3   351  HIS351     -0.1226
    135  CA        37.9850   19.9070   27.3120 C.3   351  HIS351      0.1752
    136  C         38.2350   21.2500   26.6540 C.2   351  HIS351      0.2596
    137  O         37.3000   21.9130   26.3280 O.2   351  HIS351     -0.2718
    138  CB        36.9330   20.1160   28.4250 C.3   351  HIS351      0.0759
    139  CG        36.5530   18.8730   29.1580 C.ar  351  HIS351      0.0818
    140  ND1       35.3450   18.2410   28.9730 N.ar  351  HIS351     -0.2268
    141  CD2       37.2000   18.1770   30.1230 C.ar  351  HIS351      0.1154
    142  CE1       35.2850   17.1840   29.7600 C.ar  351  HIS351      0.1986
    143  NE2       36.3870   17.1370   30.4840 N.ar  351  HIS351     -0.2212
    144  N         39.4810   21.6610   26.4460 N.am  352  THR352     -0.1953
    145  CA        39.7130   22.9770   25.8440 C.3   352  THR352      0.1897
    146  C         41.1070   23.0980   25.2420 C.2   352  THR352      0.2313
    147  O         42.0420   22.4640   25.7070 O.2   352  THR352     -0.2863
    148  CB        39.4970   24.1300   26.8590 C.3   352  THR352      0.1794
    149  OG1       39.4490   25.4020   26.1800 O.3   352  THR352     -0.2208
    150  CG2       40.5840   24.1230   27.9750 C.3   352  THR352      0.0378
    151  N         42.5320   29.1690   29.2860 N.3   357  ALA357     -0.1245
    152  CA        41.7680   28.2020   30.0920 C.3   357  ALA357      0.1562
    153  C         42.6600   27.1190   30.7000 C.2   357  ALA357      0.2260
    154  O         42.2190   26.3310   31.5490 O.2   357  ALA357     -0.2867
    155  CB        40.6890   27.5470   29.2470 C.3   357  ALA357      0.0290
    156  N         45.4540   25.3340   32.9240 N.3   359  GLU359     -0.1245
    157  CA        45.9280   25.5520   34.2790 C.3   359  GLU359      0.1567
    158  C         47.4640   25.5220   34.3340 C.2   359  GLU359      0.2260
    159  O         48.0800   24.5140   34.0470 O.2   359  GLU359     -0.2867
    160  CB        45.3870   24.5060   35.2420 C.3   359  GLU359      0.0388
    161  CG        43.8800   24.6020   35.4810 C.3   359  GLU359      0.1160
    162  CD        43.4890   23.8280   36.7050 C.2   359  GLU359      0.3649
    163  OE1       43.5540   22.5800   36.6720 O.co2 359  GLU359     -0.2457
    164  OE2       43.2070   24.4720   37.7350 O.co2 359  GLU359     -0.2457
    165  N         37.0820   15.4610   23.2680 N.3   429  VAL429     -0.1245
    166  CA        35.6300   15.3440   23.5130 C.3   429  VAL429      0.1561
    167  C         34.7880   15.4490   22.2550 C.2   429  VAL429      0.2260
    168  O         33.5800   15.4880   22.3280 O.2   429  VAL429     -0.2867
    169  CB        35.1790   16.3150   24.6120 C.3   429  VAL429      0.0252
    170  CG1       35.7270   15.8170   25.9440 C.3   429  VAL429      0.0019
    171  CG2       35.6090   17.7560   24.3290 C.3   429  VAL429      0.0019
    172  N         31.3600   13.6400   23.0240 N.3   458  ASN458     -0.1240
    173  CA        30.4190   13.9120   24.1020 C.3   458  ASN458      0.1653
    174  C         28.9990   13.4910   23.7330 C.2   458  ASN458      0.2266
    175  O         28.6840   13.2020   22.5770 O.2   458  ASN458     -0.2867
    176  CB        30.4270   15.4170   24.4400 C.3   458  ASN458      0.1155
    177  CG        31.5970   15.8190   25.3700 C.2   458  ASN458      0.2627
    178  OD1       32.2760   14.9660   25.9650 O.2   458  ASN458     -0.2716
    179  ND2       31.7880   17.1380   25.5310 N.am  458  ASN458     -0.0877
    180  N         34.6630   33.7520   22.1820 N.3   547  TYR547     -0.1227
    181  CA        34.7990   32.6680   21.2330 C.3   547  TYR547      0.1736
    182  C         33.4790   32.0950   20.7470 C.2   547  TYR547      0.2595
    183  O         33.4010   31.6090   19.6140 O.2   547  TYR547     -0.2718
    184  CB        35.7230   31.5650   21.7440 C.3   547  TYR547      0.0548
    185  CG        35.1090   30.4600   22.5540 C.ar  547  TYR547     -0.0200
    186  CD1       34.5960   29.3210   21.9460 C.ar  547  TYR547     -0.0009
    187  CD2       35.1340   30.5020   23.9320 C.ar  547  TYR547     -0.0009
    188  CE1       34.1220   28.2810   22.6960 C.ar  547  TYR547      0.0417
    189  CE2       34.6230   29.4810   24.6960 C.ar  547  TYR547      0.0417
    190  CZ        34.1370   28.3600   24.0890 C.ar  547  TYR547      0.1957
    191  OH        33.6320   27.3300   24.8820 O.3   547  TYR547     -0.2866
    192  N         32.4590   32.1360   21.5920 N.am  548  LYS548     -0.1980
    193  CA        31.1060   31.6590   21.2040 C.3   548  LYS548      0.1596
    194  C         30.3720   32.6240   20.2570 C.2   548  LYS548      0.2287
    195  O         29.3390   32.2730   19.6410 O.2   548  LYS548     -0.2864
    196  CB        30.2750   31.3850   22.4430 C.3   548  LYS548      0.0298
    197  CG        30.8070   30.1820   23.2300 C.3   548  LYS548      0.0038
    198  CD        29.9880   29.8940   24.4780 C.3   548  LYS548      0.0206
    199  CE        30.6340   28.9240   25.4650 C.3   548  LYS548      0.1093
    200  NZ        30.4730   27.4580   25.1340 N.3   548  LYS548     -0.1314
    201  N         37.5000   26.3170   18.2470 N.3   645  THR645     -0.1203
    202  CA        37.4390   26.9020   19.5930 C.3   645  THR645      0.1994
    203  C         36.5010   26.1780   20.5490 C.2   645  THR645      0.2618
    204  O         36.7750   26.1010   21.7330 O.2   645  THR645     -0.2717
    205  CB        37.1160   28.3970   19.5560 C.3   645  THR645      0.1784
    206  OG1       35.8020   28.6390   19.0270 O.3   645  THR645     -0.2211
    207  CG2       38.1560   29.1260   18.6990 C.3   645  THR645      0.0376
    208  N         35.3910   25.6450   20.0470 N.am  646  GLU646     -0.1965
    209  CA        34.4630   24.8890   20.8880 C.3   646  GLU646      0.1733
    210  C         34.8610   23.4420   20.8080 C.2   646  GLU646      0.2616
    211  O         34.7010   22.8250   19.7660 O.2   646  GLU646     -0.2715
    212  CB        33.0160   25.0980   20.3960 C.3   646  GLU646      0.0429
    213  CG        31.9250   24.6110   21.3630 C.3   646  GLU646      0.1163
    214  CD        31.7820   25.5290   22.5650 C.2   646  GLU646      0.3649
    215  OE1       32.4800   25.2830   23.5790 O.co2 646  GLU646     -0.2457
    216  OE2       31.0240   26.5370   22.4980 O.co2 646  GLU646     -0.2457
    217  N         35.4310   22.9040   21.8930 N.am  647  ALA647     -0.1963
    218  CA        35.9590   21.5310   21.9020 C.3   647  ALA647      0.1728
    219  C         34.8890   20.5340   21.4440 C.2   647  ALA647      0.2617
    220  O         35.1440   19.7130   20.5750 O.2   647  ALA647     -0.2715
    221  CB        36.4800   21.1590   23.2740 C.3   647  ALA647      0.0334
    222  N         33.6820   20.6560   21.9860 N.am  648  SER648     -0.1936
    223  CA        32.5630   19.8460   21.5300 C.3   648  SER648      0.2055
    224  C         31.2800   20.6690   21.4160 C.2   648  SER648      0.2644
    225  O         30.6740   20.7700   20.3420 O.2   648  SER648     -0.2714
    226  CB        32.3400   18.6830   22.4950 C.3   648  SER648      0.2130
    227  OG        31.2070   17.9320   22.1430 O.3   648  SER648     -0.2179
    228  N         30.8630   21.2480   22.5290 N.am  649  GLY649     -0.1939
    229  CA        29.4980   21.7340   22.6660 C.3   649  GLY649      0.2014
    230  C         28.6110   20.5590   23.0490 C.2   649  GLY649      0.2639
    231  O         28.8710   19.4000   22.6670 O.2   649  GLY649     -0.2714
    232  N         27.5940   20.8520   23.8460 N.am  650  THR650     -0.1950
    233  CA        26.5570   19.9010   24.2100 C.3   650  THR650      0.1897
    234  C         25.1720   20.5070   24.0900 C.2   650  THR650      0.2313
    235  O         24.2220   19.7690   23.8030 O.2   650  THR650     -0.2863
    236  CB        26.7330   19.3440   25.6300 C.3   650  THR650      0.1794
    237  OG1       26.8630   20.4120   26.5520 O.3   650  THR650     -0.2208
    238  CG2       27.9540   18.5050   25.7090 C.3   650  THR650      0.0378
@<TRIPOS>BOND
     1   201   202    1
     2   207   205    1
     3   206   205    1
     4   205   202    1
     5   202   203    1
     6   183   182    2
     7   195   194    2
     8   211   210    2
     9   208   203   am
    10   208   209    1
    11   194   193    1
    12   225   224    2
    13   212   209    1
    14   212   213    1
    15   203   204    2
    16   220   219    2
    17   182   181    1
    18   182   192   am
    19   210   209    1
    20   210   217   am
    21   193   192    1
    22   193   196    1
    23   181   184    1
    24   181   180    1
    25   213   214    1
    26   224   223    1
    27   224   228   am
    28   219   218    1
    29   219   222   am
    30   223   222    1
    31   223   226    1
    32   184   185    1
    33   217   218    1
    34   218   221    1
    35   186   185   ar
    36   186   188   ar
    37   227   226    1
    38   167   168    2
    39   167   166    1
    40   196   197    1
    41   216   214   ar
    42   228   229    1
    43   185   187   ar
    44   214   215   ar
    45   175   174    2
    46   229   230    1
    47   231   230    2
    48   188   190   ar
    49   172   173    1
    50   230   232   am
    51   197   198    1
    52   165   166    1
    53   166   169    1
    54   174   173    1
    55   235   234    2
    56   232   233    1
    57   187   189   ar
    58   190   189   ar
    59   190   191    1
    60   234   233    1
    61   173   176    1
    62   233   236    1
    63   171   169    1
    64   176   177    1
    65   198   199    1
    66   169   170    1
    67   200   199    1
    68   146   147    2
    69   146   145    1
    70   177   179   am
    71   177   178    2
    72   236   238    1
    73   236   237    1
    74   145   144    1
    75   145   148    1
    76   149   148    1
    77   137   136    2
    78   144   136   am
    79   136   135    1
    80   148   150    1
    81    73    71   am
    82   135   134    1
    83   135   138    1
    84    71    72    2
    85    71    70    1
    86    36    35    1
    87   138   139    1
    88    70    67    1
    89   140   139   ar
    90   140   142   ar
    91   139   141   ar
    92   155   152    1
    93   151   152    1
    94    37    35    1
    95    64    63   ar
    96    69    68    2
    97    35    34    1
    98    19    18    1
    99    19    20    1
   100   142   143   ar
   101   152   153    1
   102   141   143   ar
   103    67    68    1
   104    67    66    1
   105    21    20    2
   106    20    22   am
   107    34    31    1
   108    68    74   am
   109   122   121   ar
   110    63    65   ar
   111    63    62    1
   112    61    60    2
   113   153   154    2
   114    22    23    1
   115    66    60   am
   116    31    30    1
   117    31    32    1
   118    60    59    1
   119    80    82   ar
   120    80    79   ar
   121    62    59    1
   122    23    26    1
   123    23    24    1
   124    74    75    1
   125   121   123   ar
   126   121   120    1
   127    82    84   ar
   128    26    27    1
   129    75    78    1
   130    75    76    1
   131    33    32    2
   132    78    79    1
   133    59    58    1
   134    28    27    1
   135    79    81   ar
   136   120   117    1
   137    27    29    1
   138    24    25    2
   139   117   116    1
   140   117   118    1
   141   156   157    1
   142    84    83   ar
   143    58    52   am
   144    85    76   am
   145    85    86    1
   146    76    77    2
   147    13    12    2
   148    81    83   ar
   149    12    11    1
   150   118   119    2
   151   159   158    2
   152    89    86    1
   153    89    90    1
   154   157   158    1
   155   157   160    1
   156    52    53    2
   157    52    51    1
   158    86    87    1
   159   133   132   ar
   160   133   131   ar
   161    88    87    2
   162    14    11    1
   163    14    15    1
   164   132   130   ar
   165    11    10    1
   166    92    90   ar
   167    92    94   ar
   168    90    91   ar
   169   160   161    1
   170    51    54    1
   171    51    50    1
   172    87    96   am
   173    54    55    1
   174   161   162    1
   175   131   129   ar
   176    15    16    2
   177    15    17   am
   178     9     7   ar
   179   130   129   ar
   180    94    95   ar
   181    91    93   ar
   182    56    55    2
   183    55    57   am
   184   124   125    1
   185   129   128    1
   186    96    97    1
   187   163   162   ar
   188   162   164   ar
   189     8     7   ar
   190     7     6    1
   191    95    93   ar
   192    97   100    1
   193    97    98    1
   194     5     6    1
   195     5     2    1
   196   128   125    1
   197   125   126    1
   198     4     3    2
   199   100   101    1
   200   115   113    1
   201     3     2    1
   202    98    99    2
   203   101   102    1
   204     2     1    1
   205   126   127    2
   206   104   102   ar
   207    41    40    2
   208   102   103   ar
   209   113   114    1
   210   113   112    2
   211    40    39    1
   212   112   111    1
   213    42    39    1
   214    42    43    1
   215    39    38    1
   216   111   110    1
   217    45    43   ar
   218    45    47   ar
   219   110   109    1
   220    43    44   ar
   221    47    48   ar
   222   109   106    1
   223    44    46   ar
   224    48    46   ar
   225    48    49    1
   226   108   107    2
   227   106   107    1
   228   106   105    1
