@<TRIPOS>MOLECULE
tmp/5jtyA00.pdb
 110 107 0 0 0
SMALL
GASTEIGER

@<TRIPOS>ATOM
      1  N          3.2910  -12.2280  -43.0170 N.3    10  GLN10      -0.1245
      2  CA         4.6780  -12.5610  -42.6790 C.3    10  GLN10       0.1566
      3  C          4.6980  -13.9920  -42.1310 C.2    10  GLN10       0.2260
      4  O          4.4840  -14.2130  -40.9390 O.2    10  GLN10      -0.2867
      5  CB         5.2680  -11.5810  -41.6850 C.3    10  GLN10       0.0367
      6  CG         6.7270  -11.8500  -41.3610 C.3    10  GLN10       0.0905
      7  CD         7.6080  -11.8460  -42.5950 C.2    10  GLN10       0.2608
      8  OE1        8.4510  -12.7250  -42.7720 O.2    10  GLN10      -0.2717
      9  NE2        7.4210  -10.8500  -43.4550 N.am   10  GLN10      -0.0878
     10  N          4.5780  -16.5270  -39.1670 N.3    13  PHE13      -0.1241
     11  CA         3.7850  -15.9110  -38.1090 C.3    13  PHE13       0.1605
     12  C          2.3430  -15.6960  -38.5530 C.2    13  PHE13       0.2264
     13  O          1.4020  -16.0340  -37.8250 O.2    13  PHE13      -0.2867
     14  CB         4.4250  -14.5930  -37.6750 C.3    13  PHE13       0.0534
     15  CG         5.7480  -14.7650  -36.9880 C.ar   13  PHE13      -0.0203
     16  CD1        5.8240  -14.8170  -35.6060 C.ar   13  PHE13      -0.0042
     17  CD2        6.9160  -14.8820  -37.7240 C.ar   13  PHE13      -0.0042
     18  CE1        7.0440  -14.9780  -34.9690 C.ar   13  PHE13      -0.0003
     19  CE2        8.1360  -15.0450  -37.0940 C.ar   13  PHE13      -0.0003
     20  CZ         8.2010  -15.0910  -35.7150 C.ar   13  PHE13      -0.0000
     21  N          5.4030   -2.2490  -41.8390 N.3    80  PHE80      -0.1241
     22  CA         5.4310   -2.4730  -40.3990 C.3    80  PHE80       0.1605
     23  C          5.3080   -1.1590  -39.6410 C.2    80  PHE80       0.2264
     24  O          4.6130   -1.0880  -38.6220 O.2    80  PHE80      -0.2867
     25  CB         6.7180   -3.2010  -39.9990 C.3    80  PHE80       0.0534
     26  CG         6.7350   -4.6620  -40.3620 C.ar   80  PHE80      -0.0203
     27  CD1        6.3780   -5.6250  -39.4330 C.ar   80  PHE80      -0.0042
     28  CD2        7.1120   -5.0700  -41.6290 C.ar   80  PHE80      -0.0042
     29  CE1        6.3970   -6.9610  -39.7610 C.ar   80  PHE80      -0.0003
     30  CE2        7.1360   -6.4060  -41.9620 C.ar   80  PHE80      -0.0003
     31  CZ         6.7740   -7.3530  -41.0270 C.ar   80  PHE80      -0.0000
     32  N          4.3830   -9.8820  -36.1530 N.3   106  PRO106     -0.2102
     33  CA         5.8140   -9.9530  -35.8290 C.3   106  PRO106      0.1504
     34  C          6.4740   -8.5820  -35.8370 C.2   106  PRO106      0.2576
     35  O          7.2890   -8.2780  -36.7140 O.2   106  PRO106     -0.2718
     36  CB         6.3760  -10.8610  -36.9300 C.3   106  PRO106      0.0282
     37  CG         5.3970  -10.7630  -38.0430 C.3   106  PRO106      0.0208
     38  CD         4.0630  -10.6210  -37.3860 C.3   106  PRO106      0.0893
     39  N          6.1340   -7.7540  -34.8530 N.am  107  LEU107     -0.1966
     40  CA         6.5590   -6.3620  -34.8000 C.3   107  LEU107      0.1728
     41  C          7.7770   -6.2370  -33.8920 C.2   107  LEU107      0.2616
     42  O          7.6950   -6.5320  -32.6950 O.2   107  LEU107     -0.2715
     43  CB         5.4190   -5.4760  -34.2970 C.3   107  LEU107      0.0311
     44  CG         5.5710   -3.9630  -34.4440 C.3   107  LEU107      0.0022
     45  CD1        5.5700   -3.5670  -35.9130 C.3   107  LEU107      0.0001
     46  CD2        4.4630   -3.2470  -33.6890 C.3   107  LEU107      0.0001
     47  N          8.8950   -5.7930  -34.4600 N.am  108  THR108     -0.1951
     48  CA        10.1290   -5.6670  -33.6950 C.3   108  THR108      0.1897
     49  C         10.0010   -4.5640  -32.6510 C.2   108  THR108      0.2313
     50  O          9.5180   -3.4670  -32.9460 O.2   108  THR108     -0.2863
     51  CB        11.3060   -5.3730  -34.6280 C.3   108  THR108      0.1794
     52  OG1       11.4480   -6.4360  -35.5790 O.3   108  THR108     -0.2208
     53  CG2       12.5970   -5.2400  -33.8360 C.3   108  THR108      0.0378
     54  N          9.8360    3.1550  -31.8650 N.3   113  ARG113     -0.1245
     55  CA         8.4210    2.8150  -31.7650 C.3   113  ARG113      0.1563
     56  C          7.9060    2.9550  -30.3380 C.2   113  ARG113      0.2260
     57  O          6.7430    3.3220  -30.1350 O.2   113  ARG113     -0.2867
     58  CB         8.1830    1.3950  -32.2740 C.3   113  ARG113      0.0307
     59  CG         8.4060    1.2250  -33.7650 C.3   113  ARG113      0.0489
     60  CD         8.3690   -0.2410  -34.1560 C.3   113  ARG113      0.2205
     61  NE         8.6200   -0.4310  -35.5820 N.pl3 113  ARG113     -0.0865
     62  CZ         8.8000   -1.6160  -36.1560 C.cat 113  ARG113      0.5346
     63  NH1        8.7620   -2.7220  -35.4260 N.pl3 113  ARG113      0.1354
     64  NH2        9.0220   -1.6960  -37.4610 N.pl3 113  ARG113      0.1354
     65  N         15.2980   -3.5680  -42.5590 N.3   160  SER160     -0.1217
     66  CA        15.5550   -3.3710  -41.1370 C.3   160  SER160      0.1889
     67  C         16.9600   -3.8220  -40.7600 C.2   160  SER160      0.2288
     68  O         17.5630   -3.2690  -39.8330 O.2   160  SER160     -0.2866
     69  CB        14.5080   -4.1190  -40.3100 C.3   160  SER160      0.2089
     70  OG        14.5850   -3.7640  -38.9400 O.3   160  SER160     -0.2183
     71  N         19.5460  -12.2550  -42.6250 N.3   203  TRP203     -0.1227
     72  CA        18.1300  -11.9240  -42.5310 C.3   203  TRP203      0.1737
     73  C         17.5900  -12.4900  -41.2240 C.2   203  TRP203      0.2595
     74  O         18.3180  -13.1150  -40.4470 O.2   203  TRP203     -0.2718
     75  CB        17.3690  -12.4550  -43.7490 C.3   203  TRP203      0.0564
     76  CG        16.0550  -11.7780  -44.0270 C.ar  203  TRP203      0.0003
     77  CD1       14.8590  -12.3870  -44.2730 C.ar  203  TRP203      0.0946
     78  CD2       15.8080  -10.3680  -44.0990 C.ar  203  TRP203      0.0152
     79  NE1       13.8840  -11.4460  -44.4920 N.ar  203  TRP203     -0.2442
     80  CE2       14.4400  -10.1980  -44.3900 C.ar  203  TRP203      0.0810
     81  CE3       16.6090   -9.2320  -43.9440 C.ar  203  TRP203      0.0012
     82  CZ2       13.8580   -8.9410  -44.5320 C.ar  203  TRP203      0.0191
     83  CZ3       16.0280   -7.9880  -44.0790 C.ar  203  TRP203      0.0001
     84  CH2       14.6650   -7.8520  -44.3690 C.ar  203  TRP203      0.0015
     85  N         16.3010  -12.2580  -40.9880 N.am  204  ASP204     -0.1974
     86  CA        15.6590  -12.7280  -39.7680 C.3   204  ASP204      0.1709
     87  C         15.7340  -14.2470  -39.6700 C.2   204  ASP204      0.2293
     88  O         15.5730  -14.9610  -40.6630 O.2   204  ASP204     -0.2864
     89  CB        14.2030  -12.2680  -39.7330 C.3   204  ASP204      0.1436
     90  CG        13.4600  -12.7850  -38.5210 C.2   204  ASP204      0.3671
     91  OD1       13.4800  -12.1000  -37.4770 O.co2 204  ASP204     -0.2456
     92  OD2       12.8580  -13.8750  -38.6140 O.co2 204  ASP204     -0.2456
     93  N         12.4570  -16.3460  -40.4860 N.3   207  VAL207     -0.1245
     94  CA        12.1350  -16.4070  -41.9070 C.3   207  VAL207      0.1561
     95  C         13.0650  -17.3720  -42.6300 C.2   207  VAL207      0.2260
     96  O         12.6790  -17.9810  -43.6360 O.2   207  VAL207     -0.2867
     97  CB        12.1940  -14.9970  -42.5250 C.3   207  VAL207      0.0252
     98  CG1       11.5890  -14.9960  -43.9200 C.3   207  VAL207      0.0019
     99  CG2       11.4810  -14.0000  -41.6290 C.3   207  VAL207      0.0019
    100  N          9.6090   -9.6080  -30.4150 N.3   226  PHE226     -0.1241
    101  CA         8.3180   -9.1190  -30.8840 C.3   226  PHE226      0.1605
    102  C          7.3570   -8.9860  -29.7150 C.2   226  PHE226      0.2264
    103  O          7.2960   -9.8590  -28.8450 O.2   226  PHE226     -0.2867
    104  CB         7.7090  -10.0540  -31.9270 C.3   226  PHE226      0.0534
    105  CG         8.5310  -10.1990  -33.1670 C.ar  226  PHE226     -0.0203
    106  CD1        9.4280   -9.2150  -33.5380 C.ar  226  PHE226     -0.0042
    107  CD2        8.4100  -11.3260  -33.9650 C.ar  226  PHE226     -0.0042
    108  CE1       10.1890   -9.3470  -34.6820 C.ar  226  PHE226     -0.0003
    109  CE2        9.1620  -11.4550  -35.1160 C.ar  226  PHE226     -0.0003
    110  CZ        10.0560  -10.4680  -35.4710 C.ar  226  PHE226     -0.0000
@<TRIPOS>BOND
     1    82    80   ar
     2    82    84   ar
     3    79    80   ar
     4    79    77   ar
     5    80    78   ar
     6    84    83   ar
     7    77    76   ar
     8    78    76   ar
     9    78    81   ar
    10    83    81   ar
    11    76    75    1
    12    98    97    1
    13    75    72    1
    14    96    95    2
    15     9     7   am
    16     1     2    1
    17     8     7    2
    18     2     3    1
    19     2     5    1
    20    95    94    1
    21    71    72    1
    22     7     6    1
    23    65    66    1
    24    72    73    1
    25    97    94    1
    26    97    99    1
    27     3     4    2
    28    30    28   ar
    29    30    31   ar
    30    94    93    1
    31    21    22    1
    32     5     6    1
    33    28    26   ar
    34    73    85   am
    35    73    74    2
    36    66    67    1
    37    66    69    1
    38    31    29   ar
    39    85    86    1
    40    67    68    2
    41    88    87    2
    42    22    25    1
    43    22    23    1
    44    26    25    1
    45    26    27   ar
    46    69    70    1
    47    86    89    1
    48    86    87    1
    49    29    27   ar
    50    89    90    1
    51    23    24    2
    52    10    11    1
    53    92    90   ar
    54    12    11    1
    55    12    13    2
    56    90    91   ar
    57    11    14    1
    58    37    38    1
    59    37    36    1
    60    17    19   ar
    61    17    15   ar
    62    14    15    1
    63    64    62    1
    64    38    32    1
    65    19    20   ar
    66    15    16   ar
    67    36    33    1
    68    35    34    2
    69    62    61    2
    70    62    63    1
    71    32    33    1
    72    45    44    1
    73    34    33    1
    74    34    39   am
    75    20    18   ar
    76    16    18   ar
    77    61    60    1
    78    52    51    1
    79   110   109   ar
    80   110   108   ar
    81   109   107   ar
    82    39    40    1
    83    40    43    1
    84    40    41    1
    85   108   106   ar
    86    51    53    1
    87    51    48    1
    88    47    41   am
    89    47    48    1
    90    44    43    1
    91    44    46    1
    92    60    59    1
    93   107   105   ar
    94    41    42    2
    95    59    58    1
    96    48    49    1
    97   106   105   ar
    98   105   104    1
    99    50    49    2
   100    58    55    1
   101   104   101    1
   102    54    55    1
   103    55    56    1
   104   101   100    1
   105   101   102    1
   106    56    57    2
   107   102   103    2
