@<TRIPOS>MOLECULE
tmp/5ju6B03.pdb
 79 79 0 0 0
SMALL
GASTEIGER

@<TRIPOS>ATOM
      1  N        -98.7990   17.9190    7.7490 N.3     4  TYR4       -0.1227
      2  CA       -99.7320   16.8050    7.6950 C.3     4  TYR4        0.1736
      3  C        -99.7820   16.2180    6.2620 C.2     4  TYR4        0.2596
      4  O        -99.8260   16.9890    5.2860 O.2     4  TYR4       -0.2718
      5  CB      -101.1180   17.3150    8.1270 C.3     4  TYR4        0.0548
      6  CG      -102.2180   16.2720    8.0380 C.ar    4  TYR4       -0.0200
      7  CD1     -102.3190   15.2510    8.9920 C.ar    4  TYR4       -0.0009
      8  CD2     -103.1270   16.3020    6.9950 C.ar    4  TYR4       -0.0009
      9  CE1     -103.3170   14.3060    8.9140 C.ar    4  TYR4        0.0417
     10  CE2     -104.1310   15.3570    6.8980 C.ar    4  TYR4        0.0417
     11  CZ      -104.2270   14.3620    7.8440 C.ar    4  TYR4        0.1957
     12  OH      -105.2400   13.4220    7.7220 O.3     4  TYR4       -0.2866
     13  N        -99.7880   14.8690    6.1720 N.am    5  SER5       -0.1938
     14  CA       -99.8590   14.1280    4.8950 C.3     5  SER5        0.2040
     15  C       -101.2440   13.5710    4.7320 C.2     5  SER5        0.2485
     16  O       -101.6440   12.6310    5.4580 O.2     5  SER5       -0.2729
     17  CB       -98.7990   12.9870    4.7720 C.3     5  SER5        0.2129
     18  OG       -98.5750   12.6410    3.4060 O.3     5  SER5       -0.2179
     19  N       -101.9940   14.1370    3.7760 N.am    6  PRO6       -0.2715
     20  CA      -103.3680   13.7010    3.6630 C.3     6  PRO6        0.1521
     21  C       -103.4710   12.2410    3.1670 C.2     6  PRO6        0.2440
     22  O       -102.5050   11.6900    2.6060 O.2     6  PRO6       -0.2731
     23  CB      -104.0200   14.7120    2.6730 C.3     6  PRO6        0.0310
     24  CG      -102.9130   15.4580    2.0330 C.3     6  PRO6        0.0237
     25  CD      -101.6600   15.2450    2.8440 C.3     6  PRO6        0.0939
     26  N       -104.6200   11.6070    3.4290 N.am    7  PRO7       -0.2727
     27  CA      -104.8130   10.2540    2.9610 C.3     7  PRO7        0.1402
     28  C       -105.1550   10.2310    1.4720 C.2     7  PRO7        0.2269
     29  O       -105.7540   11.1780    0.9170 O.2     7  PRO7       -0.2865
     30  CB      -105.9750    9.7760    3.7930 C.3     7  PRO7        0.0296
     31  CG      -106.7930   11.0220    4.0260 C.3     7  PRO7        0.0237
     32  CD      -105.8240   12.1580    4.0880 C.3     7  PRO7        0.0939
     33  N       -106.6540    6.9410   -0.7200 N.3     9  TYR9       -0.1241
     34  CA      -107.0700    5.5350   -0.8060 C.3     9  TYR9        0.1605
     35  C       -108.2330    5.3610   -1.7800 C.2     9  TYR9        0.2264
     36  O       -109.0330    6.2770   -1.9600 O.2     9  TYR9       -0.2867
     37  CB      -107.5110    5.0590    0.5750 C.3     9  TYR9        0.0534
     38  CG      -106.4200    5.1280    1.6050 C.ar    9  TYR9       -0.0201
     39  CD1     -105.5520    4.0630    1.7950 C.ar    9  TYR9       -0.0009
     40  CD2     -106.2220    6.3050    2.3880 C.ar    9  TYR9       -0.0009
     41  CE1     -104.5440    4.1200    2.7700 C.ar    9  TYR9        0.0417
     42  CE2     -105.2240    6.3690    3.3460 C.ar    9  TYR9        0.0417
     43  CZ      -104.3910    5.2740    3.5450 C.ar    9  TYR9        0.1957
     44  OH      -103.3960    5.3400    4.4720 O.3     9  TYR9       -0.2866
     45  N        -94.0790   14.9730    5.3080 N.3   229  ASN229     -0.1225
     46  CA       -95.1430   15.6060    6.0770 C.3   229  ASN229      0.1785
     47  C        -95.5700   14.7490    7.2550 C.2   229  ASN229      0.2597
     48  O        -96.7740   14.5600    7.4860 O.2   229  ASN229     -0.2718
     49  CB       -96.3630   15.8940    5.2240 C.3   229  ASN229      0.1169
     50  CG       -96.1760   17.0240    4.2350 C.2   229  ASN229      0.2627
     51  OD1      -95.1210   17.6230    4.1070 O.2   229  ASN229     -0.2716
     52  ND2      -97.2710   17.3050    3.5030 N.am  229  ASN229     -0.0877
     53  N        -94.5870   14.2240    7.9750 N.am  230  ASN230     -0.1960
     54  CA       -94.8240   13.4410    9.1940 C.3   230  ASN230      0.1819
     55  C        -95.5870   12.1280    9.0000 C.2   230  ASN230      0.2622
     56  O        -96.1060   11.5650    9.9610 O.2   230  ASN230     -0.2715
     57  CB       -95.4650   14.3310   10.2630 C.3   230  ASN230      0.1195
     58  CG       -94.5150   15.3990   10.7340 C.2   230  ASN230      0.2630
     59  OD1      -93.5230   15.0780   11.3370 O.2   230  ASN230     -0.2716
     60  ND2      -94.7770   16.6550   10.4000 N.am  230  ASN230     -0.0877
     61  N        -95.5760   11.6140    7.7690 N.am  231  SER231     -0.1950
     62  CA       -95.8900   10.2360    7.5030 C.3   231  SER231      0.1924
     63  C        -94.6620    9.5250    6.8460 C.2   231  SER231      0.2314
     64  O        -94.1320   10.0110    5.8490 O.2   231  SER231     -0.2863
     65  CB       -97.1180   10.1950    6.5990 C.3   231  SER231      0.2116
     66  OG       -97.5600    8.8850    6.3030 O.3   231  SER231     -0.2180
     67  N        -99.4830    7.2450    1.9710 N.3   237  SER237     -0.1217
     68  CA      -100.4640    6.9570    0.9680 C.3   237  SER237      0.1889
     69  C       -100.4500    8.0190   -0.0910 C.2   237  SER237      0.2288
     70  O       -100.6560    7.7280   -1.2890 O.2   237  SER237     -0.2866
     71  CB      -101.8580    6.7840    1.6020 C.3   237  SER237      0.2089
     72  OG      -102.2230    7.7790    2.5710 O.3   237  SER237     -0.2183
     73  N       -107.5490    4.6870    7.3700 N.3   709  PRO709     -0.2116
     74  CA      -108.3950    5.7920    6.9020 C.3   709  PRO709      0.1372
     75  C       -109.5300    5.3570    6.0160 C.2   709  PRO709      0.2244
     76  O       -109.5610    4.2240    5.5860 O.2   709  PRO709     -0.2868
     77  CB      -107.4150    6.6840    6.1260 C.3   709  PRO709      0.0268
     78  CG      -106.1000    6.3940    6.7620 C.3   709  PRO709      0.0207
     79  CD      -106.1520    4.8920    6.9590 C.3   709  PRO709      0.0892
@<TRIPOS>BOND
     1    36    35    2
     2    35    34    1
     3    70    69    2
     4    34    33    1
     5    34    37    1
     6    69    68    1
     7    37    38    1
     8    29    28    2
     9    68    71    1
    10    68    67    1
    11    28    27    1
    12    71    72    1
    13    38    39   ar
    14    38    40   ar
    15    39    41   ar
    16    24    23    1
    17    24    25    1
    18    40    42   ar
    19    22    21    2
    20    23    20    1
    21    41    43   ar
    22    25    19    1
    23    27    26    1
    24    27    30    1
    25    21    26   am
    26    21    20    1
    27    42    43   ar
    28    18    17    1
    29    26    32    1
    30    52    50   am
    31    43    44    1
    32    20    19    1
    33    19    15   am
    34    30    31    1
    35    31    32    1
    36    51    50    2
    37    50    49    1
    38    15    14    1
    39    15    16    2
    40    17    14    1
    41    14    13    1
    42    49    46    1
    43     4     3    2
    44    45    46    1
    45    76    75    2
    46    64    63    2
    47    75    74    1
    48    46    47    1
    49    77    78    1
    50    77    74    1
    51    13     3   am
    52     3     2    1
    53    66    65    1
    54    65    62    1
    55    78    79    1
    56    63    62    1
    57    10     8   ar
    58    10    11   ar
    59    74    73    1
    60    79    73    1
    61     8     6   ar
    62    47    48    2
    63    47    53   am
    64    62    61    1
    65     2     1    1
    66     2     5    1
    67    12    11    1
    68    61    55   am
    69    11     9   ar
    70    53    54    1
    71     6     5    1
    72     6     7   ar
    73     9     7   ar
    74    55    54    1
    75    55    56    2
    76    54    57    1
    77    57    58    1
    78    60    58   am
    79    58    59    2
