@<TRIPOS>MOLECULE
tmp/5ju6B22.pdb
 93 89 0 0 0
SMALL
GASTEIGER

@<TRIPOS>ATOM
      1  N        -95.3340   -0.5280    9.5020 N.3   263  SER263     -0.1202
      2  CA       -96.6500   -1.0220    9.8750 C.3   263  SER263      0.2020
      3  C        -96.9940   -2.1110    8.9060 C.2   263  SER263      0.2619
      4  O        -96.4250   -2.1290    7.7980 O.2   263  SER263     -0.2717
      5  CB       -97.7000    0.0660    9.7570 C.3   263  SER263      0.2103
      6  OG       -97.9280    0.4030    8.4070 O.3   263  SER263     -0.2182
      7  N        -97.9390   -2.9710    9.2960 N.am  264  GLY264     -0.1942
      8  CA       -98.4010   -4.0480    8.4150 C.3   264  GLY264      0.2014
      9  C        -99.5110   -3.6240    7.5010 C.2   264  GLY264      0.2638
     10  O        -99.2890   -3.2900    6.3070 O.2   264  GLY264     -0.2714
     11  N       -100.7090   -3.6210    8.0770 N.am  265  VAL265     -0.1977
     12  CA      -101.9240   -3.2290    7.3970 C.3   265  VAL265      0.1596
     13  C       -101.7970   -1.7870    6.8550 C.2   265  VAL265      0.2287
     14  O       -102.0860   -1.5270    5.6820 O.2   265  VAL265     -0.2864
     15  CB      -103.1200   -3.3620    8.3590 C.3   265  VAL265      0.0276
     16  CG1     -104.3580   -2.6870    7.7970 C.3   265  VAL265      0.0022
     17  CG2     -103.4130   -4.8210    8.6590 C.3   265  VAL265      0.0022
     18  N        -93.6270   -7.1710   10.1010 N.3   288  PHE288     -0.1241
     19  CA       -94.8770   -6.5190    9.8430 C.3   288  PHE288      0.1605
     20  C        -95.7520   -7.2580    8.8200 C.2   288  PHE288      0.2264
     21  O        -96.9990   -7.1510    8.8840 O.2   288  PHE288     -0.2867
     22  CB       -94.6610   -5.0820    9.3850 C.3   288  PHE288      0.0534
     23  CG       -94.1890   -4.1770   10.4630 C.ar  288  PHE288     -0.0203
     24  CD1      -94.8700   -4.0960   11.6670 C.ar  288  PHE288     -0.0042
     25  CD2      -93.0800   -3.3550   10.2630 C.ar  288  PHE288     -0.0042
     26  CE1      -94.4120   -3.2360   12.6840 C.ar  288  PHE288     -0.0003
     27  CE2      -92.6290   -2.4840   11.2570 C.ar  288  PHE288     -0.0003
     28  CZ       -93.2880   -2.4270   12.4750 C.ar  288  PHE288     -0.0000
     29  N        -97.9000  -12.1430    9.6920 N.3   292  ASN292     -0.1240
     30  CA       -98.8900  -11.0720    9.8330 C.3   292  ASN292      0.1653
     31  C        -99.6840  -10.7710    8.5580 C.2   292  ASN292      0.2266
     32  O       -100.9000  -10.4740    8.6380 O.2   292  ASN292     -0.2867
     33  CB       -98.2540   -9.7590   10.3080 C.3   292  ASN292      0.1155
     34  CG       -98.2010   -9.6200   11.8290 C.2   292  ASN292      0.2627
     35  OD1      -99.1640   -9.8880   12.5350 O.2   292  ASN292     -0.2716
     36  ND2      -97.0450   -9.1740   12.3320 N.am  292  ASN292     -0.0877
     37  N       -103.6460  -10.9730    8.4060 N.3   296  ALA296     -0.1245
     38  CA      -104.3920   -9.7670    7.9780 C.3   296  ALA296      0.1562
     39  C       -105.2910  -10.0450    6.7740 C.2   296  ALA296      0.2260
     40  O       -106.3160   -9.3820    6.6050 O.2   296  ALA296     -0.2867
     41  CB      -103.4240   -8.6410    7.6370 C.3   296  ALA296      0.0290
     42  N        -99.7080   -9.6740   17.9610 N.3   697  ASP697     -0.1239
     43  CA       -99.6160   -8.2020   17.8470 C.3   697  ASP697      0.1674
     44  C       -100.3120   -7.6320   19.0790 C.2   697  ASP697      0.2266
     45  O       -101.4840   -7.9840   19.3260 O.2   697  ASP697     -0.2867
     46  CB      -100.2940   -7.7070   16.5560 C.3   697  ASP697      0.1410
     47  CG      -100.1050   -6.1930   16.3070 C.2   697  ASP697      0.3668
     48  OD1     -100.3410   -5.3570   17.1780 O.co2 697  ASP697     -0.2456
     49  OD2      -99.7250   -5.8040   15.2080 O.co2 697  ASP697     -0.2456
     50  N       -101.8210   -4.9020   19.7460 N.3   699  ASP699     -0.1225
     51  CA      -103.1000   -4.1830   19.5140 C.3   699  ASP699      0.1805
     52  C       -104.1130   -4.9850   18.6680 C.2   699  ASP699      0.2598
     53  O       -105.0930   -4.4270   18.1920 O.2   699  ASP699     -0.2718
     54  CB      -102.8470   -2.8170   18.8430 C.3   699  ASP699      0.1424
     55  CG      -101.9020   -1.9030   19.6340 C.2   699  ASP699      0.3668
     56  OD1     -101.8220   -1.9610   20.8840 O.co2 699  ASP699     -0.2456
     57  OD2     -101.2360   -1.0760   18.9780 O.co2 699  ASP699     -0.2456
     58  N       -103.8910   -6.2940   18.4970 N.am  700  TYR700     -0.1962
     59  CA      -104.6790   -7.1330   17.5580 C.3   700  TYR700      0.1771
     60  C       -106.1810   -7.0840   17.8130 C.2   700  TYR700      0.2620
     61  O       -106.6390   -7.2130   18.9630 O.2   700  TYR700     -0.2715
     62  CB      -104.2390   -8.6110   17.6410 C.3   700  TYR700      0.0574
     63  CG      -104.8710   -9.5180   16.5840 C.ar  700  TYR700     -0.0198
     64  CD1     -106.1300  -10.0840   16.7750 C.ar  700  TYR700     -0.0009
     65  CD2     -104.2140   -9.7940   15.3830 C.ar  700  TYR700     -0.0009
     66  CE1     -106.7160  -10.9050   15.8030 C.ar  700  TYR700      0.0417
     67  CE2     -104.7920  -10.6130   14.4090 C.ar  700  TYR700      0.0417
     68  CZ      -106.0410  -11.1610   14.6280 C.ar  700  TYR700      0.1957
     69  OH      -106.6140  -11.9530   13.6890 O.3   700  TYR700     -0.2866
     70  N       -106.9290   -6.9050   16.7300 N.am  701  GLY701     -0.1940
     71  CA      -108.3510   -7.2770   16.6680 C.3   701  GLY701      0.2014
     72  C       -109.3720   -6.1860   16.4150 C.2   701  GLY701      0.2638
     73  O       -110.5590   -6.4940   16.3640 O.2   701  GLY701     -0.2714
     74  N       -108.9280   -4.9270   16.2580 N.am  702  LEU702     -0.1977
     75  CA      -109.8390   -3.8160   16.0410 C.3   702  LEU702      0.1596
     76  C       -110.4700   -3.9070   14.6730 C.2   702  LEU702      0.2287
     77  O       -109.8550   -4.4160   13.7210 O.2   702  LEU702     -0.2864
     78  CB      -109.1360   -2.4460   16.1460 C.3   702  LEU702      0.0297
     79  CG      -108.7410   -1.9860   17.5600 C.3   702  LEU702      0.0022
     80  CD1     -107.7970   -0.7900   17.4960 C.3   702  LEU702      0.0001
     81  CD2     -109.9720   -1.6170   18.3750 C.3   702  LEU702      0.0001
     82  N       -108.8200    2.1260   12.8300 N.3   707  TYR707     -0.1241
     83  CA      -107.3740    2.4580   12.7100 C.3   707  TYR707      0.1605
     84  C       -106.8080    2.6450   11.2820 C.2   707  TYR707      0.2264
     85  O       -105.5990    2.8680   11.1180 O.2   707  TYR707     -0.2867
     86  CB      -106.5430    1.4050   13.4480 C.3   707  TYR707      0.0534
     87  CG      -106.5620    0.0320   12.8100 C.ar  707  TYR707     -0.0201
     88  CD1     -107.6640   -0.8160   12.9430 C.ar  707  TYR707     -0.0009
     89  CD2     -105.4720   -0.4210   12.0730 C.ar  707  TYR707     -0.0009
     90  CE1     -107.6640   -2.0870   12.3540 C.ar  707  TYR707      0.0417
     91  CE2     -105.4670   -1.6740   11.4790 C.ar  707  TYR707      0.0417
     92  CZ      -106.5480   -2.4960   11.6190 C.ar  707  TYR707      0.1957
     93  OH      -106.5080   -3.7030   11.0390 O.3   707  TYR707     -0.2866
@<TRIPOS>BOND
     1    14    13    2
     2    10     9    2
     3    40    39    2
     4    39    38    1
     5    13    12    1
     6    12    11    1
     7    12    15    1
     8     9    11   am
     9     9     8    1
    10    41    38    1
    11    16    15    1
    12     4     3    2
    13    38    37    1
    14    15    17    1
    15     6     5    1
    16     8     7    1
    17    31    32    2
    18    31    30    1
    19    20    21    2
    20    20    19    1
    21     3     7   am
    22     3     2    1
    23    22    19    1
    24    22    23    1
    25     1     2    1
    26    29    30    1
    27     5     2    1
    28    30    33    1
    29    19    18    1
    30    25    23   ar
    31    25    27   ar
    32    33    34    1
    33    23    24   ar
    34    93    92    1
    35    85    84    2
    36    27    28   ar
    37    84    83    1
    38    91    92   ar
    39    91    89   ar
    40    92    90   ar
    41    24    26   ar
    42    34    36   am
    43    34    35    2
    44    89    87   ar
    45    90    88   ar
    46    28    26   ar
    47    83    82    1
    48    83    86    1
    49    87    88   ar
    50    87    86    1
    51    69    68    1
    52    77    76    2
    53    67    68   ar
    54    67    65   ar
    55    68    66   ar
    56    76    75    1
    57    49    47   ar
    58    65    63   ar
    59    66    64   ar
    60    75    78    1
    61    75    74    1
    62    78    79    1
    63    74    72   am
    64    47    46    1
    65    47    48   ar
    66    73    72    2
    67    72    71    1
    68    46    43    1
    69    63    64   ar
    70    63    62    1
    71    71    70    1
    72    70    60   am
    73    80    79    1
    74    59    62    1
    75    59    60    1
    76    59    58    1
    77    79    81    1
    78    60    61    2
    79    43    42    1
    80    43    44    1
    81    53    52    2
    82    58    52   am
    83    52    51    1
    84    54    51    1
    85    54    55    1
    86    57    55   ar
    87    44    45    2
    88    51    50    1
    89    55    56   ar
