@<TRIPOS>MOLECULE
tmp/5ju6B13.pdb
 158 151 0 0 0
SMALL
GASTEIGER

@<TRIPOS>ATOM
      1  N        -82.8640  -10.1720    7.5580 N.3    48  TRP48      -0.1241
      2  CA       -81.4840   -9.6670    7.3460 C.3    48  TRP48       0.1605
      3  C        -80.4550  -10.8030    7.3770 C.2    48  TRP48       0.2264
      4  O        -80.4260  -11.5930    8.3190 O.2    48  TRP48      -0.2867
      5  CB       -81.1210   -8.6700    8.4320 C.3    48  TRP48       0.0550
      6  CG       -79.7760   -7.9950    8.3230 C.ar   48  TRP48       0.0003
      7  CD1      -78.8450   -7.9040    9.3240 C.ar   48  TRP48       0.0946
      8  CD2      -79.2250   -7.2670    7.2010 C.ar   48  TRP48       0.0152
      9  NE1      -77.7600   -7.2030    8.8930 N.ar   48  TRP48      -0.2442
     10  CE2      -77.9640   -6.7930    7.5990 C.ar   48  TRP48       0.0810
     11  CE3      -79.6530   -7.0100    5.8870 C.ar   48  TRP48       0.0012
     12  CZ2      -77.1320   -6.0580    6.7410 C.ar   48  TRP48       0.0191
     13  CZ3      -78.8160   -6.2830    5.0280 C.ar   48  TRP48       0.0001
     14  CH2      -77.5740   -5.8120    5.4640 C.ar   48  TRP48       0.0015
     15  N        -78.5100   -9.1180   -0.6440 N.3    54  VAL54      -0.1245
     16  CA       -78.7030   -7.9950    0.2810 C.3    54  VAL54       0.1561
     17  C        -80.1420   -7.9690    0.7680 C.2    54  VAL54       0.2260
     18  O        -80.4260   -7.8050    2.0030 O.2    54  VAL54      -0.2867
     19  CB       -78.3330   -6.6930   -0.4410 C.3    54  VAL54       0.0252
     20  CG1      -78.7220   -5.4550    0.3470 C.3    54  VAL54       0.0019
     21  CG2      -76.8170   -6.6590   -0.7080 C.3    54  VAL54       0.0019
     22  N        -77.6790   -4.3160   -4.2350 N.3    72  ASP72      -0.1239
     23  CA       -76.9570   -3.0630   -4.4820 C.3    72  ASP72       0.1674
     24  C        -75.9020   -3.2850   -5.5630 C.2    72  ASP72       0.2266
     25  O        -75.4540   -4.4170   -5.7290 O.2    72  ASP72      -0.2867
     26  CB       -76.2430   -2.6290   -3.2100 C.3    72  ASP72       0.1410
     27  CG       -77.1930   -2.1020   -2.1580 C.2    72  ASP72       0.3668
     28  OD1      -78.0270   -1.2410   -2.5330 O.co2  72  ASP72      -0.2456
     29  OD2      -77.0540   -2.5150   -0.9750 O.co2  72  ASP72      -0.2456
     30  N        -72.6300   -5.0070   -5.7660 N.3    78  ARG78      -0.1245
     31  CA       -72.0010   -4.8170   -4.4590 C.3    78  ARG78       0.1563
     32  C        -71.7050   -6.1310   -3.7740 C.2    78  ARG78       0.2260
     33  O        -72.4680   -7.0670   -3.9140 O.2    78  ARG78      -0.2867
     34  CB       -72.9460   -4.0550   -3.5490 C.3    78  ARG78       0.0307
     35  CG       -72.5000   -3.9790   -2.0910 C.3    78  ARG78       0.0489
     36  CD       -73.2550   -2.8870   -1.3530 C.3    78  ARG78       0.2205
     37  NE       -72.8250   -2.7920    0.0230 N.pl3  78  ARG78      -0.0865
     38  CZ       -73.6020   -2.6640    1.0830 C.cat  78  ARG78       0.5346
     39  NH1      -74.9290   -2.6080    1.0070 N.pl3  78  ARG78       0.1354
     40  NH2      -73.0180   -2.5650    2.2610 N.pl3  78  ARG78       0.1354
     41  N        -80.6330   -2.3970   -7.3440 N.3   121  LEU121     -0.1245
     42  CA       -81.1390   -1.2990   -6.5290 C.3   121  LEU121      0.1561
     43  C        -80.5480    0.0200   -6.9850 C.2   121  LEU121      0.2260
     44  O        -79.6920    0.6050   -6.3330 O.2   121  LEU121     -0.2867
     45  CB       -80.8190   -1.5820   -5.0540 C.3   121  LEU121      0.0270
     46  CG       -81.2200   -2.9210   -4.4950 C.3   121  LEU121      0.0019
     47  CD1      -80.8340   -3.0210   -3.0190 C.3   121  LEU121      0.0001
     48  CD2      -82.7010   -3.0970   -4.6460 C.3   121  LEU121      0.0001
     49  N        -74.9300   11.6150    0.0770 N.3   136  ARG136     -0.1245
     50  CA       -75.1050   10.6290   -0.9650 C.3   136  ARG136      0.1563
     51  C        -75.4620   11.2020   -2.3380 C.2   136  ARG136      0.2260
     52  O        -75.8380   10.4330   -3.2170 O.2   136  ARG136     -0.2867
     53  CB       -76.1710    9.6430   -0.5470 C.3   136  ARG136      0.0307
     54  CG       -75.8480    8.8780    0.7150 C.3   136  ARG136      0.0489
     55  CD       -76.9830    7.9460    1.0570 C.3   136  ARG136      0.2205
     56  NE       -77.0220    6.7950    0.1500 N.pl3 136  ARG136     -0.0865
     57  CZ       -77.8850    5.7860    0.2370 C.cat 136  ARG136      0.5346
     58  NH1      -78.8290    5.7770    1.1790 N.pl3 136  ARG136      0.1354
     59  NH2      -77.7960    4.7770   -0.6190 N.pl3 136  ARG136      0.1354
     60  N        -84.7260    5.0230   -6.8610 N.3   169  LYS169     -0.1231
     61  CA       -84.7030    5.3060   -5.4070 C.3   169  LYS169      0.1693
     62  C        -84.1460    6.6600   -5.1240 C.2   169  LYS169      0.2592
     63  O        -83.6070    7.2760   -6.0210 O.2   169  LYS169     -0.2718
     64  CB       -83.8980    4.2630   -4.6560 C.3   169  LYS169      0.0285
     65  CG       -82.3920    4.3120   -4.8350 C.3   169  LYS169      0.0035
     66  CD       -81.7910    3.0260   -4.2900 C.3   169  LYS169      0.0206
     67  CE       -80.2880    3.0860   -4.1830 C.3   169  LYS169      0.1093
     68  NZ       -79.8040    1.7480   -3.7780 N.3   169  LYS169     -0.1314
     69  N        -84.3060    7.1920   -3.9170 N.am  170  HIS170     -0.1976
     70  CA       -85.2290    6.7560   -2.8740 C.3   170  HIS170      0.1656
     71  C        -86.4300    7.7070   -2.9540 C.2   170  HIS170      0.2291
     72  O        -86.2500    8.9200   -3.0880 O.2   170  HIS170     -0.2864
     73  CB       -84.5390    6.8490   -1.5030 C.3   170  HIS170      0.0771
     74  CG       -83.2010    6.1840   -1.4680 C.ar  170  HIS170      0.0820
     75  ND1      -82.0760    6.7510   -2.0310 N.ar  170  HIS170     -0.2267
     76  CD2      -82.8150    4.9750   -0.9910 C.ar  170  HIS170      0.1154
     77  CE1      -81.0400    5.9470   -1.8460 C.ar  170  HIS170      0.1986
     78  NE2      -81.4640    4.8620   -1.2260 N.ar  170  HIS170     -0.2212
     79  N        -82.0400   10.4670    9.3420 N.3   180  ARG180     -0.1245
     80  CA       -82.8060    9.6750    8.3930 C.3   180  ARG180      0.1563
     81  C        -83.5050    8.4770    9.0540 C.2   180  ARG180      0.2260
     82  O        -84.5550    8.0710    8.5970 O.2   180  ARG180     -0.2867
     83  CB       -81.9120    9.1990    7.2470 C.3   180  ARG180      0.0307
     84  CG       -80.9060    8.1210    7.6390 C.3   180  ARG180      0.0489
     85  CD       -79.9700    7.8060    6.4850 C.3   180  ARG180      0.2205
     86  NE       -79.2740    6.5650    6.8060 N.pl3 180  ARG180     -0.0865
     87  CZ       -78.9430    5.6060    5.9540 C.cat 180  ARG180      0.5346
     88  NH1      -79.1890    5.7090    4.6250 N.pl3 180  ARG180      0.1354
     89  NH2      -78.3190    4.5260    6.4470 N.pl3 180  ARG180      0.1354
     90  N        -88.0370    2.2830   -4.7490 N.3   222  MET222     -0.1245
     91  CA       -87.7530    2.0240   -3.3310 C.3   222  MET222      0.1570
     92  C        -88.1890    3.2340   -2.5610 C.2   222  MET222      0.2261
     93  O        -87.8330    4.3480   -2.9320 O.2   222  MET222     -0.2867
     94  CB       -86.2870    1.7610   -3.0710 C.3   222  MET222      0.0387
     95  CG       -85.9310    1.4890   -1.6060 C.3   222  MET222      0.0595
     96  SD       -84.1370    1.4080   -1.3410 S.3   222  MET222     -0.1393
     97  CE       -83.6990   -0.0260   -2.3520 C.3   222  MET222      0.0692
     98  N        -86.3150    6.3480    3.8500 N.3   225  TYR225     -0.1241
     99  CA       -86.3020    6.2420    5.3140 C.3   225  TYR225      0.1605
    100  C        -86.9700    7.4330    6.0020 C.2   225  TYR225      0.2264
    101  O        -87.4940    7.2930    7.0670 O.2   225  TYR225     -0.2867
    102  CB       -84.8610    6.2340    5.8270 C.3   225  TYR225      0.0534
    103  CG       -84.0840    4.9530    5.7020 C.ar  225  TYR225     -0.0201
    104  CD1      -84.5840    3.7630    6.2330 C.ar  225  TYR225     -0.0009
    105  CD2      -82.7970    4.9480    5.1490 C.ar  225  TYR225     -0.0009
    106  CE1      -83.8540    2.5860    6.1730 C.ar  225  TYR225      0.0417
    107  CE2      -82.0620    3.7760    5.0810 C.ar  225  TYR225      0.0417
    108  CZ       -82.5840    2.5980    5.5910 C.ar  225  TYR225      0.1957
    109  OH       -81.8590    1.4310    5.5300 O.3   225  TYR225     -0.2866
    110  N        -86.8310    0.7350    1.6500 N.3   257  ASP257     -0.1225
    111  CA       -85.4460    0.8180    2.0410 C.3   257  ASP257      0.1805
    112  C        -85.2710   -0.0730    3.2980 C.2   257  ASP257      0.2597
    113  O        -86.2700   -0.4480    3.9300 O.2   257  ASP257     -0.2718
    114  CB       -85.0250    2.2810    2.2410 C.3   257  ASP257      0.1424
    115  CG       -83.5350    2.4750    2.1110 C.2   257  ASP257      0.3668
    116  OD1      -82.8380    1.4500    2.2640 O.co2 257  ASP257     -0.2456
    117  OD2      -83.0860    3.6140    1.8750 O.co2 257  ASP257     -0.2456
    118  N        -84.0320   -0.4640    3.6180 N.am  258  TRP258     -0.1976
    119  CA       -83.8000   -1.6130    4.5270 C.3   258  TRP258      0.1640
    120  C        -83.9880   -1.1800    5.9740 C.2   258  TRP258      0.2290
    121  O        -83.1330   -0.4830    6.5090 O.2   258  TRP258     -0.2864
    122  CB       -82.3760   -2.1930    4.3600 C.3   258  TRP258      0.0576
    123  CG       -82.2320   -3.2650    3.3810 C.ar  258  TRP258      0.0006
    124  CD1      -81.5890   -4.4810    3.5760 C.ar  258  TRP258      0.0946
    125  CD2      -82.7390   -3.2970    2.0400 C.ar  258  TRP258      0.0152
    126  NE1      -81.6560   -5.2470    2.4310 N.ar  258  TRP258     -0.2442
    127  CE2      -82.3550   -4.5520    1.4760 C.ar  258  TRP258      0.0810
    128  CE3      -83.4560   -2.3960    1.2480 C.ar  258  TRP258      0.0012
    129  CZ2      -82.6470   -4.8960    0.1830 C.ar  258  TRP258      0.0191
    130  CZ3      -83.7700   -2.7700   -0.0770 C.ar  258  TRP258      0.0001
    131  CH2      -83.3700   -4.0070   -0.5820 C.ar  258  TRP258      0.0015
    132  N        -73.6390    1.9760    1.0650 N.3   427  SER427     -0.1217
    133  CA       -74.3010    0.9170    0.2840 C.3   427  SER427      0.1889
    134  C        -74.1820    1.1690   -1.2210 C.2   427  SER427      0.2288
    135  O        -74.3480    0.2530   -2.0440 O.2   427  SER427     -0.2866
    136  CB       -75.7960    0.8200    0.6570 C.3   427  SER427      0.2089
    137  OG       -76.5920    1.8120   -0.0310 O.3   427  SER427     -0.2183
    138  N        -72.9330    7.3180    2.9790 N.3   485  GLU485     -0.1245
    139  CA       -74.1360    6.9520    3.7120 C.3   485  GLU485      0.1567
    140  C        -73.9000    7.1510    5.2280 C.2   485  GLU485      0.2260
    141  O        -72.8120    6.9650    5.7240 O.2   485  GLU485     -0.2867
    142  CB       -74.5800    5.5040    3.3530 C.3   485  GLU485      0.0388
    143  CG       -76.0040    5.1710    3.7900 C.3   485  GLU485      0.1160
    144  CD       -76.5370    3.8500    3.2620 C.2   485  GLU485      0.3649
    145  OE1      -76.0060    3.3670    2.2470 O.co2 485  GLU485     -0.2457
    146  OE2      -77.5020    3.3160    3.8540 O.co2 485  GLU485     -0.2457
    147  N        -74.5080    5.6750    8.0500 N.3   487  TYR487     -0.1241
    148  CA       -74.1830    4.6160    9.0160 C.3   487  TYR487      0.1605
    149  C        -72.6890    4.5170    9.1820 C.2   487  TYR487      0.2264
    150  O        -72.2280    3.7720   10.0240 O.2   487  TYR487     -0.2867
    151  CB       -74.7950    3.2350    8.6220 C.3   487  TYR487      0.0534
    152  CG       -74.2030    2.4860    7.3950 C.ar  487  TYR487     -0.0201
    153  CD1      -74.6480    2.7640    6.0980 C.ar  487  TYR487     -0.0009
    154  CD2      -73.2400    1.4560    7.5480 C.ar  487  TYR487     -0.0009
    155  CE1      -74.1560    2.0730    4.9910 C.ar  487  TYR487      0.0417
    156  CE2      -72.7190    0.7730    6.4390 C.ar  487  TYR487      0.0417
    157  CZ       -73.1720    1.1010    5.1550 C.ar  487  TYR487      0.1957
    158  OH       -72.6860    0.4640    4.0230 O.3   487  TYR487     -0.2866
@<TRIPOS>BOND
     1    41    42    1
     2    43    42    1
     3    43    44    2
     4    60    61    1
     5    42    45    1
     6    63    62    2
     7    30    31    1
     8    25    24    2
     9    24    23    1
    10    61    62    1
    11    61    64    1
    12    62    69   am
    13    45    46    1
    14    65    64    1
    15    65    66    1
    16    90    91    1
    17    48    46    1
    18    46    47    1
    19    23    22    1
    20    23    26    1
    21    31    32    1
    22    31    34    1
    23    66    67    1
    24    67    68    1
    25    69    70    1
    26    33    32    2
    27    34    35    1
    28    91    94    1
    29    91    92    1
    30    52    51    2
    31    26    27    1
    32    72    71    2
    33    94    95    1
    34    71    70    1
    35    93    92    2
    36    70    73    1
    37    28    27   ar
    38    97    96    1
    39    51    50    1
    40    27    29   ar
    41    35    36    1
    42   135   134    2
    43    75    77   ar
    44    75    74   ar
    45    77    78   ar
    46    95    96    1
    47    73    74    1
    48    74    76   ar
    49    36    37    1
    50    78    76   ar
    51   134   133    1
    52    50    53    1
    53    50    49    1
    54    21    19    1
    55    15    16    1
    56    59    57    1
    57   131   130   ar
    58   131   129   ar
    59    53    54    1
    60    19    16    1
    61    19    20    1
    62   130   128   ar
    63   137   136    1
    64    37    38    2
    65    56    57    2
    66    56    55    1
    67   129   127   ar
    68    57    58    1
    69    16    17    1
    70   133   136    1
    71   133   132    1
    72    54    55    1
    73    17    18    2
    74    39    38    1
    75    38    40    1
    76   128   125   ar
    77   127   125   ar
    78   127   126   ar
    79   110   111    1
    80   117   115   ar
    81   125   123   ar
    82   111   114    1
    83   111   112    1
    84   115   114    1
    85   115   116   ar
    86   145   144   ar
    87   126   124   ar
    88   138   139    1
    89   144   143    1
    90   144   146   ar
    91   112   118   am
    92   112   113    2
    93   142   139    1
    94   142   143    1
    95   123   124   ar
    96   123   122    1
    97   118   119    1
    98   139   140    1
    99    98    99    1
   100   158   157    1
   101   122   119    1
   102   119   120    1
   103    88    87    1
   104   155   157   ar
   105   155   153   ar
   106    13    14   ar
   107    13    11   ar
   108   107   105   ar
   109   107   108   ar
   110   105   103   ar
   111   157   156   ar
   112   140   141    2
   113    99   102    1
   114    99   100    1
   115    14    12   ar
   116   109   108    1
   117   108   106   ar
   118   103   102    1
   119   103   104   ar
   120    11     8   ar
   121    87    89    1
   122    87    86    2
   123   120   121    2
   124   100   101    2
   125   153   152   ar
   126   106   104   ar
   127   156   154   ar
   128    85    86    1
   129    85    84    1
   130    12    10   ar
   131     8    10   ar
   132     8     6   ar
   133    83    84    1
   134    83    80    1
   135     2     3    1
   136     2     1    1
   137     2     5    1
   138     3     4    2
   139   152   154   ar
   140   152   151    1
   141    10     9   ar
   142   147   148    1
   143     6     5    1
   144     6     7   ar
   145    80    81    1
   146    80    79    1
   147    82    81    2
   148   151   148    1
   149     9     7   ar
   150   148   149    1
   151   149   150    2
