@<TRIPOS>MOLECULE
tmp/5ju6B14.pdb
 126 126 0 0 0
SMALL
GASTEIGER

@<TRIPOS>ATOM
      1  N       -101.1410  -20.0600   -3.9290 N.3    35  THR35      -0.1218
      2  CA      -101.8150  -19.9550   -2.6250 C.3    35  THR35       0.1862
      3  C       -101.5130  -18.6100   -1.9480 C.2    35  THR35       0.2287
      4  O       -100.5890  -17.8790   -2.3200 O.2    35  THR35      -0.2866
      5  CB      -101.3290  -21.0460   -1.6410 C.3    35  THR35       0.1770
      6  OG1      -99.9550  -20.8390   -1.3200 O.3    35  THR35      -0.2211
      7  CG2     -101.5120  -22.4770   -2.1780 C.3    35  THR35       0.0375
      8  N       -100.0960  -18.1580    0.9770 N.3    37  ALA37      -0.1231
      9  CA       -98.7090  -18.2160    1.5210 C.3    37  ALA37       0.1694
     10  C        -97.5970  -17.9330    0.4820 C.2    37  ALA37       0.2591
     11  O        -96.5850  -17.2740    0.7690 O.2    37  ALA37      -0.2718
     12  CB       -98.4630  -19.5650    2.1860 C.3    37  ALA37       0.0304
     13  N        -97.8190  -18.4490   -0.7220 N.am   38  GLU38      -0.1979
     14  CA       -96.9300  -18.2330   -1.8680 C.3    38  GLU38       0.1602
     15  C        -96.9240  -16.7490   -2.2490 C.2    38  GLU38       0.2287
     16  O        -95.8820  -16.1550   -2.5050 O.2    38  GLU38      -0.2864
     17  CB       -97.3260  -19.1500   -3.0440 C.3    38  GLU38       0.0415
     18  CG       -97.0810  -20.6330   -2.7330 C.3    38  GLU38       0.1163
     19  CD       -97.6560  -21.6060   -3.7590 C.2    38  GLU38       0.3649
     20  OE1      -98.6330  -21.2370   -4.3980 O.co2  38  GLU38      -0.2457
     21  OE2      -97.1730  -22.7740   -3.8930 O.co2  38  GLU38      -0.2457
     22  N        -95.0460  -14.7530    0.3970 N.3    41  ASN41      -0.1240
     23  CA       -93.5970  -14.9790    0.2270 C.3    41  ASN41       0.1653
     24  C        -92.9560  -14.0180   -0.7740 C.2    41  ASN41       0.2266
     25  O        -91.8930  -13.4870   -0.5020 O.2    41  ASN41      -0.2867
     26  CB       -93.3260  -16.4230   -0.2450 C.3    41  ASN41       0.1155
     27  CG       -92.7170  -17.3210    0.8230 C.2    41  ASN41       0.2627
     28  OD1      -92.6890  -17.0190    2.0220 O.2    41  ASN41      -0.2716
     29  ND2      -92.2110  -18.4760    0.3620 N.am   41  ASN41      -0.0877
     30  N        -88.9980  -14.9440   -0.2760 N.3    58  GLY58      -0.1210
     31  CA       -89.1340  -16.4160   -0.2810 C.3    58  GLY58       0.1956
     32  C        -89.2880  -17.0530   -1.6510 C.2    58  GLY58       0.2613
     33  O        -89.6580  -16.4000   -2.6110 O.2    58  GLY58      -0.2717
     34  N        -89.0100  -18.3440   -1.7250 N.am   59  SER59      -0.1938
     35  CA       -89.3210  -19.1470   -2.9110 C.3    59  SER59       0.2055
     36  C        -90.8020  -19.5780   -2.9820 C.2    59  SER59       0.2643
     37  O        -91.5600  -19.4690   -2.0210 O.2    59  SER59      -0.2714
     38  CB       -88.4240  -20.4120   -2.9720 C.3    59  SER59       0.2130
     39  OG       -88.4840  -21.1730   -1.7810 O.3    59  SER59      -0.2179
     40  N        -91.1590  -20.0530   -4.1720 N.am   60  ILE60      -0.1963
     41  CA       -92.3470  -20.8090   -4.4810 C.3    60  ILE60       0.1712
     42  C        -91.8420  -22.1710   -5.1020 C.2    60  ILE60       0.2458
     43  O        -91.8360  -22.3600   -6.3420 O.2    60  ILE60      -0.2730
     44  CB       -93.2500  -20.0100   -5.4480 C.3    60  ILE60       0.0289
     45  CG1      -93.4910  -18.6070   -4.8720 C.3    60  ILE60       0.0022
     46  CG2      -94.5760  -20.7220   -5.6640 C.3    60  ILE60       0.0023
     47  CD1      -94.2920  -17.6850   -5.7660 C.3    60  ILE60       0.0001
     48  N        -91.3830  -23.1030   -4.2420 N.am   61  PRO61      -0.2716
     49  CA       -90.8380  -24.3710   -4.6910 C.3    61  PRO61       0.1536
     50  C        -91.8410  -25.3080   -5.3710 C.2    61  PRO61       0.2598
     51  O        -91.4280  -26.1980   -6.1630 O.2    61  PRO61      -0.2715
     52  CB       -90.2940  -25.0080   -3.4070 C.3    61  PRO61       0.0310
     53  CG       -90.9640  -24.2830   -2.3000 C.3    61  PRO61       0.0237
     54  CD       -91.1880  -22.9150   -2.7990 C.3    61  PRO61       0.0939
     55  N        -93.1360  -25.1210   -5.0990 N.am   62  ARG62      -0.1978
     56  CA       -94.1620  -25.9150   -5.7940 C.3    62  ARG62       0.1597
     57  C        -94.0560  -25.7030   -7.3130 C.2    62  ARG62       0.2287
     58  O        -94.3540  -26.6120   -8.0830 O.2    62  ARG62      -0.2864
     59  CB       -95.5630  -25.5370   -5.2880 C.3    62  ARG62       0.0334
     60  CG       -96.6820  -26.4370   -5.7640 C.3    62  ARG62       0.0492
     61  CD       -97.9580  -26.1390   -4.9950 C.3    62  ARG62       0.2205
     62  NE       -98.4580  -24.8110   -5.3130 N.pl3  62  ARG62      -0.0865
     63  CZ       -99.1690  -24.4970   -6.3840 C.cat  62  ARG62       0.5346
     64  NH1      -99.5340  -25.4140   -7.2830 N.pl3  62  ARG62       0.1354
     65  NH2      -99.5330  -23.2360   -6.5510 N.pl3  62  ARG62       0.1354
     66  N        -90.9120  -28.9060    6.9290 N.3   675  ILE675     -0.1245
     67  CA       -89.7890  -27.9530    7.1540 C.3   675  ILE675      0.1561
     68  C        -89.2590  -27.8230    8.6090 C.2   675  ILE675      0.2260
     69  O        -90.0240  -27.9230    9.5820 O.2   675  ILE675     -0.2867
     70  CB       -90.1110  -26.5030    6.6660 C.3   675  ILE675      0.0252
     71  CG1      -91.1790  -25.8460    7.5370 C.3   675  ILE675      0.0019
     72  CG2      -90.4990  -26.4570    5.1940 C.3   675  ILE675      0.0019
     73  CD1      -90.6130  -24.9100    8.5830 C.3   675  ILE675      0.0001
     74  N        -85.6190  -16.6010   10.7830 N.3   681  TYR681     -0.1227
     75  CA       -86.0820  -16.5870    9.3720 C.3   681  TYR681      0.1736
     76  C        -87.5670  -16.2140    9.2830 C.2   681  TYR681      0.2595
     77  O        -88.3920  -16.7580   10.0180 O.2   681  TYR681     -0.2718
     78  CB       -85.8590  -17.9590    8.7330 C.3   681  TYR681      0.0548
     79  CG       -85.7460  -17.9750    7.2060 C.ar  681  TYR681     -0.0200
     80  CD1      -84.5440  -17.6900    6.5720 C.ar  681  TYR681     -0.0009
     81  CD2      -86.8250  -18.3210    6.4050 C.ar  681  TYR681     -0.0009
     82  CE1      -84.4230  -17.7360    5.1800 C.ar  681  TYR681      0.0417
     83  CE2      -86.7050  -18.3880    5.0300 C.ar  681  TYR681      0.0417
     84  CZ       -85.5110  -18.0860    4.4130 C.ar  681  TYR681      0.1957
     85  OH       -85.4230  -18.1120    3.0310 O.3   681  TYR681     -0.2866
     86  N        -87.8960  -15.2880    8.3880 N.am  682  ILE682     -0.1966
     87  CA       -89.2590  -14.8020    8.2360 C.3   682  ILE682      0.1727
     88  C        -89.9530  -15.6610    7.1880 C.2   682  ILE682      0.2616
     89  O        -89.5790  -15.6880    5.9960 O.2   682  ILE682     -0.2715
     90  CB       -89.3050  -13.3010    7.8330 C.3   682  ILE682      0.0290
     91  CG1      -88.5350  -12.3960    8.8330 C.3   682  ILE682      0.0022
     92  CG2      -90.7450  -12.8040    7.6440 C.3   682  ILE682      0.0023
     93  CD1      -89.0070  -12.4400   10.2850 C.3   682  ILE682      0.0001
     94  N        -91.0010  -16.3270    7.6620 N.am  683  TYR683     -0.1960
     95  CA       -91.8360  -17.2650    6.9290 C.3   683  TYR683      0.1756
     96  C        -93.2650  -16.6940    6.7910 C.2   683  TYR683      0.2461
     97  O        -93.6400  -15.7660    7.5180 O.2   683  TYR683     -0.2730
     98  CB       -91.8870  -18.5830    7.7020 C.3   683  TYR683      0.0574
     99  CG       -90.6130  -19.4380    7.7320 C.ar  683  TYR683     -0.0198
    100  CD1      -90.2510  -20.2110    6.6460 C.ar  683  TYR683     -0.0009
    101  CD2      -89.8470  -19.5570    8.8910 C.ar  683  TYR683     -0.0009
    102  CE1      -89.1640  -21.0570    6.6940 C.ar  683  TYR683      0.0417
    103  CE2      -88.7400  -20.4010    8.9480 C.ar  683  TYR683      0.0417
    104  CZ       -88.3960  -21.1400    7.8410 C.ar  683  TYR683      0.1957
    105  OH       -87.2790  -21.9630    7.8570 O.3   683  TYR683     -0.2866
    106  N        -94.0730  -17.2340    5.8480 N.am  684  PRO684     -0.2716
    107  CA       -95.4620  -16.7840    5.6600 C.3   684  PRO684      0.1536
    108  C        -96.4900  -17.4850    6.5400 C.2   684  PRO684      0.2598
    109  O        -97.6560  -17.0570    6.5770 O.2   684  PRO684     -0.2715
    110  CB       -95.7390  -17.1480    4.1980 C.3   684  PRO684      0.0310
    111  CG       -94.9780  -18.4270    4.0460 C.3   684  PRO684      0.0237
    112  CD       -93.7230  -18.2800    4.8720 C.3   684  PRO684      0.0939
    113  N        -96.0770  -18.5440    7.2290 N.am  685  TRP685     -0.1974
    114  CA       -97.0090  -19.4980    7.8090 C.3   685  TRP685      0.1640
    115  C        -97.3940  -19.1030    9.2480 C.2   685  TRP685      0.2290
    116  O        -96.7530  -18.2410    9.8330 O.2   685  TRP685     -0.2864
    117  CB       -96.3850  -20.8900    7.8020 C.3   685  TRP685      0.0576
    118  CG       -96.1610  -21.4460    6.4510 C.ar  685  TRP685      0.0006
    119  CD1      -97.0900  -21.6390    5.4840 C.ar  685  TRP685      0.0946
    120  CD2      -94.9400  -21.9700    5.9400 C.ar  685  TRP685      0.0152
    121  NE1      -96.5190  -22.2310    4.3760 N.ar  685  TRP685     -0.2442
    122  CE2      -95.1940  -22.4280    4.6260 C.ar  685  TRP685      0.0810
    123  CE3      -93.6410  -22.0790    6.4510 C.ar  685  TRP685      0.0012
    124  CZ2      -94.2130  -22.9920    3.8370 C.ar  685  TRP685      0.0191
    125  CZ3      -92.6510  -22.6440    5.6470 C.ar  685  TRP685      0.0001
    126  CH2      -92.9450  -23.0890    4.3620 C.ar  685  TRP685      0.0015
@<TRIPOS>BOND
     1    58    57    2
     2    57    56    1
     3    64    63    1
     4    65    63    1
     5    63    62    2
     6    43    42    2
     7    51    50    2
     8    56    59    1
     9    56    55    1
    10    47    45    1
    11    60    59    1
    12    60    61    1
    13    46    44    1
    14    44    45    1
    15    44    41    1
    16    50    55   am
    17    50    49    1
    18    62    61    1
    19    42    41    1
    20    42    48   am
    21    49    48    1
    22    49    52    1
    23    41    40    1
    24    20    19   ar
    25    48    54    1
    26    40    36   am
    27     1     2    1
    28    21    19   ar
    29    19    18    1
    30    52    53    1
    31    17    18    1
    32    17    14    1
    33    36    35    1
    34    36    37    2
    35    38    35    1
    36    38    39    1
    37    35    34    1
    38    54    53    1
    39     2     3    1
    40     2     5    1
    41    33    32    2
    42    16    15    2
    43     4     3    2
    44    15    14    1
    45     7     5    1
    46    14    13    1
    47    34    32   am
    48    32    31    1
    49     5     6    1
    50    24    25    2
    51    24    23    1
    52    13    10   am
    53    31    30    1
    54    26    23    1
    55    26    27    1
    56    23    22    1
    57    29    27   am
    58    10    11    2
    59    10     9    1
    60    27    28    2
    61     8     9    1
    62     9    12    1
    63    85    84    1
    64   124   126   ar
    65   124   122   ar
    66   111   110    1
    67   111   112    1
    68   110   107    1
    69   126   125   ar
    70   121   122   ar
    71   121   119   ar
    72    84    83   ar
    73    84    82   ar
    74   122   120   ar
    75   112   106    1
    76    83    81   ar
    77    82    80   ar
    78    72    70    1
    79   119   118   ar
    80   125   123   ar
    81   107   106    1
    82   107   108    1
    83   106    96   am
    84   120   118   ar
    85   120   123   ar
    86    89    88    2
    87    81    79   ar
    88   118   117    1
    89   108   109    2
    90   108   113   am
    91    80    79   ar
    92   100   102   ar
    93   100    99   ar
    94    70    67    1
    95    70    71    1
    96   102   104   ar
    97    96    95    1
    98    96    97    2
    99    95    94    1
   100    95    98    1
   101    66    67    1
   102    67    68    1
   103    88    94   am
   104    88    87    1
   105    79    78    1
   106   113   114    1
   107    71    73    1
   108    92    90    1
   109    98    99    1
   110    99   101   ar
   111   117   114    1
   112   114   115    1
   113    90    87    1
   114    90    91    1
   115   104   105    1
   116   104   103   ar
   117    87    86    1
   118    86    76   am
   119    68    69    2
   120    78    75    1
   121    91    93    1
   122   101   103   ar
   123   115   116    2
   124    76    75    1
   125    76    77    2
   126    75    74    1
