@<TRIPOS>MOLECULE
tmp/5ju6B06.pdb
 84 81 0 0 0
SMALL
GASTEIGER

@<TRIPOS>ATOM
      1  N        -60.7670    7.7370    3.3580 N.3   417  ASP417     -0.1239
      2  CA       -60.1720    8.5860    2.3310 C.3   417  ASP417      0.1674
      3  C        -58.6350    8.5470    2.4180 C.2   417  ASP417      0.2266
      4  O        -57.9900    9.5480    2.6530 O.2   417  ASP417     -0.2867
      5  CB       -60.6880   10.0360    2.4270 C.3   417  ASP417      0.1410
      6  CG       -60.3900   10.8580    1.1660 C.2   417  ASP417      0.3668
      7  OD1      -60.0560   10.2730    0.1170 O.co2 417  ASP417     -0.2456
      8  OD2      -60.4850   12.1030    1.2230 O.co2 417  ASP417     -0.2456
      9  N        -66.5570    9.1600    8.8140 N.3   490  VAL490     -0.1231
     10  CA       -65.1210    9.2830    8.6230 C.3   490  VAL490      0.1692
     11  C        -64.7280   10.6670    9.0920 C.2   490  VAL490      0.2592
     12  O        -65.2730   11.6500    8.5890 O.2   490  VAL490     -0.2718
     13  CB       -64.7460    9.1510    7.1360 C.3   490  VAL490      0.0266
     14  CG1      -63.2440    9.3780    6.9280 C.3   490  VAL490      0.0020
     15  CG2      -65.1440    7.7670    6.6240 C.3   490  VAL490      0.0020
     16  N        -63.8270   10.7480   10.0690 N.am  491  ASP491     -0.1974
     17  CA       -63.3100   12.0370   10.5710 C.3   491  ASP491      0.1709
     18  C        -64.4020   13.0760   10.8630 C.2   491  ASP491      0.2293
     19  O        -64.2910   14.2160   10.4380 O.2   491  ASP491     -0.2864
     20  CB       -62.2800   12.6050    9.5590 C.3   491  ASP491      0.1436
     21  CG       -61.5520   13.8650   10.0570 C.2   491  ASP491      0.3671
     22  OD1      -61.1940   13.9270   11.2530 O.co2 491  ASP491     -0.2456
     23  OD2      -61.3560   14.8020    9.2530 O.co2 491  ASP491     -0.2456
     24  N        -69.2260   17.5240    6.7930 N.3   498  LYS498     -0.1245
     25  CA       -69.2430   18.5530    7.8290 C.3   498  LYS498      0.1561
     26  C        -68.7790   19.8880    7.2710 C.2   498  LYS498      0.2260
     27  O        -68.8850   20.8780    7.9580 O.2   498  LYS498     -0.2867
     28  CB       -68.3860   18.1640    9.0450 C.3   498  LYS498      0.0271
     29  CG       -66.8690   18.3230    8.8470 C.3   498  LYS498      0.0035
     30  CD       -66.1000   17.5710    9.9010 C.3   498  LYS498      0.0206
     31  CE       -64.5880   17.8110    9.8470 C.3   498  LYS498      0.1093
     32  NZ       -63.9460   17.0430   10.9490 N.3   498  LYS498     -0.1314
     33  N        -61.5780   20.8700    0.9410 N.3   502  LEU502     -0.1231
     34  CA       -60.7990   19.7130    0.5690 C.3   502  LEU502      0.1693
     35  C        -60.4400   18.8700    1.7600 C.2   502  LEU502      0.2592
     36  O        -60.3750   19.3320    2.9000 O.2   502  LEU502     -0.2718
     37  CB       -59.5670   20.1810   -0.1840 C.3   502  LEU502      0.0284
     38  CG       -59.9510   20.8770   -1.5050 C.3   502  LEU502      0.0019
     39  CD1      -58.7510   21.5850   -2.0820 C.3   502  LEU502      0.0001
     40  CD2      -60.5350   19.8650   -2.4710 C.3   502  LEU502      0.0001
     41  N        -60.2480   17.5930    1.4750 N.am  503  TRP503     -0.1962
     42  CA       -59.7880   16.6390    2.4570 C.3   503  TRP503      0.1771
     43  C        -58.2390   16.4610    2.3880 C.2   503  TRP503      0.2620
     44  O        -57.6040   17.0120    1.5280 O.2   503  TRP503     -0.2715
     45  CB       -60.4980   15.3210    2.2280 C.3   503  TRP503      0.0590
     46  CG       -61.9490   15.3120    2.6520 C.ar  503  TRP503      0.0006
     47  CD1      -62.8860   16.2580    2.4150 C.ar  503  TRP503      0.0946
     48  CD2      -62.6170   14.2380    3.3190 C.ar  503  TRP503      0.0152
     49  NE1      -64.1110   15.8440    2.8900 N.ar  503  TRP503     -0.2442
     50  CE2      -63.9630   14.6060    3.4630 C.ar  503  TRP503      0.0810
     51  CE3      -62.1950   12.9910    3.8190 C.ar  503  TRP503      0.0012
     52  CZ2      -64.8900   13.7990    4.1240 C.ar  503  TRP503      0.0191
     53  CZ3      -63.1130   12.1780    4.4530 C.ar  503  TRP503      0.0001
     54  CH2      -64.4580   12.6040    4.6130 C.ar  503  TRP503      0.0015
     55  N        -57.6780   15.7280    3.3560 N.am  504  GLN504     -0.1963
     56  CA       -56.2680   15.2210    3.3830 C.3   504  GLN504      0.1733
     57  C        -55.1120   16.2390    3.4930 C.2   504  GLN504      0.2616
     58  O        -53.9410   15.8600    3.3360 O.2   504  GLN504     -0.2715
     59  CB       -55.9910   14.3350    2.1470 C.3   504  GLN504      0.0408
     60  CG       -56.8510   13.0890    2.0070 C.3   504  GLN504      0.0908
     61  CD       -56.7000   12.4870    0.6240 C.2   504  GLN504      0.2608
     62  OE1      -56.5430   13.2060   -0.3920 O.2   504  GLN504     -0.2717
     63  NE2      -56.7730   11.1670    0.5600 N.am  504  GLN504     -0.0878
     64  N        -55.4290   17.5030    3.7710 N.am  505  GLY505     -0.1955
     65  CA       -54.4230   18.5510    3.8450 C.3   505  GLY505      0.1869
     66  C        -54.1020   19.0820    2.4750 C.2   505  GLY505      0.2309
     67  O        -53.0870   19.7490    2.2970 O.2   505  GLY505     -0.2863
     68  N        -55.3260   21.4730    0.7510 N.3   507  ASP507     -0.1225
     69  CA       -55.3270   22.9370    0.5650 C.3   507  ASP507      0.1805
     70  C        -53.8520   23.4670    0.6780 C.2   507  ASP507      0.2597
     71  O        -53.3740   24.1530   -0.2430 O.2   507  ASP507     -0.2718
     72  CB       -56.3540   23.6700    1.4880 C.3   507  ASP507      0.1424
     73  CG       -56.5450   25.1440    1.0850 C.2   507  ASP507      0.3668
     74  OD1      -56.9360   25.4380   -0.0730 O.co2 507  ASP507     -0.2456
     75  OD2      -56.2660   26.0380    1.9090 O.co2 507  ASP507     -0.2456
     76  N        -53.1100   23.0660    1.7120 N.am  508  GLN508     -0.1979
     77  CA       -51.6960   23.5220    1.8790 C.3   508  GLN508      0.1601
     78  C        -50.7910   23.0750    0.6850 C.2   508  GLN508      0.2287
     79  O        -49.9390   23.8150    0.2300 O.2   508  GLN508     -0.2864
     80  CB       -51.1180   23.0890    3.2650 C.3   508  GLN508      0.0394
     81  CG       -50.6000   21.6530    3.2900 C.3   508  GLN508      0.0908
     82  CD       -50.6570   20.9080    4.6310 C.2   508  GLN508      0.2608
     83  OE1      -50.7050   21.4930    5.7290 O.2   508  GLN508     -0.2717
     84  NE2      -50.6300   19.5800    4.5290 N.am  508  GLN508     -0.0878
@<TRIPOS>BOND
     1    40    38    1
     2    39    38    1
     3    38    37    1
     4    62    61    2
     5    71    70    2
     6    37    34    1
     7    74    73   ar
     8     7     6   ar
     9    79    78    2
    10    63    61   am
    11    69    70    1
    12    69    68    1
    13    69    72    1
    14    34    33    1
    15    34    35    1
    16    61    60    1
    17    70    76   am
    18    78    77    1
    19    73    72    1
    20    73    75   ar
    21     6     8   ar
    22     6     5    1
    23    41    35   am
    24    41    42    1
    25    44    43    2
    26    76    77    1
    27    35    36    2
    28    77    80    1
    29    60    59    1
    30    59    56    1
    31    45    42    1
    32    45    46    1
    33    67    66    2
    34     2     3    1
    35     2     5    1
    36     2     1    1
    37    43    42    1
    38    43    55   am
    39    47    46   ar
    40    47    49   ar
    41     3     4    2
    42    66    65    1
    43    46    48   ar
    44    49    50   ar
    45    80    81    1
    46    81    82    1
    47    48    50   ar
    48    48    51   ar
    49    58    57    2
    50    55    56    1
    51    56    57    1
    52    50    52   ar
    53    57    64   am
    54    64    65    1
    55    51    53   ar
    56    52    54   ar
    57    53    54   ar
    58    84    82   am
    59    82    83    2
    60    15    13    1
    61    24    25    1
    62    14    13    1
    63    13    10    1
    64    26    25    1
    65    26    27    2
    66    25    28    1
    67    12    11    2
    68    10     9    1
    69    10    11    1
    70    29    28    1
    71    29    30    1
    72    11    16   am
    73    23    21   ar
    74    20    21    1
    75    20    17    1
    76    31    30    1
    77    31    32    1
    78    21    22   ar
    79    16    17    1
    80    19    18    2
    81    17    18    1
