@<TRIPOS>MOLECULE
tmp/5ju6B15.pdb
 93 91 0 0 0
SMALL
GASTEIGER

@<TRIPOS>ATOM
      1  N        -89.0100  -18.3440   -1.7250 N.3    59  SER59      -0.1217
      2  CA       -89.3210  -19.1470   -2.9110 C.3    59  SER59       0.1889
      3  C        -90.8020  -19.5780   -2.9820 C.2    59  SER59       0.2288
      4  O        -91.5600  -19.4690   -2.0210 O.2    59  SER59      -0.2866
      5  CB       -88.4240  -20.4120   -2.9720 C.3    59  SER59       0.2089
      6  OG       -88.4840  -21.1730   -1.7810 O.3    59  SER59      -0.2183
      7  N        -91.3830  -23.1030   -4.2420 N.3    61  PRO61      -0.2116
      8  CA       -90.8380  -24.3710   -4.6910 C.3    61  PRO61       0.1372
      9  C        -91.8410  -25.3080   -5.3710 C.2    61  PRO61       0.2244
     10  O        -91.4280  -26.1980   -6.1630 O.2    61  PRO61      -0.2868
     11  CB       -90.2940  -25.0080   -3.4070 C.3    61  PRO61       0.0268
     12  CG       -90.9640  -24.2830   -2.3000 C.3    61  PRO61       0.0207
     13  CD       -91.1880  -22.9150   -2.7990 C.3    61  PRO61       0.0892
     14  N        -77.7070  -19.3380    5.6330 N.3   344  HIS344     -0.1241
     15  CA       -78.4230  -18.5380    6.6190 C.3   344  HIS344      0.1621
     16  C        -77.3640  -17.9450    7.5210 C.2   344  HIS344      0.2264
     17  O        -77.1390  -18.3480    8.6850 O.2   344  HIS344     -0.2867
     18  CB       -79.4450  -19.4310    7.3380 C.3   344  HIS344      0.0745
     19  CG       -80.3370  -20.1660    6.3960 C.ar  344  HIS344      0.0817
     20  ND1      -81.1090  -19.5190    5.4570 N.ar  344  HIS344     -0.2268
     21  CD2      -80.5430  -21.4900    6.2050 C.ar  344  HIS344      0.1154
     22  CE1      -81.7950  -20.4090    4.7590 C.ar  344  HIS344      0.1986
     23  NE2      -81.4390  -21.6150    5.1670 N.ar  344  HIS344     -0.2212
     24  N        -93.0250  -31.3620    7.4040 N.3   674  ASP674     -0.1225
     25  CA       -91.9200  -31.1510    6.4410 C.3   674  ASP674      0.1805
     26  C        -90.7230  -30.2300    6.8300 C.2   674  ASP674      0.2598
     27  O        -89.6330  -30.7390    7.0210 O.2   674  ASP674     -0.2718
     28  CB       -92.5570  -30.6600    5.1050 C.3   674  ASP674      0.1424
     29  CG       -91.7410  -31.0100    3.8720 C.2   674  ASP674      0.3668
     30  OD1      -90.8320  -31.8580    3.9540 O.co2 674  ASP674     -0.2456
     31  OD2      -92.0450  -30.4490    2.7950 O.co2 674  ASP674     -0.2456
     32  N        -90.9120  -28.9060    6.9290 N.am  675  ILE675     -0.1966
     33  CA       -89.7890  -27.9530    7.1540 C.3   675  ILE675      0.1727
     34  C        -89.2590  -27.8230    8.6090 C.2   675  ILE675      0.2616
     35  O        -90.0240  -27.9230    9.5820 O.2   675  ILE675     -0.2715
     36  CB       -90.1110  -26.5030    6.6660 C.3   675  ILE675      0.0290
     37  CG1      -91.1790  -25.8460    7.5370 C.3   675  ILE675      0.0022
     38  CG2      -90.4990  -26.4570    5.1940 C.3   675  ILE675      0.0023
     39  CD1      -90.6130  -24.9100    8.5830 C.3   675  ILE675      0.0001
     40  N        -87.9520  -27.5380    8.7200 N.am  676  GLU676     -0.1977
     41  CA       -87.2700  -27.2460    9.9930 C.3   676  GLU676      0.1602
     42  C        -86.9870  -25.7470   10.0950 C.2   676  GLU676      0.2287
     43  O        -86.2240  -25.1850    9.3130 O.2   676  GLU676     -0.2864
     44  CB       -85.9660  -28.0680   10.1440 C.3   676  GLU676      0.0415
     45  CG       -85.6520  -28.4560   11.5890 C.3   676  GLU676      0.1163
     46  CD       -86.7860  -29.2450   12.2290 C.2   676  GLU676      0.3649
     47  OE1      -87.1670  -30.3000   11.6670 O.co2 676  GLU676     -0.2457
     48  OE2      -87.3190  -28.7910   13.2670 O.co2 676  GLU676     -0.2457
     49  N        -85.8210  -22.2990   10.5490 N.3   678  VAL678     -0.1245
     50  CA       -84.5550  -21.6310   10.7280 C.3   678  VAL678      0.1561
     51  C        -84.8360  -20.4990   11.7070 C.2   678  VAL678      0.2260
     52  O        -85.7610  -19.7060   11.4610 O.2   678  VAL678     -0.2867
     53  CB       -84.0240  -21.0100    9.4120 C.3   678  VAL678      0.0252
     54  CG1      -82.7440  -20.2000    9.6480 C.3   678  VAL678      0.0019
     55  CG2      -83.8150  -22.0630    8.3390 C.3   678  VAL678      0.0019
     56  N        -85.6190  -16.6010   10.7830 N.3   681  TYR681     -0.1241
     57  CA       -86.0820  -16.5870    9.3720 C.3   681  TYR681      0.1605
     58  C        -87.5670  -16.2140    9.2830 C.2   681  TYR681      0.2264
     59  O        -88.3920  -16.7580   10.0180 O.2   681  TYR681     -0.2867
     60  CB       -85.8590  -17.9590    8.7330 C.3   681  TYR681      0.0534
     61  CG       -85.7460  -17.9750    7.2060 C.ar  681  TYR681     -0.0201
     62  CD1      -84.5440  -17.6900    6.5720 C.ar  681  TYR681     -0.0009
     63  CD2      -86.8250  -18.3210    6.4050 C.ar  681  TYR681     -0.0009
     64  CE1      -84.4230  -17.7360    5.1800 C.ar  681  TYR681      0.0417
     65  CE2      -86.7050  -18.3880    5.0300 C.ar  681  TYR681      0.0417
     66  CZ       -85.5110  -18.0860    4.4130 C.ar  681  TYR681      0.1957
     67  OH       -85.4230  -18.1120    3.0310 O.3   681  TYR681     -0.2866
     68  N        -91.0010  -16.3270    7.6620 N.3   683  TYR683     -0.1241
     69  CA       -91.8360  -17.2650    6.9290 C.3   683  TYR683      0.1605
     70  C        -93.2650  -16.6940    6.7910 C.2   683  TYR683      0.2264
     71  O        -93.6400  -15.7660    7.5180 O.2   683  TYR683     -0.2867
     72  CB       -91.8870  -18.5830    7.7020 C.3   683  TYR683      0.0534
     73  CG       -90.6130  -19.4380    7.7320 C.ar  683  TYR683     -0.0201
     74  CD1      -90.2510  -20.2110    6.6460 C.ar  683  TYR683     -0.0009
     75  CD2      -89.8470  -19.5570    8.8910 C.ar  683  TYR683     -0.0009
     76  CE1      -89.1640  -21.0570    6.6940 C.ar  683  TYR683      0.0417
     77  CE2      -88.7400  -20.4010    8.9480 C.ar  683  TYR683      0.0417
     78  CZ       -88.3960  -21.1400    7.8410 C.ar  683  TYR683      0.1957
     79  OH       -87.2790  -21.9630    7.8570 O.3   683  TYR683     -0.2866
     80  N        -96.0770  -18.5440    7.2290 N.3   685  TRP685     -0.1241
     81  CA       -97.0090  -19.4980    7.8090 C.3   685  TRP685      0.1605
     82  C        -97.3940  -19.1030    9.2480 C.2   685  TRP685      0.2264
     83  O        -96.7530  -18.2410    9.8330 O.2   685  TRP685     -0.2867
     84  CB       -96.3850  -20.8900    7.8020 C.3   685  TRP685      0.0550
     85  CG       -96.1610  -21.4460    6.4510 C.ar  685  TRP685      0.0003
     86  CD1      -97.0900  -21.6390    5.4840 C.ar  685  TRP685      0.0946
     87  CD2      -94.9400  -21.9700    5.9400 C.ar  685  TRP685      0.0152
     88  NE1      -96.5190  -22.2310    4.3760 N.ar  685  TRP685     -0.2442
     89  CE2      -95.1940  -22.4280    4.6260 C.ar  685  TRP685      0.0810
     90  CE3      -93.6410  -22.0790    6.4510 C.ar  685  TRP685      0.0012
     91  CZ2      -94.2130  -22.9920    3.8370 C.ar  685  TRP685      0.0191
     92  CZ3      -92.6510  -22.6440    5.6470 C.ar  685  TRP685      0.0001
     93  CH2      -92.9450  -23.0890    4.3620 C.ar  685  TRP685      0.0015
@<TRIPOS>BOND
     1    10     9    2
     2     9     8    1
     3     8     7    1
     4     8    11    1
     5     7    13    1
     6    11    12    1
     7     3     2    1
     8     3     4    2
     9     5     2    1
    10     5     6    1
    11     2     1    1
    12    13    12    1
    13    31    29   ar
    14    67    66    1
    15    91    93   ar
    16    91    89   ar
    17    29    30   ar
    18    29    28    1
    19    93    92   ar
    20    88    89   ar
    21    88    86   ar
    22    66    65   ar
    23    66    64   ar
    24    89    87   ar
    25    22    23   ar
    26    22    20   ar
    27    65    63   ar
    28    28    25    1
    29    23    21   ar
    30    64    62   ar
    31    38    36    1
    32    20    19   ar
    33    86    85   ar
    34    14    15    1
    35    92    90   ar
    36    87    90   ar
    37    87    85   ar
    38    21    19   ar
    39    19    18    1
    40    63    61   ar
    41    25    26    1
    42    25    24    1
    43    85    84    1
    44    62    61   ar
    45    15    18    1
    46    15    16    1
    47    74    76   ar
    48    74    73   ar
    49    36    33    1
    50    36    37    1
    51    76    78   ar
    52    70    69    1
    53    70    71    2
    54    26    32   am
    55    26    27    2
    56    69    68    1
    57    69    72    1
    58    32    33    1
    59    33    34    1
    60    61    60    1
    61    80    81    1
    62    16    17    2
    63    37    39    1
    64    72    73    1
    65    73    75   ar
    66    84    81    1
    67    81    82    1
    68    78    79    1
    69    78    77   ar
    70    55    53    1
    71    34    40   am
    72    34    35    2
    73    40    41    1
    74    60    57    1
    75    75    77   ar
    76    82    83    2
    77    58    57    1
    78    58    59    2
    79    43    42    2
    80    57    56    1
    81    53    54    1
    82    53    50    1
    83    41    42    1
    84    41    44    1
    85    44    45    1
    86    49    50    1
    87    50    51    1
    88    52    51    2
    89    45    46    1
    90    47    46   ar
    91    46    48   ar
