@<TRIPOS>MOLECULE
tmp/5ju6B16.pdb
 109 105 0 0 0
SMALL
GASTEIGER

@<TRIPOS>ATOM
      1  N        -96.6370   19.5630    9.9780 N.3     3  ALA3       -0.1231
      2  CA       -96.9520   19.2200    8.6000 C.3     3  ALA3        0.1694
      3  C        -97.7890   17.9510    8.6020 C.2     3  ALA3        0.2592
      4  O        -97.5880   17.0690    9.4180 O.2     3  ALA3       -0.2718
      5  CB       -95.6880   19.0480    7.7820 C.3     3  ALA3        0.0304
      6  N        -98.7990   17.9190    7.7490 N.am    4  TYR4       -0.1962
      7  CA       -99.7320   16.8050    7.6950 C.3     4  TYR4        0.1771
      8  C        -99.7820   16.2180    6.2620 C.2     4  TYR4        0.2620
      9  O        -99.8260   16.9890    5.2860 O.2     4  TYR4       -0.2715
     10  CB      -101.1180   17.3150    8.1270 C.3     4  TYR4        0.0574
     11  CG      -102.2180   16.2720    8.0380 C.ar    4  TYR4       -0.0198
     12  CD1     -102.3190   15.2510    8.9920 C.ar    4  TYR4       -0.0009
     13  CD2     -103.1270   16.3020    6.9950 C.ar    4  TYR4       -0.0009
     14  CE1     -103.3170   14.3060    8.9140 C.ar    4  TYR4        0.0417
     15  CE2     -104.1310   15.3570    6.8980 C.ar    4  TYR4        0.0417
     16  CZ      -104.2270   14.3620    7.8440 C.ar    4  TYR4        0.1957
     17  OH      -105.2400   13.4220    7.7220 O.3     4  TYR4       -0.2866
     18  N        -99.7880   14.8690    6.1720 N.am    5  SER5       -0.1936
     19  CA       -99.8590   14.1280    4.8950 C.3     5  SER5        0.2040
     20  C       -101.2440   13.5710    4.7320 C.2     5  SER5        0.2485
     21  O       -101.6440   12.6310    5.4580 O.2     5  SER5       -0.2729
     22  CB       -98.7990   12.9870    4.7720 C.3     5  SER5        0.2129
     23  OG       -98.5750   12.6410    3.4060 O.3     5  SER5       -0.2179
     24  N       -101.9940   14.1370    3.7760 N.am    6  PRO6       -0.2726
     25  CA      -103.3680   13.7010    3.6630 C.3     6  PRO6        0.1402
     26  C       -103.4710   12.2410    3.1670 C.2     6  PRO6        0.2269
     27  O       -102.5050   11.6900    2.6060 O.2     6  PRO6       -0.2865
     28  CB      -104.0200   14.7120    2.6730 C.3     6  PRO6        0.0296
     29  CG      -102.9130   15.4580    2.0330 C.3     6  PRO6        0.0237
     30  CD      -101.6600   15.2450    2.8440 C.3     6  PRO6        0.0939
     31  N        -92.6030   19.4350    2.1010 N.3   197  ALA197     -0.1231
     32  CA       -92.6100   20.2850    0.9270 C.3   197  ALA197      0.1694
     33  C        -94.0220   20.5810    0.4630 C.2   197  ALA197      0.2592
     34  O        -94.9530   19.7750    0.6650 O.2   197  ALA197     -0.2718
     35  CB       -91.8410   19.6140   -0.1900 C.3   197  ALA197      0.0304
     36  N        -94.1780   21.7220   -0.1930 N.am  198  ASP198     -0.1960
     37  CA       -95.4530   22.0390   -0.7840 C.3   198  ASP198      0.1840
     38  C        -95.6330   21.2940   -2.1330 C.2   198  ASP198      0.2622
     39  O        -94.6830   20.7210   -2.6570 O.2   198  ASP198     -0.2715
     40  CB       -95.6850   23.5620   -0.8050 C.3   198  ASP198      0.1450
     41  CG       -95.1090   24.2580   -1.9920 C.2   198  ASP198      0.3671
     42  OD1      -94.6450   23.6120   -2.9580 O.co2 198  ASP198     -0.2456
     43  OD2      -95.1640   25.5160   -1.9480 O.co2 198  ASP198     -0.2456
     44  N        -96.8650   21.2840   -2.6410 N.am  199  ASP199     -0.1971
     45  CA       -97.2800   20.4340   -3.7330 C.3   199  ASP199      0.1709
     46  C        -96.6560   20.8370   -5.0700 C.2   199  ASP199      0.2293
     47  O        -96.2980   19.9720   -5.8790 O.2   199  ASP199     -0.2864
     48  CB       -98.8180   20.4180   -3.8170 C.3   199  ASP199      0.1436
     49  CG       -99.3380   19.3530   -4.7380 C.2   199  ASP199      0.3671
     50  OD1      -98.8270   18.2090   -4.6620 O.co2 199  ASP199     -0.2456
     51  OD2     -100.2350   19.6580   -5.5490 O.co2 199  ASP199     -0.2456
     52  N        -92.8910   19.6920   -4.9630 N.3   202  MET202     -0.1245
     53  CA       -92.8230   18.2620   -5.2370 C.3   202  MET202      0.1570
     54  C        -92.9400   18.0380   -6.7360 C.2   202  MET202      0.2261
     55  O        -92.0920   17.3820   -7.3490 O.2   202  MET202     -0.2867
     56  CB       -93.9470   17.5740   -4.5020 C.3   202  MET202      0.0387
     57  CG       -94.1790   16.1040   -4.8340 C.3   202  MET202      0.0595
     58  SD       -92.8930   15.0270   -4.1850 S.3   202  MET202     -0.1393
     59  CE       -93.3720   15.0490   -2.4640 C.3   202  MET202      0.0692
     60  N        -92.3800   12.0560    5.0170 N.3   228  VAL228     -0.1231
     61  CA       -92.8160   13.2010    4.2480 C.3   228  VAL228      0.1692
     62  C        -94.1030   13.7240    4.8700 C.2   228  VAL228      0.2592
     63  O        -95.0570   13.0110    4.9750 O.2   228  VAL228     -0.2718
     64  CB       -93.0150   12.8290    2.7870 C.3   228  VAL228      0.0266
     65  CG1      -93.2120   14.0880    1.9630 C.3   228  VAL228      0.0020
     66  CG2      -91.7850   12.0840    2.3110 C.3   228  VAL228      0.0020
     67  N        -94.0790   14.9730    5.3080 N.am  229  ASN229     -0.1974
     68  CA       -95.1430   15.6060    6.0770 C.3   229  ASN229      0.1688
     69  C        -95.5700   14.7490    7.2550 C.2   229  ASN229      0.2292
     70  O        -96.7740   14.5600    7.4860 O.2   229  ASN229     -0.2864
     71  CB       -96.3630   15.8940    5.2240 C.3   229  ASN229      0.1181
     72  CG       -96.1760   17.0240    4.2350 C.2   229  ASN229      0.2629
     73  OD1      -95.1210   17.6230    4.1070 O.2   229  ASN229     -0.2716
     74  ND2      -97.2710   17.3050    3.5030 N.am  229  ASN229     -0.0877
     75  N        -96.7160    6.0330    3.4470 N.3   236  ASN236     -0.1240
     76  CA       -97.3090    7.2900    2.9860 C.3   236  ASN236      0.1653
     77  C        -98.1690    7.1250    1.7540 C.2   236  ASN236      0.2266
     78  O        -97.6510    6.9520    0.6320 O.2   236  ASN236     -0.2867
     79  CB       -96.2080    8.3060    2.7200 C.3   236  ASN236      0.1155
     80  CG       -96.7350    9.7210    2.5380 C.2   236  ASN236      0.2627
     81  OD1      -97.5700    9.9870    1.6600 O.2   236  ASN236     -0.2716
     82  ND2      -96.2050   10.6560    3.3440 N.am  236  ASN236     -0.0877
     83  N       -100.1890    9.2630    0.3170 N.3   238  TYR238     -0.1227
     84  CA      -100.1970   10.3320   -0.6390 C.3   238  TYR238      0.1736
     85  C        -99.0730   10.1220   -1.6700 C.2   238  TYR238      0.2596
     86  O        -99.3450   10.2160   -2.8380 O.2   238  TYR238     -0.2718
     87  CB      -100.1510   11.7130    0.0090 C.3   238  TYR238      0.0548
     88  CG      -100.6530   12.7510   -0.9280 C.ar  238  TYR238     -0.0200
     89  CD1     -102.0070   13.0110   -1.0140 C.ar  238  TYR238     -0.0009
     90  CD2      -99.8110   13.4380   -1.7690 C.ar  238  TYR238     -0.0009
     91  CE1     -102.5160   13.9510   -1.9010 C.ar  238  TYR238      0.0417
     92  CE2     -100.3160   14.3620   -2.6800 C.ar  238  TYR238      0.0417
     93  CZ      -101.6780   14.6100   -2.7330 C.ar  238  TYR238      0.1957
     94  OH      -102.2330   15.5420   -3.6080 O.3   238  TYR238     -0.2866
     95  N        -97.8410    9.8140   -1.2280 N.am  239  THR239     -0.1953
     96  CA       -96.6960    9.6080   -2.1450 C.3   239  THR239      0.1897
     97  C        -96.8280    8.3310   -2.9820 C.2   239  THR239      0.2313
     98  O        -96.6980    8.3920   -4.2240 O.2   239  THR239     -0.2863
     99  CB       -95.3140    9.6830   -1.4400 C.3   239  THR239      0.1794
    100  OG1      -95.2030    8.7190   -0.3860 O.3   239  THR239     -0.2208
    101  CG2      -95.0800   11.0900   -0.8690 C.3   239  THR239      0.0378
    102  N        -99.3340   10.0030   -5.7140 N.3   243  LEU243     -0.1245
    103  CA       -98.3290   10.5480   -6.6700 C.3   243  LEU243      0.1561
    104  C        -97.8100    9.4990   -7.6390 C.2   243  LEU243      0.2260
    105  O        -97.9750    9.6430   -8.8470 O.2   243  LEU243     -0.2867
    106  CB       -97.1690   11.2110   -5.9410 C.3   243  LEU243      0.0270
    107  CG       -97.6040   12.4620   -5.1590 C.3   243  LEU243      0.0019
    108  CD1      -96.4170   12.9940   -4.3860 C.3   243  LEU243      0.0001
    109  CD2      -98.1570   13.5880   -6.0260 C.3   243  LEU243      0.0001
@<TRIPOS>BOND
     1   105   104    2
     2   104   103    1
     3    55    54    2
     4    54    53    1
     5   103   106    1
     6   103   102    1
     7   109   107    1
     8   106   107    1
     9    47    46    2
    10    51    49   ar
    11    53    52    1
    12    53    56    1
    13   107   108    1
    14    46    45    1
    15    57    56    1
    16    57    58    1
    17    49    50   ar
    18    49    48    1
    19    98    97    2
    20    58    59    1
    21    48    45    1
    22    45    44    1
    23    94    93    1
    24    97    96    1
    25    42    41   ar
    26    86    85    2
    27    93    92   ar
    28    93    91   ar
    29    92    90   ar
    30    39    38    2
    31    44    38   am
    32    96    99    1
    33    96    95    1
    34    38    37    1
    35    41    43   ar
    36    41    40    1
    37    91    89   ar
    38    90    88   ar
    39    85    95   am
    40    85    84    1
    41    99   101    1
    42    99   100    1
    43    89    88   ar
    44    88    87    1
    45    40    37    1
    46    37    36    1
    47    84    87    1
    48    84    83    1
    49    36    33   am
    50    35    32    1
    51    33    34    2
    52    33    32    1
    53    78    77    2
    54    32    31    1
    55    81    80    2
    56    77    76    1
    57    65    64    1
    58    29    28    1
    59    29    30    1
    60    66    64    1
    61    80    79    1
    62    80    82   am
    63    27    26    2
    64    28    25    1
    65    79    76    1
    66    64    61    1
    67    30    24    1
    68    76    75    1
    69    26    25    1
    70    23    22    1
    71    74    72   am
    72    25    24    1
    73    24    20   am
    74    73    72    2
    75    72    71    1
    76    61    62    1
    77    61    60    1
    78    20    19    1
    79    20    21    2
    80    22    19    1
    81    62    63    2
    82    62    67   am
    83    19    18    1
    84    71    68    1
    85     9     8    2
    86    67    68    1
    87    68    69    1
    88    18     8   am
    89     8     7    1
    90    15    13   ar
    91    15    16   ar
    92    13    11   ar
    93    69    70    2
    94     7     6    1
    95     7    10    1
    96    17    16    1
    97     6     3   am
    98     5     2    1
    99    16    14   ar
   100    11    10    1
   101    11    12   ar
   102     2     3    1
   103     2     1    1
   104     3     4    2
   105    14    12   ar
