@<TRIPOS>MOLECULE
tmp/5ju6B19.pdb
 109 108 0 0 0
SMALL
GASTEIGER

@<TRIPOS>ATOM
      1  N        -95.3340   -0.5280    9.5020 N.3   263  SER263     -0.1202
      2  CA       -96.6500   -1.0220    9.8750 C.3   263  SER263      0.2020
      3  C        -96.9940   -2.1110    8.9060 C.2   263  SER263      0.2619
      4  O        -96.4250   -2.1290    7.7980 O.2   263  SER263     -0.2717
      5  CB       -97.7000    0.0660    9.7570 C.3   263  SER263      0.2103
      6  OG       -97.9280    0.4030    8.4070 O.3   263  SER263     -0.2182
      7  N        -97.9390   -2.9710    9.2960 N.am  264  GLY264     -0.1956
      8  CA       -98.4010   -4.0480    8.4150 C.3   264  GLY264      0.1869
      9  C        -99.5110   -3.6240    7.5010 C.2   264  GLY264      0.2309
     10  O        -99.2890   -3.2900    6.3070 O.2   264  GLY264     -0.2863
     11  N        -88.7150   -6.5880   11.1590 N.3   280  ILE280     -0.1245
     12  CA       -89.0830   -5.2980   11.7730 C.3   280  ILE280      0.1561
     13  C        -87.8100   -4.5520   12.1440 C.2   280  ILE280      0.2260
     14  O        -87.6240   -3.3830   11.7720 O.2   280  ILE280     -0.2867
     15  CB       -90.0310   -5.5030   13.0050 C.3   280  ILE280      0.0252
     16  CG1      -91.4040   -5.9840   12.5030 C.3   280  ILE280      0.0019
     17  CG2      -90.1240   -4.2080   13.8690 C.3   280  ILE280      0.0019
     18  CD1      -92.4590   -6.2600   13.5490 C.3   280  ILE280      0.0001
     19  N        -86.7030  -11.7360   14.0250 N.3   285  GLY285     -0.1210
     20  CA       -87.5520  -12.9030   13.9050 C.3   285  GLY285      0.1956
     21  C        -89.0140  -12.4840   13.8940 C.2   285  GLY285      0.2613
     22  O        -89.9190  -13.2940   14.1550 O.2   285  GLY285     -0.2717
     23  N        -89.2540  -11.2130   13.5910 N.am  286  THR286     -0.1938
     24  CA       -90.5950  -10.6460   13.5660 C.3   286  THR286      0.2028
     25  C        -90.7290   -9.8390   12.2840 C.2   286  THR286      0.2643
     26  O        -89.7530   -9.2280   11.8630 O.2   286  THR286     -0.2714
     27  CB       -90.8600   -9.7210   14.7630 C.3   286  THR286      0.1808
     28  OG1      -90.0230   -8.5580   14.6870 O.3   286  THR286     -0.2208
     29  CG2      -90.6330  -10.4500   16.1050 C.3   286  THR286      0.0379
     30  N        -91.9280   -9.8080   11.7090 N.am  287  SER287     -0.1935
     31  CA       -92.2000   -9.0760   10.4660 C.3   287  SER287      0.2055
     32  C        -93.5580   -8.4170   10.5750 C.2   287  SER287      0.2643
     33  O        -94.5060   -9.0200   11.0840 O.2   287  SER287     -0.2714
     34  CB       -92.1910  -10.0080    9.2470 C.3   287  SER287      0.2130
     35  OG       -92.5410   -9.3160    8.0310 O.3   287  SER287     -0.2179
     36  N        -93.6270   -7.1710   10.1010 N.am  288  PHE288     -0.1959
     37  CA       -94.8770   -6.5190    9.8430 C.3   288  PHE288      0.1771
     38  C        -95.7520   -7.2580    8.8200 C.2   288  PHE288      0.2619
     39  O        -96.9990   -7.1510    8.8840 O.2   288  PHE288     -0.2715
     40  CB       -94.6610   -5.0820    9.3850 C.3   288  PHE288      0.0574
     41  CG       -94.1890   -4.1770   10.4630 C.ar  288  PHE288     -0.0200
     42  CD1      -94.8700   -4.0960   11.6670 C.ar  288  PHE288     -0.0042
     43  CD2      -93.0800   -3.3550   10.2630 C.ar  288  PHE288     -0.0042
     44  CE1      -94.4120   -3.2360   12.6840 C.ar  288  PHE288     -0.0003
     45  CE2      -92.6290   -2.4840   11.2570 C.ar  288  PHE288     -0.0003
     46  CZ       -93.2880   -2.4270   12.4750 C.ar  288  PHE288     -0.0000
     47  N        -95.1190   -7.9670    7.8860 N.am  289  TRP289     -0.1974
     48  CA       -95.8020   -8.8720    6.9480 C.3   289  TRP289      0.1640
     49  C        -95.5040  -10.3740    7.2750 C.2   289  TRP289      0.2290
     50  O        -95.6410  -10.8070    8.4260 O.2   289  TRP289     -0.2864
     51  CB       -95.4460   -8.4560    5.5030 C.3   289  TRP289      0.0576
     52  CG       -96.0280   -7.1410    5.0670 C.ar  289  TRP289      0.0006
     53  CD1      -96.8920   -6.3300    5.7620 C.ar  289  TRP289      0.0946
     54  CD2      -95.8150   -6.4900    3.8040 C.ar  289  TRP289      0.0152
     55  NE1      -97.1920   -5.1920    5.0200 N.ar  289  TRP289     -0.2442
     56  CE2      -96.5720   -5.2980    3.8020 C.ar  289  TRP289      0.0810
     57  CE3      -95.0570   -6.8030    2.6800 C.ar  289  TRP289      0.0012
     58  CZ2      -96.5970   -4.4380    2.7150 C.ar  289  TRP289      0.0191
     59  CZ3      -95.1070   -5.9800    1.5890 C.ar  289  TRP289      0.0001
     60  CH2      -95.8660   -4.7940    1.6110 C.ar  289  TRP289      0.0015
     61  N        -95.9860  -13.9050    8.3100 N.3   291  THR291     -0.1203
     62  CA       -97.1300  -14.4150    9.0730 C.3   291  THR291      0.1994
     63  C        -98.2700  -13.3450    9.3040 C.2   291  THR291      0.2617
     64  O        -99.4670  -13.6150    9.1010 O.2   291  THR291     -0.2717
     65  CB       -96.7030  -15.0230   10.4390 C.3   291  THR291      0.1784
     66  OG1      -95.6390  -15.9820   10.2970 O.3   291  THR291     -0.2211
     67  CG2      -97.9140  -15.7230   11.0800 C.3   291  THR291      0.0376
     68  N        -97.9000  -12.1430    9.6920 N.am  292  ASN292     -0.1974
     69  CA       -98.8900  -11.0720    9.8330 C.3   292  ASN292      0.1688
     70  C        -99.6840  -10.7710    8.5580 C.2   292  ASN292      0.2292
     71  O       -100.9000  -10.4740    8.6380 O.2   292  ASN292     -0.2864
     72  CB       -98.2540   -9.7590   10.3080 C.3   292  ASN292      0.1181
     73  CG       -98.2010   -9.6200   11.8290 C.2   292  ASN292      0.2629
     74  OD1      -99.1640   -9.8880   12.5350 O.2   292  ASN292     -0.2716
     75  ND2      -97.0450   -9.1740   12.3320 N.am  292  ASN292     -0.0877
     76  N       -101.2180  -16.3400   16.5830 N.3   694  SER694     -0.1202
     77  CA      -100.1970  -16.4920   15.5320 C.3   694  SER694      0.2020
     78  C        -99.5800  -15.1230   15.1770 C.2   694  SER694      0.2619
     79  O        -98.3830  -15.0190   15.0560 O.2   694  SER694     -0.2717
     80  CB      -100.7480  -17.2330   14.2830 C.3   694  SER694      0.2103
     81  OG      -101.1050  -18.6060   14.5610 O.3   694  SER694     -0.2182
     82  N       -100.4100  -14.0880   15.0440 N.am  695  ALA695     -0.1965
     83  CA       -99.9480  -12.7230   14.7790 C.3   695  ALA695      0.1728
     84  C        -99.1730  -12.0920   15.9220 C.2   695  ALA695      0.2616
     85  O        -98.2780  -11.2530   15.6840 O.2   695  ALA695     -0.2715
     86  CB      -101.1260  -11.8440   14.4340 C.3   695  ALA695      0.0334
     87  N        -99.5420  -12.4600   17.1510 N.am  696  ASN696     -0.1958
     88  CA       -98.8920  -11.9600   18.3610 C.3   696  ASN696      0.1819
     89  C        -98.6900  -10.4350   18.3730 C.2   696  ASN696      0.2621
     90  O        -97.6250   -9.9620   18.7380 O.2   696  ASN696     -0.2715
     91  CB       -97.5450  -12.6820   18.5520 C.3   696  ASN696      0.1195
     92  CG       -96.8810  -12.3460   19.8890 C.2   696  ASN696      0.2630
     93  OD1      -97.4810  -12.5320   20.9550 O.2   696  ASN696     -0.2716
     94  ND2      -95.6600  -11.8150   19.8350 N.am  696  ASN696     -0.0877
     95  N        -99.7080   -9.6740   17.9610 N.am  697  ASP697     -0.1958
     96  CA       -99.6160   -8.2020   17.8470 C.3   697  ASP697      0.1825
     97  C       -100.3120   -7.6320   19.0790 C.2   697  ASP697      0.2464
     98  O       -101.4840   -7.9840   19.3260 O.2   697  ASP697     -0.2730
     99  CB      -100.2940   -7.7070   16.5560 C.3   697  ASP697      0.1450
    100  CG      -100.1050   -6.1930   16.3070 C.2   697  ASP697      0.3671
    101  OD1     -100.3410   -5.3570   17.1780 O.co2 697  ASP697     -0.2456
    102  OD2      -99.7250   -5.8040   15.2080 O.co2 697  ASP697     -0.2456
    103  N        -99.6190   -6.7520   19.8520 N.am  698  PRO698     -0.2727
    104  CA      -100.1970   -6.2080   21.0860 C.3   698  PRO698      0.1402
    105  C       -101.5220   -5.4540   20.9250 C.2   698  PRO698      0.2269
    106  O       -102.2600   -5.3640   21.8920 O.2   698  PRO698     -0.2865
    107  CB       -99.1230   -5.2180   21.5680 C.3   698  PRO698      0.0296
    108  CG       -98.4380   -4.7950   20.3270 C.3   698  PRO698      0.0237
    109  CD       -98.3370   -6.0870   19.5510 C.3   698  PRO698      0.0939
@<TRIPOS>BOND
     1    59    60   ar
     2    59    57   ar
     3    60    58   ar
     4    57    54   ar
     5    58    56   ar
     6    56    54   ar
     7    56    55   ar
     8    54    52   ar
     9    55    53   ar
    10    52    51    1
    11    52    53   ar
    12    51    48    1
    13    10     9    2
    14    48    49    1
    15    48    47    1
    16    49    50    2
    17     9     8    1
    18     4     3    2
    19    47    38   am
    20    35    34    1
    21    61    62    1
    22     6     5    1
    23     8     7    1
    24    70    71    2
    25    70    69    1
    26    38    39    2
    27    38    37    1
    28     3     7   am
    29     3     2    1
    30    62    63    1
    31    62    65    1
    32    64    63    2
    33    34    31    1
    34    63    68   am
    35    40    37    1
    36    40    41    1
    37     1     2    1
    38    68    69    1
    39     5     2    1
    40    69    72    1
    41    37    36    1
    42    36    32   am
    43    43    41   ar
    44    43    45   ar
    45    66    65    1
    46    72    73    1
    47    65    67    1
    48    41    42   ar
    49    31    32    1
    50    31    30    1
    51    32    33    2
    52    11    12    1
    53    45    46   ar
    54    42    44   ar
    55    30    25   am
    56    14    13    2
    57    12    13    1
    58    12    15    1
    59    73    75   am
    60    73    74    2
    61    26    25    2
    62    25    24    1
    63    46    44   ar
    64    16    15    1
    65    16    18    1
    66    15    17    1
    67    24    23    1
    68    24    27    1
    69    23    21   am
    70    21    20    1
    71    21    22    2
    72    20    19    1
    73    80    81    1
    74    80    77    1
    75    86    83    1
    76    28    27    1
    77    27    29    1
    78    83    82    1
    79    83    84    1
    80    82    78   am
    81    79    78    2
    82    78    77    1
    83   102   100   ar
    84    77    76    1
    85    85    84    2
    86    84    87   am
    87   100    99    1
    88   100   101   ar
    89    99    96    1
    90    87    88    1
    91    96    95    1
    92    96    97    1
    93    95    89   am
    94    88    89    1
    95    88    91    1
    96    89    90    2
    97    91    92    1
    98    97    98    2
    99    97   103   am
   100   109   103    1
   101   109   108    1
   102    94    92   am
   103   103   104    1
   104    92    93    2
   105   108   107    1
   106   105   104    1
   107   105   106    2
   108   104   107    1
