@<TRIPOS>MOLECULE
tmp/5jugA00.pdb
 93 92 0 0 0
SMALL
GASTEIGER

@<TRIPOS>ATOM
      1  N         -5.4320   32.4190    7.7360 N.3    12  TYR12      -0.1241
      2  CA        -4.8810   33.6170    8.3530 C.3    12  TYR12       0.1605
      3  C         -3.3810   33.6250    8.1670 C.2    12  TYR12       0.2264
      4  O         -2.7660   32.6150    7.8120 O.2    12  TYR12      -0.2867
      5  CB        -5.2770   33.7570    9.8280 C.3    12  TYR12       0.0534
      6  CG        -4.8540   32.6290   10.7420 C.ar   12  TYR12      -0.0201
      7  CD1       -5.6870   31.5570   10.9400 C.ar   12  TYR12      -0.0009
      8  CD2       -3.6350   32.6380   11.4180 C.ar   12  TYR12      -0.0009
      9  CE1       -5.3400   30.5190   11.7880 C.ar   12  TYR12       0.0417
     10  CE2       -3.2820   31.6260   12.2780 C.ar   12  TYR12       0.0417
     11  CZ        -4.1400   30.5510   12.4630 C.ar   12  TYR12       0.1957
     12  OH        -3.8550   29.5350   13.3340 O.3    12  TYR12      -0.2866
     13  N         -1.9940   21.3680    9.6050 N.3    39  LEU39      -0.1231
     14  CA        -3.0740   21.0690   10.5280 C.3    39  LEU39       0.1693
     15  C         -2.5910   21.0200   11.9820 C.2    39  LEU39       0.2592
     16  O         -3.3390   21.3740   12.8840 O.2    39  LEU39      -0.2718
     17  CB        -3.7630   19.7640   10.1360 C.3    39  LEU39       0.0284
     18  CG        -4.9430   19.3420   10.9970 C.3    39  LEU39       0.0019
     19  CD1       -6.0520   20.3860   10.9760 C.3    39  LEU39       0.0001
     20  CD2       -5.4710   17.9930   10.5450 C.3    39  LEU39       0.0001
     21  N         -1.3610   20.5520   12.2230 N.am   40  GLN40      -0.1966
     22  CA        -0.9150   20.2770   13.5910 C.3    40  GLN40       0.1733
     23  C         -0.5080   21.4810   14.3930 C.2    40  GLN40       0.2617
     24  O         -0.7570   21.5130   15.6110 O.2    40  GLN40      -0.2715
     25  CB         0.2460   19.2800   13.6870 C.3    40  GLN40       0.0408
     26  CG         0.1070   18.0520   12.8500 C.3    40  GLN40       0.0908
     27  CD        -1.1630   17.3550   12.9810 C.2    40  GLN40       0.2608
     28  OE1       -1.7380   17.2400   14.0960 O.2    40  GLN40      -0.2717
     29  NE2       -1.6420   16.8230   11.8370 N.am   40  GLN40      -0.0878
     30  N          0.2010   22.4360   13.7590 N.am   41  THR41      -0.1937
     31  CA         0.7060   23.5920   14.4630 C.3    41  THR41       0.2028
     32  C          0.6510   24.7780   13.5000 C.2    41  THR41       0.2642
     33  O          0.5840   24.6170   12.2970 O.2    41  THR41      -0.2714
     34  CB         2.1660   23.4440   14.9850 C.3    41  THR41       0.1808
     35  OG1        3.1070   23.5720   13.9020 O.3    41  THR41      -0.2208
     36  CG2        2.3990   22.1580   15.7440 C.3    41  THR41       0.0379
     37  N          0.7480   25.9580   14.0830 N.am   42  GLU42      -0.1976
     38  CA         0.7260   27.1840   13.2600 C.3    42  GLU42       0.1602
     39  C          2.0280   27.4600   12.5460 C.2    42  GLU42       0.2287
     40  O          2.0060   27.9490   11.4110 O.2    42  GLU42      -0.2864
     41  CB         0.4050   28.3910   14.1280 C.3    42  GLU42       0.0415
     42  CG        -0.9760   28.3770   14.7200 C.3    42  GLU42       0.1163
     43  CD        -1.2870   29.6010   15.5210 C.2    42  GLU42       0.3649
     44  OE1       -0.4430   30.0250   16.3420 O.co2  42  GLU42      -0.2457
     45  OE2       -2.3690   30.1930   15.3180 O.co2  42  GLU42      -0.2457
     46  N         -1.6970   30.3360    6.5340 N.3   160  ARG160     -0.1245
     47  CA        -2.1200   29.0960    7.1180 C.3   160  ARG160      0.1563
     48  C         -3.5880   28.8310    6.8040 C.2   160  ARG160      0.2260
     49  O         -4.4320   29.6890    7.0950 O.2   160  ARG160     -0.2867
     50  CB        -1.9190   29.1190    8.6400 C.3   160  ARG160      0.0307
     51  CG        -2.3790   27.8110    9.2710 C.3   160  ARG160      0.0489
     52  CD        -2.0500   27.6880   10.7550 C.3   160  ARG160      0.2205
     53  NE        -2.3660   26.3520   11.2100 N.pl3 160  ARG160     -0.0865
     54  CZ        -3.4960   26.0010   11.7950 C.cat 160  ARG160      0.5346
     55  NH1       -4.2700   26.8830   12.3920 N.pl3 160  ARG160      0.1354
     56  NH2       -3.8190   24.7210   11.8420 N.pl3 160  ARG160      0.1354
     57  N         -6.7390   26.2130    7.6070 N.3   162  TRP162     -0.1227
     58  CA        -7.0830   25.3400    8.7210 C.3   162  TRP162      0.1737
     59  C         -8.5120   24.8380    8.5930 C.2   162  TRP162      0.2595
     60  O         -9.3700   25.4710    7.9960 O.2   162  TRP162     -0.2718
     61  CB        -6.8740   26.0750   10.0460 C.3   162  TRP162      0.0564
     62  CG        -7.7360   27.2850   10.2460 C.ar  162  TRP162      0.0003
     63  CD1       -7.4580   28.5480    9.8360 C.ar  162  TRP162      0.0946
     64  CD2       -9.0530   27.3250   10.7680 C.ar  162  TRP162      0.0152
     65  NE1       -8.5010   29.3780   10.1070 N.ar  162  TRP162     -0.2442
     66  CE2       -9.5030   28.6450   10.6830 C.ar  162  TRP162      0.0810
     67  CE3       -9.9000   26.3710   11.3180 C.ar  162  TRP162      0.0012
     68  CZ2      -10.7590   29.0450   11.1370 C.ar  162  TRP162      0.0191
     69  CZ3      -11.1330   26.7600   11.7580 C.ar  162  TRP162      0.0001
     70  CH2      -11.5540   28.0990   11.6980 C.ar  162  TRP162      0.0015
     71  N         -8.7210   23.6860    9.2290 N.am  163  VAL163     -0.1966
     72  CA       -10.0410   23.0940    9.4350 C.3   163  VAL163      0.1727
     73  C        -10.0860   22.7180   10.8900 C.2   163  VAL163      0.2616
     74  O         -9.1320   22.1270   11.4120 O.2   163  VAL163     -0.2715
     75  CB       -10.2590   21.8260    8.5790 C.3   163  VAL163      0.0290
     76  CG1      -11.6070   21.1820    8.8250 C.3   163  VAL163      0.0023
     77  CG2      -10.0460   22.1160    7.1110 C.3   163  VAL163      0.0023
     78  N        -11.1770   23.0230   11.5810 N.am  164  GLN164     -0.1963
     79  CA       -11.2530   22.6710   13.0130 C.3   164  GLN164      0.1733
     80  C        -11.4840   21.1800   13.1560 C.2   164  GLN164      0.2616
     81  O        -12.5030   20.6540   12.7370 O.2   164  GLN164     -0.2715
     82  CB       -12.2920   23.5010   13.7270 C.3   164  GLN164      0.0408
     83  CG       -12.3940   23.2360   15.2100 C.3   164  GLN164      0.0908
     84  CD       -11.1070   23.5030   15.9930 C.2   164  GLN164      0.2608
     85  OE1      -10.2710   24.3310   15.5880 O.2   164  GLN164     -0.2717
     86  NE2      -10.9490   22.8410   17.1050 N.am  164  GLN164     -0.0878
     87  N        -10.5100   20.5170   13.7630 N.am  165  VAL165     -0.1977
     88  CA       -10.5480   19.0800   14.0010 C.3   165  VAL165      0.1596
     89  C        -10.3020   18.8810   15.4910 C.2   165  VAL165      0.2287
     90  O         -9.1820   19.1400   15.9700 O.2   165  VAL165     -0.2864
     91  CB        -9.5020   18.3350   13.1830 C.3   165  VAL165      0.0276
     92  CG1       -9.5360   16.8550   13.5040 C.3   165  VAL165      0.0022
     93  CG2       -9.7260   18.5580   11.6940 C.3   165  VAL165      0.0022
@<TRIPOS>BOND
     1    46    47    1
     2    48    49    2
     3    48    47    1
     4    77    75    1
     5    47    50    1
     6    57    58    1
     7     1     2    1
     8     4     3    2
     9    60    59    2
    10     3     2    1
    11     2     5    1
    12    75    76    1
    13    75    72    1
    14    59    58    1
    15    59    71   am
    16    50    51    1
    17    58    61    1
    18    71    72    1
    19    51    52    1
    20    72    73    1
    21    13    14    1
    22     5     6    1
    23    63    65   ar
    24    63    62   ar
    25    61    62    1
    26    65    66   ar
    27    17    14    1
    28    17    18    1
    29    62    64   ar
    30    14    15    1
    31    20    18    1
    32    66    64   ar
    33    66    68   ar
    34     6     7   ar
    35     6     8   ar
    36    52    53    1
    37    64    67   ar
    38    73    74    2
    39    73    78   am
    40     7     9   ar
    41    19    18    1
    42    68    70   ar
    43    53    54    2
    44    67    69   ar
    45    40    39    2
    46     8    10   ar
    47    78    79    1
    48    93    91    1
    49    70    69   ar
    50     9    11   ar
    51    54    56    1
    52    54    55    1
    53    29    27   am
    54    15    21   am
    55    15    16    2
    56    21    22    1
    57    10    11   ar
    58    33    32    2
    59    11    12    1
    60    39    38    1
    61    81    80    2
    62    26    27    1
    63    26    25    1
    64    27    28    2
    65    79    80    1
    66    79    82    1
    67    80    87   am
    68    91    92    1
    69    91    88    1
    70    38    37    1
    71    38    41    1
    72    32    37   am
    73    32    31    1
    74    22    25    1
    75    22    23    1
    76    82    83    1
    77    30    23   am
    78    30    31    1
    79    87    88    1
    80    35    34    1
    81    88    89    1
    82    41    42    1
    83    23    24    2
    84    31    34    1
    85    42    43    1
    86    34    36    1
    87    83    84    1
    88    45    43   ar
    89    89    90    2
    90    43    44   ar
    91    85    84    2
    92    84    86   am
