@<TRIPOS>MOLECULE
tmp/5jugA02.pdb
 97 90 0 0 0
SMALL
GASTEIGER

@<TRIPOS>ATOM
      1  N         -1.3610   20.5520   12.2230 N.3    40  GLN40      -0.1245
      2  CA        -0.9150   20.2770   13.5910 C.3    40  GLN40       0.1566
      3  C         -0.5080   21.4810   14.3930 C.2    40  GLN40       0.2260
      4  O         -0.7570   21.5130   15.6110 O.2    40  GLN40      -0.2867
      5  CB         0.2460   19.2800   13.6870 C.3    40  GLN40       0.0367
      6  CG         0.1070   18.0520   12.8500 C.3    40  GLN40       0.0905
      7  CD        -1.1630   17.3550   12.9810 C.2    40  GLN40       0.2608
      8  OE1       -1.7380   17.2400   14.0960 O.2    40  GLN40      -0.2717
      9  NE2       -1.6420   16.8230   11.8370 N.am   40  GLN40      -0.0878
     10  N          3.1440   16.1660   23.2120 N.3    52  ASP52      -0.1239
     11  CA         1.7900   16.7020   23.2520 C.3    52  ASP52       0.1674
     12  C          1.0260   16.2300   24.5070 C.2    52  ASP52       0.2266
     13  O         -0.1520   15.9170   24.4580 O.2    52  ASP52      -0.2867
     14  CB         0.9850   16.4610   21.9920 C.3    52  ASP52       0.1410
     15  CG        -0.0910   17.5270   21.7830 C.2    52  ASP52       0.3668
     16  OD1        0.2530   18.7060   21.8900 O.co2  52  ASP52      -0.2456
     17  OD2       -1.2380   17.2060   21.4670 O.co2  52  ASP52      -0.2456
     18  N          1.2970   13.5410   26.2100 N.3    54  LYS54      -0.1245
     19  CA         1.0340   12.1110   26.1980 C.3    54  LYS54       0.1561
     20  C          2.3660   11.4020   26.3950 C.2    54  LYS54       0.2260
     21  O          3.4250   11.9140   26.0240 O.2    54  LYS54      -0.2867
     22  CB         0.3810   11.7150   24.8600 C.3    54  LYS54       0.0271
     23  CG        -1.0010   12.2830   24.6510 C.3    54  LYS54       0.0035
     24  CD        -1.4700   12.1980   23.1980 C.3    54  LYS54       0.0206
     25  CE        -2.9100   12.5950   23.0170 C.3    54  LYS54       0.1093
     26  NZ        -3.2740   12.6410   21.5810 N.3    54  LYS54      -0.1314
     27  N          3.5160   12.2550   21.0220 N.3    60  ASN60      -0.1240
     28  CA         3.6920   12.8880   19.7280 C.3    60  ASN60       0.1653
     29  C          5.0230   13.6360   19.6260 C.2    60  ASN60       0.2266
     30  O          5.3710   14.3810   20.5380 O.2    60  ASN60      -0.2867
     31  CB         2.6240   13.9780   19.4910 C.3    60  ASN60       0.1155
     32  CG         1.1850   13.5830   19.4170 C.2    60  ASN60       0.2627
     33  OD1        0.3850   14.4730   19.0030 O.2    60  ASN60      -0.2716
     34  ND2        0.7960   12.3870   19.7080 N.am   60  ASN60      -0.0877
     35  N          3.4890   15.6640   14.4180 N.3    65  LYS65      -0.1245
     36  CA         2.8930   15.0050   15.6070 C.3    65  LYS65       0.1561
     37  C          2.6910   13.5080   15.3730 C.2    65  LYS65       0.2260
     38  O          1.6620   12.9380   15.6950 O.2    65  LYS65      -0.2867
     39  CB         1.6220   15.7140   16.0860 C.3    65  LYS65       0.0271
     40  CG         1.8830   17.0910   16.6330 C.3    65  LYS65       0.0035
     41  CD         0.7040   17.6720   17.3620 C.3    65  LYS65       0.0206
     42  CE         0.9800   19.0480   17.9130 C.3    65  LYS65       0.1093
     43  NZ        -0.0690   19.5450   18.8190 N.3    65  LYS65      -0.1314
     44  N          3.0930    9.6850   16.2560 N.3    67  ASN67      -0.1240
     45  CA         3.0970    9.0120   17.5520 C.3    67  ASN67       0.1653
     46  C          4.1620    7.9190   17.6200 C.2    67  ASN67       0.2266
     47  O          4.5910    7.3260   16.6240 O.2    67  ASN67      -0.2867
     48  CB         1.7110    8.5260   17.9420 C.3    67  ASN67       0.1155
     49  CG         1.1450    7.4760   17.0030 C.2    67  ASN67       0.2627
     50  OD1        1.5980    6.3270   16.9530 O.2    67  ASN67      -0.2716
     51  ND2        0.1320    7.8790   16.2370 N.am   67  ASN67      -0.0877
     52  N         -2.3380    7.7210   12.5730 N.3   119  HIS119     -0.1226
     53  CA        -1.8740    9.0760   12.9030 C.3   119  HIS119      0.1752
     54  C         -2.9340    9.8120   13.7200 C.2   119  HIS119      0.2595
     55  O         -2.6270   10.5400   14.6500 O.2   119  HIS119     -0.2718
     56  CB        -1.4980    9.8360   11.6380 C.3   119  HIS119      0.0759
     57  CG        -0.7450   11.0630   11.9010 C.ar  119  HIS119      0.0818
     58  ND1        0.5340   11.0360   12.3900 N.ar  119  HIS119     -0.2268
     59  CD2       -1.0800   12.3540   11.6940 C.ar  119  HIS119      0.1154
     60  CE1        0.9620   12.2740   12.4820 C.ar  119  HIS119      0.1986
     61  NE2        0.0090   13.0890   12.0680 N.ar  119  HIS119     -0.2212
     62  N         -4.2030    9.6330   13.3400 N.am  120  ARG120     -0.1980
     63  CA        -5.2950   10.2550   14.0810 C.3   120  ARG120      0.1597
     64  C         -5.5530    9.5280   15.4010 C.2   120  ARG120      0.2287
     65  O         -5.7350   10.2000   16.4300 O.2   120  ARG120     -0.2864
     66  CB        -6.5570   10.2380   13.2300 C.3   120  ARG120      0.0334
     67  CG        -7.8160   10.7090   13.9050 C.3   120  ARG120      0.0492
     68  CD        -7.6740   12.0460   14.5670 C.3   120  ARG120      0.2205
     69  NE        -8.9730   12.5700   14.9730 N.pl3 120  ARG120     -0.0865
     70  CZ        -9.1330   13.7080   15.6190 C.cat 120  ARG120      0.5346
     71  NH1       -8.0960   14.4740   15.8790 N.pl3 120  ARG120      0.1354
     72  NH2      -10.3580   14.1180   15.9600 N.pl3 120  ARG120      0.1354
     73  N        -10.9050   13.5750    9.7140 N.3   137  TYR137     -0.1241
     74  CA        -9.5070   14.0270    9.8270 C.3   137  TYR137      0.1605
     75  C         -8.8220   14.0220    8.4580 C.2   137  TYR137      0.2264
     76  O         -8.1810   14.9980    8.0580 O.2   137  TYR137     -0.2867
     77  CB        -8.7850   13.1110   10.8140 C.3   137  TYR137      0.0534
     78  CG        -7.3580   13.4760   11.0090 C.ar  137  TYR137     -0.0201
     79  CD1       -7.0330   14.3430   12.0090 C.ar  137  TYR137     -0.0009
     80  CD2       -6.3370   12.9250   10.2540 C.ar  137  TYR137     -0.0009
     81  CE1       -5.7460   14.6710   12.2970 C.ar  137  TYR137      0.0417
     82  CE2       -5.0200   13.2520   10.4790 C.ar  137  TYR137      0.0417
     83  CZ        -4.7540   14.1470   11.5290 C.ar  137  TYR137      0.1957
     84  OH        -3.4620   14.4460   11.8590 O.3   137  TYR137     -0.2866
     85  N         -9.2870   18.0260   19.1430 N.3   167  ALA167     -0.1231
     86  CA        -8.1690   17.2930   19.6820 C.3   167  ALA167      0.1694
     87  C         -8.6590   16.0790   20.4640 C.2   167  ALA167      0.2591
     88  O         -9.6390   16.1660   21.2180 O.2   167  ALA167     -0.2718
     89  CB        -7.3190   18.1890   20.5730 C.3   167  ALA167      0.0304
     90  N         -7.9560   14.9740   20.2930 N.am  168  ILE168     -0.1980
     91  CA        -8.2040   13.7430   21.0350 C.3   168  ILE168      0.1595
     92  C         -6.9210   13.1930   21.6170 C.2   168  ILE168      0.2287
     93  O         -5.8170   13.7000   21.2800 O.2   168  ILE168     -0.2864
     94  CB        -8.9010   12.6900   20.1620 C.3   168  ILE168      0.0276
     95  CG1       -8.0820   12.3220   18.9360 C.3   168  ILE168      0.0022
     96  CG2      -10.2930   13.1680   19.7380 C.3   168  ILE168      0.0022
     97  CD1       -8.5550   11.1080   18.1840 C.3   168  ILE168      0.0001
@<TRIPOS>BOND
     1    76    75    2
     2    75    74    1
     3    73    74    1
     4    74    77    1
     5    80    82   ar
     6    80    78   ar
     7    82    83   ar
     8    77    78    1
     9    78    79   ar
    10    83    84    1
    11    83    81   ar
    12    56    57    1
    13    56    53    1
    14    59    57   ar
    15    59    61   ar
    16     9     7   am
    17    57    58   ar
    18    79    81   ar
    19    61    60   ar
    20     1     2    1
    21    58    60   ar
    22    52    53    1
    23     6     7    1
    24     6     5    1
    25    53    54    1
    26     7     8    2
    27    66    67    1
    28    66    63    1
    29    62    54   am
    30    62    63    1
    31     2     5    1
    32     2     3    1
    33    54    55    2
    34    67    68    1
    35    63    64    1
    36     3     4    2
    37    35    36    1
    38    68    69    1
    39    69    70    2
    40    37    36    1
    41    37    38    2
    42    64    65    2
    43    36    39    1
    44    70    71    1
    45    70    72    1
    46    39    40    1
    47    51    49   am
    48    44    45    1
    49    47    46    2
    50    40    41    1
    51    50    49    2
    52    49    48    1
    53    41    42    1
    54    45    46    1
    55    45    48    1
    56    42    43    1
    57    97    95    1
    58    95    94    1
    59    33    32    2
    60    85    86    1
    61    32    31    1
    62    32    34   am
    63    31    28    1
    64    29    28    1
    65    29    30    2
    66    86    87    1
    67    86    89    1
    68    28    27    1
    69    96    94    1
    70    94    91    1
    71    90    87   am
    72    90    91    1
    73    87    88    2
    74    91    92    1
    75    93    92    2
    76    17    15   ar
    77    26    25    1
    78    15    16   ar
    79    15    14    1
    80    14    11    1
    81    25    24    1
    82    24    23    1
    83    10    11    1
    84    11    12    1
    85    13    12    2
    86    23    22    1
    87    22    19    1
    88    21    20    2
    89    19    18    1
    90    19    20    1
