@<TRIPOS>MOLECULE
tmp/5jugA03.pdb
 99 93 0 0 0
SMALL
GASTEIGER

@<TRIPOS>ATOM
      1  N          1.2970   13.5410   26.2100 N.3    54  LYS54      -0.1245
      2  CA         1.0340   12.1110   26.1980 C.3    54  LYS54       0.1561
      3  C          2.3660   11.4020   26.3950 C.2    54  LYS54       0.2260
      4  O          3.4250   11.9140   26.0240 O.2    54  LYS54      -0.2867
      5  CB         0.3810   11.7150   24.8600 C.3    54  LYS54       0.0271
      6  CG        -1.0010   12.2830   24.6510 C.3    54  LYS54       0.0035
      7  CD        -1.4700   12.1980   23.1980 C.3    54  LYS54       0.0206
      8  CE        -2.9100   12.5950   23.0170 C.3    54  LYS54       0.1093
      9  NZ        -3.2740   12.6410   21.5810 N.3    54  LYS54      -0.1314
     10  N          3.2650    5.0000   23.8710 N.3    57  ASP57      -0.1225
     11  CA         2.9700    4.8750   22.4570 C.3    57  ASP57       0.1805
     12  C          2.1740    6.0220   21.8610 C.2    57  ASP57       0.2597
     13  O          2.2570    6.2750   20.6430 O.2    57  ASP57      -0.2718
     14  CB         2.2490    3.5710   22.1720 C.3    57  ASP57       0.1424
     15  CG         3.1890    2.3910   21.9070 C.2    57  ASP57       0.3668
     16  OD1        4.3930    2.5990   21.7660 O.co2  57  ASP57      -0.2456
     17  OD2        2.6450    1.2430   21.7980 O.co2  57  ASP57      -0.2456
     18  N          1.4070    6.7480   22.6820 N.am   58  ALA58      -0.1979
     19  CA         0.6250    7.8770   22.1730 C.3    58  ALA58       0.1597
     20  C          1.4150    9.1720   22.0540 C.2    58  ALA58       0.2287
     21  O          0.9160   10.1290   21.4650 O.2    58  ALA58      -0.2864
     22  CB        -0.5810    8.1270   23.0490 C.3    58  ALA58       0.0319
     23  N          3.5160   12.2550   21.0220 N.3    60  ASN60      -0.1240
     24  CA         3.6920   12.8880   19.7280 C.3    60  ASN60       0.1653
     25  C          5.0230   13.6360   19.6260 C.2    60  ASN60       0.2266
     26  O          5.3710   14.3810   20.5380 O.2    60  ASN60      -0.2867
     27  CB         2.6240   13.9780   19.4910 C.3    60  ASN60       0.1155
     28  CG         1.1850   13.5830   19.4170 C.2    60  ASN60       0.2627
     29  OD1        0.3850   14.4730   19.0030 O.2    60  ASN60      -0.2716
     30  ND2        0.7960   12.3870   19.7080 N.am   60  ASN60      -0.0877
     31  N          3.4890   15.6640   14.4180 N.3    65  LYS65      -0.1245
     32  CA         2.8930   15.0050   15.6070 C.3    65  LYS65       0.1561
     33  C          2.6910   13.5080   15.3730 C.2    65  LYS65       0.2260
     34  O          1.6620   12.9380   15.6950 O.2    65  LYS65      -0.2867
     35  CB         1.6220   15.7140   16.0860 C.3    65  LYS65       0.0271
     36  CG         1.8830   17.0910   16.6330 C.3    65  LYS65       0.0035
     37  CD         0.7040   17.6720   17.3620 C.3    65  LYS65       0.0206
     38  CE         0.9800   19.0480   17.9130 C.3    65  LYS65       0.1093
     39  NZ        -0.0690   19.5450   18.8190 N.3    65  LYS65      -0.1314
     40  N          3.0930    9.6850   16.2560 N.3    67  ASN67      -0.1240
     41  CA         3.0970    9.0120   17.5520 C.3    67  ASN67       0.1653
     42  C          4.1620    7.9190   17.6200 C.2    67  ASN67       0.2266
     43  O          4.5910    7.3260   16.6240 O.2    67  ASN67      -0.2867
     44  CB         1.7110    8.5260   17.9420 C.3    67  ASN67       0.1155
     45  CG         1.1450    7.4760   17.0030 C.2    67  ASN67       0.2627
     46  OD1        1.5980    6.3270   16.9530 O.2    67  ASN67      -0.2716
     47  ND2        0.1320    7.8790   16.2370 N.am   67  ASN67      -0.0877
     48  N         -2.3380    7.7210   12.5730 N.3   119  HIS119     -0.1226
     49  CA        -1.8740    9.0760   12.9030 C.3   119  HIS119      0.1752
     50  C         -2.9340    9.8120   13.7200 C.2   119  HIS119      0.2596
     51  O         -2.6270   10.5400   14.6500 O.2   119  HIS119     -0.2718
     52  CB        -1.4980    9.8360   11.6380 C.3   119  HIS119      0.0759
     53  CG        -0.7450   11.0630   11.9010 C.ar  119  HIS119      0.0818
     54  ND1        0.5340   11.0360   12.3900 N.ar  119  HIS119     -0.2268
     55  CD2       -1.0800   12.3540   11.6940 C.ar  119  HIS119      0.1154
     56  CE1        0.9620   12.2740   12.4820 C.ar  119  HIS119      0.1986
     57  NE2        0.0090   13.0890   12.0680 N.ar  119  HIS119     -0.2212
     58  N         -4.2030    9.6330   13.3400 N.am  120  ARG120     -0.1966
     59  CA        -5.2950   10.2550   14.0810 C.3   120  ARG120      0.1729
     60  C         -5.5530    9.5280   15.4010 C.2   120  ARG120      0.2616
     61  O         -5.7350   10.2000   16.4300 O.2   120  ARG120     -0.2715
     62  CB        -6.5570   10.2380   13.2300 C.3   120  ARG120      0.0348
     63  CG        -7.8160   10.7090   13.9050 C.3   120  ARG120      0.0492
     64  CD        -7.6740   12.0460   14.5670 C.3   120  ARG120      0.2205
     65  NE        -8.9730   12.5700   14.9730 N.pl3 120  ARG120     -0.0865
     66  CZ        -9.1330   13.7080   15.6190 C.cat 120  ARG120      0.5346
     67  NH1       -8.0960   14.4740   15.8790 N.pl3 120  ARG120      0.1354
     68  NH2      -10.3580   14.1180   15.9600 N.pl3 120  ARG120      0.1354
     69  N         -5.6270    8.1990   15.3860 N.am  121  ASN121     -0.1958
     70  CA        -6.1760    7.4810   16.5360 C.3   121  ASN121      0.1819
     71  C         -5.3210    6.3330   17.0240 C.2   121  ASN121      0.2622
     72  O         -5.8580    5.4620   17.7190 O.2   121  ASN121     -0.2715
     73  CB        -7.6310    7.0580   16.3290 C.3   121  ASN121      0.1195
     74  CG        -8.3540    6.7930   17.6330 C.2   121  ASN121      0.2630
     75  OD1       -8.0600    7.4460   18.6390 O.2   121  ASN121     -0.2716
     76  ND2       -9.2750    5.8470   17.6220 N.am  121  ASN121     -0.0877
     77  N         -4.0200    6.3160   16.7340 N.am  122  GLY122     -0.1940
     78  CA        -3.1170    5.3790   17.3730 C.3   122  GLY122      0.2014
     79  C         -3.5000    3.9380   17.1380 C.2   122  GLY122      0.2639
     80  O         -4.0110    3.5430   16.0850 O.2   122  GLY122     -0.2714
     81  N         -3.1920    3.0790   18.1340 N.am  123  ALA123     -0.1963
     82  CA        -3.4880    1.6510   17.9980 C.3   123  ALA123      0.1728
     83  C         -4.9710    1.4080   17.7480 C.2   123  ALA123      0.2616
     84  O         -5.3400    0.5160   16.9770 O.2   123  ALA123     -0.2715
     85  CB        -3.0520    0.9070   19.2480 C.3   123  ALA123      0.0334
     86  N         -5.8260    2.1820   18.4140 N.am  124  SER124     -0.1950
     87  CA        -7.2610    2.0010   18.2290 C.3   124  SER124      0.1924
     88  C         -7.6570    2.2770   16.7750 C.2   124  SER124      0.2314
     89  O         -8.5100    1.5880   16.2010 O.2   124  SER124     -0.2863
     90  CB        -8.0090    2.9270   19.1760 C.3   124  SER124      0.2116
     91  OG        -7.7320    2.5860   20.5210 O.3   124  SER124     -0.2180
     92  N         -7.9560   14.9740   20.2930 N.3   168  ILE168     -0.1245
     93  CA        -8.2040   13.7430   21.0350 C.3   168  ILE168      0.1561
     94  C         -6.9210   13.1930   21.6170 C.2   168  ILE168      0.2260
     95  O         -5.8170   13.7000   21.2800 O.2   168  ILE168     -0.2867
     96  CB        -8.9010   12.6900   20.1620 C.3   168  ILE168      0.0252
     97  CG1       -8.0820   12.3220   18.9360 C.3   168  ILE168      0.0019
     98  CG2      -10.2930   13.1680   19.7380 C.3   168  ILE168      0.0019
     99  CD1       -8.5550   11.1080   18.1840 C.3   168  ILE168      0.0001
@<TRIPOS>BOND
     1    52    53    1
     2    52    49    1
     3    55    53   ar
     4    55    57   ar
     5    53    54   ar
     6    57    56   ar
     7    54    56   ar
     8    48    49    1
     9    49    50    1
    10    62    63    1
    11    62    59    1
    12    58    50   am
    13    58    59    1
    14    50    51    2
    15    63    64    1
    16    59    60    1
    17    31    32    1
    18    64    65    1
    19    65    66    2
    20    33    32    1
    21    33    34    2
    22    69    60   am
    23    69    70    1
    24    60    61    2
    25    32    35    1
    26    66    67    1
    27    66    68    1
    28    80    79    2
    29    35    36    1
    30    89    88    2
    31    47    45   am
    32    40    41    1
    33    73    70    1
    34    73    74    1
    35    70    71    1
    36    43    42    2
    37    36    37    1
    38    77    71   am
    39    77    78    1
    40    88    87    1
    41    46    45    2
    42    84    83    2
    43    45    44    1
    44    71    72    2
    45    79    78    1
    46    79    81   am
    47    37    38    1
    48    41    42    1
    49    41    44    1
    50    76    74   am
    51    74    75    2
    52    83    82    1
    53    83    86   am
    54    38    39    1
    55    82    81    1
    56    82    85    1
    57    99    97    1
    58    87    86    1
    59    87    90    1
    60    97    96    1
    61    29    28    2
    62    90    91    1
    63    28    27    1
    64    28    30   am
    65    27    24    1
    66    25    24    1
    67    25    26    2
    68    24    23    1
    69    98    96    1
    70    96    93    1
    71    92    93    1
    72    13    12    2
    73    93    94    1
    74    95    94    2
    75    21    20    2
    76     9     8    1
    77    16    15   ar
    78    17    15   ar
    79    12    11    1
    80    12    18   am
    81    15    14    1
    82    20    19    1
    83    14    11    1
    84    19    18    1
    85    19    22    1
    86    11    10    1
    87     8     7    1
    88     7     6    1
    89     6     5    1
    90     5     2    1
    91     4     3    2
    92     2     1    1
    93     2     3    1
