@<TRIPOS>MOLECULE
tmp/5junA00.pdb
 150 143 0 0 0
SMALL
GASTEIGER

@<TRIPOS>ATOM
      1  N        -53.5430    1.0330    6.8940 N.3     3  PHE3       -0.1227
      2  CA       -52.9390   -0.0770    7.6460 C.3     3  PHE3        0.1736
      3  C        -51.6690    0.3510    8.4070 C.2     3  PHE3        0.2596
      4  O        -51.0930    1.3920    8.1140 O.2     3  PHE3       -0.2718
      5  CB       -52.7080   -1.3280    6.7730 C.3     3  PHE3        0.0547
      6  CG       -51.7060   -1.1690    5.6650 C.ar    3  PHE3       -0.0202
      7  CD1      -52.0700   -0.5870    4.4520 C.ar    3  PHE3       -0.0042
      8  CD2      -50.3830   -1.5670    5.8410 C.ar    3  PHE3       -0.0042
      9  CE1      -51.1340   -0.4270    3.4270 C.ar    3  PHE3       -0.0003
     10  CE2      -49.4460   -1.3890    4.8210 C.ar    3  PHE3       -0.0003
     11  CZ       -49.8390   -0.8490    3.6120 C.ar    3  PHE3       -0.0000
     12  N        -51.2400   -0.4580    9.3790 N.am    4  SER4       -0.1938
     13  CA       -50.0860   -0.1680   10.2290 C.3     4  SER4        0.2055
     14  C        -48.8860   -1.1180    9.9850 C.2     4  SER4        0.2643
     15  O        -49.0710   -2.3250    9.8230 O.2     4  SER4       -0.2714
     16  CB       -50.5190   -0.2390   11.6860 C.3     4  SER4        0.2130
     17  OG       -49.5140    0.2320   12.5610 O.3     4  SER4       -0.2179
     18  N        -47.6550   -0.5790    9.9760 N.am    5  PHE5       -0.1973
     19  CA       -46.4570   -1.3960    9.8090 C.3     5  PHE5        0.1639
     20  C        -45.2140   -0.6800   10.3120 C.2     5  PHE5        0.2290
     21  O        -44.9050    0.3950    9.8320 O.2     5  PHE5       -0.2864
     22  CB       -46.2870   -1.8530    8.3530 C.3     5  PHE5        0.0560
     23  CG       -45.0690   -2.6980    8.0770 C.ar    5  PHE5       -0.0200
     24  CD1      -44.8370   -3.8690    8.7900 C.ar    5  PHE5       -0.0042
     25  CD2      -44.1590   -2.3270    7.0940 C.ar    5  PHE5       -0.0042
     26  CE1      -43.7010   -4.6480    8.5330 C.ar    5  PHE5       -0.0003
     27  CE2      -43.0330   -3.1100    6.8230 C.ar    5  PHE5       -0.0003
     28  CZ       -42.8130   -4.2740    7.5320 C.ar    5  PHE5       -0.0000
     29  N        -52.8720    3.9880    1.0950 N.3    12  ARG12      -0.1245
     30  CA       -52.6390    3.9890   -0.3390 C.3    12  ARG12       0.1563
     31  C        -53.3380    5.2110   -0.9360 C.2    12  ARG12       0.2260
     32  O        -54.5380    5.4300   -0.7200 O.2    12  ARG12      -0.2867
     33  CB       -53.1220    2.7000   -0.9710 C.3    12  ARG12       0.0307
     34  CG       -52.6850    2.5480   -2.4070 C.3    12  ARG12       0.0489
     35  CD       -52.7810    1.1150   -2.8510 C.3    12  ARG12       0.2205
     36  NE       -54.1740    0.6770   -2.9350 N.pl3  12  ARG12      -0.0865
     37  CZ       -54.5600   -0.5830   -3.0590 C.cat  12  ARG12       0.5346
     38  NH1      -53.6620   -1.5600   -3.1210 N.pl3  12  ARG12       0.1354
     39  NH2      -55.8450   -0.8810   -3.1200 N.pl3  12  ARG12       0.1354
     40  N        -52.6340   -3.4590   -6.0620 N.3    17  SER17      -0.1217
     41  CA       -51.7960   -4.6280   -6.1350 C.3    17  SER17       0.1889
     42  C        -52.6190   -5.8870   -5.9450 C.2    17  SER17       0.2288
     43  O        -53.7240   -5.8500   -5.3880 O.2    17  SER17      -0.2866
     44  CB       -50.6860   -4.5620   -5.0860 C.3    17  SER17       0.2089
     45  OG       -51.1660   -4.5890   -3.7510 O.3    17  SER17      -0.2183
     46  N        -51.8110  -10.0770   -4.7000 N.3    19  LYS19      -0.1245
     47  CA       -50.7670  -10.7800   -3.9580 C.3    19  LYS19       0.1561
     48  C        -50.4190  -12.1000   -4.5890 C.2    19  LYS19       0.2260
     49  O        -51.2680  -12.7550   -5.1980 O.2    19  LYS19      -0.2867
     50  CB       -51.1980  -11.0240   -2.5200 C.3    19  LYS19       0.0271
     51  CG       -51.2030   -9.8080   -1.6300 C.3    19  LYS19       0.0035
     52  CD       -52.3440   -9.8970   -0.6350 C.3    19  LYS19       0.0206
     53  CE       -53.6720   -9.6220   -1.3150 C.3    19  LYS19       0.1093
     54  NZ       -54.8280   -9.7380   -0.3840 N.3    19  LYS19      -0.1314
     55  N        -45.5510  -12.9140    1.0150 N.3    35  ARG35      -0.1245
     56  CA       -46.7070  -12.5770    0.2070 C.3    35  ARG35       0.1563
     57  C        -46.3120  -11.3290   -0.6050 C.2    35  ARG35       0.2260
     58  O        -46.2220  -10.2230   -0.0620 O.2    35  ARG35      -0.2867
     59  CB       -47.9080  -12.3500    1.1240 C.3    35  ARG35       0.0307
     60  CG       -49.2350  -12.3050    0.4090 C.3    35  ARG35       0.0489
     61  CD       -50.3980  -12.5060    1.3620 C.3    35  ARG35       0.2205
     62  NE       -50.5670  -13.9280    1.6870 N.pl3  35  ARG35      -0.0865
     63  CZ       -51.7150  -14.4970    2.0410 C.cat  35  ARG35       0.5346
     64  NH1      -52.8260  -13.7730    2.1260 N.pl3  35  ARG35       0.1354
     65  NH2      -51.7610  -15.7950    2.3180 N.pl3  35  ARG35       0.1354
     66  N        -46.5600   -8.3350   -3.2490 N.3    37  HIS37      -0.1241
     67  CA       -47.5440   -7.4360   -3.8200 C.3    37  HIS37       0.1621
     68  C        -47.1090   -7.0250   -5.2040 C.2    37  HIS37       0.2264
     69  O        -46.0270   -6.4990   -5.4000 O.2    37  HIS37      -0.2867
     70  CB       -47.8100   -6.2480   -2.9170 C.3    37  HIS37       0.0745
     71  CG       -48.5490   -6.6210   -1.6810 C.ar   37  HIS37       0.0817
     72  ND1      -49.8990   -6.3630   -1.5380 N.ar   37  HIS37      -0.2268
     73  CD2      -48.1000   -7.2330   -0.5660 C.ar   37  HIS37       0.1154
     74  CE1      -50.2250   -6.8180   -0.3380 C.ar   37  HIS37       0.1986
     75  NE2      -49.1730   -7.3530    0.2810 N.ar   37  HIS37      -0.2212
     76  N        -47.9640    1.1950   -6.7350 N.3    41  GLU41      -0.1245
     77  CA       -48.7290    1.8540   -5.6850 C.3    41  GLU41       0.1567
     78  C        -48.0120    3.0670   -5.1350 C.2    41  GLU41       0.2260
     79  O        -46.7820    3.1440   -5.1900 O.2    41  GLU41      -0.2867
     80  CB       -48.9950    0.8520   -4.5540 C.3    41  GLU41       0.0388
     81  CG       -49.9560   -0.2670   -4.9040 C.3    41  GLU41       0.1160
     82  CD       -49.8890   -1.4360   -3.9440 C.2    41  GLU41       0.3649
     83  OE1      -48.7790   -1.9820   -3.7640 O.co2  41  GLU41      -0.2457
     84  OE2      -50.9430   -1.8260   -3.3930 O.co2  41  GLU41      -0.2457
     85  N        -48.0120    5.4720   -1.5120 N.3    43  PHE43      -0.1241
     86  CA       -48.4820    5.5370   -0.1430 C.3    43  PHE43       0.1605
     87  C        -48.0150    6.7610    0.5510 C.2    43  PHE43       0.2264
     88  O        -46.9670    7.3130    0.2070 O.2    43  PHE43      -0.2867
     89  CB       -47.8990    4.3610    0.6560 C.3    43  PHE43       0.0534
     90  CG       -48.3350    3.0120    0.1710 C.ar   43  PHE43      -0.0203
     91  CD1      -47.6200    2.3430   -0.8240 C.ar   43  PHE43      -0.0042
     92  CD2      -49.4530    2.3930    0.7080 C.ar   43  PHE43      -0.0042
     93  CE1      -48.0230    1.0860   -1.2740 C.ar   43  PHE43      -0.0003
     94  CE2      -49.8640    1.1350    0.2450 C.ar   43  PHE43      -0.0003
     95  CZ       -49.1500    0.4980   -0.7470 C.ar   43  PHE43      -0.0000
     96  N        -43.7800    2.7000   -5.1320 N.3    56  LYS56      -0.1245
     97  CA       -43.2120    1.3970   -5.3720 C.3    56  LYS56       0.1561
     98  C        -43.9150    0.6190   -6.4660 C.2    56  LYS56       0.2260
     99  O        -45.0970    0.8090   -6.7210 O.2    56  LYS56      -0.2867
    100  CB       -43.2340    0.5950   -4.0460 C.3    56  LYS56       0.0271
    101  CG       -44.6180    0.0680   -3.5840 C.3    56  LYS56       0.0035
    102  CD       -44.5060   -0.9370   -2.4290 C.3    56  LYS56       0.0206
    103  CE       -43.8630   -2.2570   -2.8230 C.3    56  LYS56       0.1093
    104  NZ       -44.8770   -3.2640   -3.2100 N.3    56  LYS56      -0.1314
    105  N        -40.6020   -2.7940    3.4070 N.3    84  PHE84      -0.1241
    106  CA       -41.9000   -2.7750    2.7460 C.3    84  PHE84       0.1605
    107  C        -41.7980   -2.9270    1.2330 C.2    84  PHE84       0.2264
    108  O        -42.6710   -3.5410    0.6250 O.2    84  PHE84      -0.2867
    109  CB       -42.6280   -1.4820    3.0970 C.3    84  PHE84       0.0534
    110  CG       -44.0370   -1.4200    2.5760 C.ar   84  PHE84      -0.0203
    111  CD1      -45.0750   -2.0480    3.2600 C.ar   84  PHE84      -0.0042
    112  CD2      -44.3470   -0.6770    1.4320 C.ar   84  PHE84      -0.0042
    113  CE1      -46.4000   -1.9120    2.8270 C.ar   84  PHE84      -0.0003
    114  CE2      -45.6700   -0.5700    0.9820 C.ar   84  PHE84      -0.0003
    115  CZ       -46.6840   -1.1850    1.6840 C.ar   84  PHE84      -0.0000
    116  N        -39.9940   -4.7620   -0.4430 N.3    86  GLN86      -0.1245
    117  CA       -39.7860   -6.1860   -0.7320 C.3    86  GLN86       0.1566
    118  C        -38.6450   -6.4160   -1.7370 C.2    86  GLN86       0.2260
    119  O        -38.5190   -7.5110   -2.2790 O.2    86  GLN86      -0.2867
    120  CB       -41.1010   -6.8830   -1.1740 C.3    86  GLN86       0.0367
    121  CG       -42.1960   -6.9270   -0.0830 C.3    86  GLN86       0.0905
    122  CD       -43.4760   -7.6010   -0.5380 C.2    86  GLN86       0.2608
    123  OE1      -43.9540   -7.4340   -1.6690 O.2    86  GLN86      -0.2717
    124  NE2      -44.1050   -8.3270    0.3600 N.am   86  GLN86      -0.0878
    125  N        -45.6350  -13.7450   10.5780 N.3   106  ASN106     -0.1240
    126  CA       -45.4240  -13.0100    9.3510 C.3   106  ASN106      0.1653
    127  C        -43.9420  -12.7010    9.0990 C.2   106  ASN106      0.2266
    128  O        -43.3080  -12.0490    9.9270 O.2   106  ASN106     -0.2867
    129  CB       -46.3140  -11.7520    9.2730 C.3   106  ASN106      0.1155
    130  CG       -46.2820  -11.0810    7.9090 C.2   106  ASN106      0.2627
    131  OD1      -45.2920  -10.4620    7.5450 O.2   106  ASN106     -0.2716
    132  ND2      -47.3490  -11.2110    7.1170 N.am  106  ASN106     -0.0877
    133  N        -42.5550  -10.5880    6.9200 N.3   108  MET108     -0.1230
    134  CA       -42.3030   -9.1520    6.7550 C.3   108  MET108      0.1702
    135  C        -41.9490   -8.5170    8.1170 C.2   108  MET108      0.2592
    136  O        -41.0210   -7.7240    8.1880 O.2   108  MET108     -0.2718
    137  CB       -43.5170   -8.4350    6.1320 C.3   108  MET108      0.0401
    138  CG       -43.8460   -8.8460    4.6990 C.3   108  MET108      0.0596
    139  SD       -42.4930   -8.6130    3.5350 S.3   108  MET108     -0.1393
    140  CE       -42.1390   -6.9870    3.7190 C.3   108  MET108      0.0692
    141  N        -42.6430   -8.9050    9.1910 N.am  109  HIS109     -0.1976
    142  CA       -42.3230   -8.4300   10.5330 C.3   109  HIS109      0.1656
    143  C        -40.9860   -8.9490   11.0020 C.2   109  HIS109      0.2291
    144  O        -40.2590   -8.2500   11.6940 O.2   109  HIS109     -0.2864
    145  CB       -43.4120   -8.8210   11.5160 C.3   109  HIS109      0.0771
    146  CG       -44.6290   -7.9510   11.3960 C.ar  109  HIS109      0.0820
    147  ND1      -45.8070   -8.4110   10.7750 N.ar  109  HIS109     -0.2267
    148  CD2      -44.8190   -6.6710   11.8000 C.ar  109  HIS109      0.1154
    149  CE1      -46.6590   -7.3960   10.8420 C.ar  109  HIS109      0.1986
    150  NE2      -46.1170   -6.3400   11.4770 N.ar  109  HIS109     -0.2212
@<TRIPOS>BOND
     1    76    77    1
     2    99    98    2
     3    98    97    1
     4    41    40    1
     5    41    42    1
     6    41    44    1
     7    42    43    2
     8    77    78    1
     9    77    80    1
    10    69    68    2
    11    97    96    1
    12    97   100    1
    13    68    67    1
    14    49    48    2
    15    79    78    2
    16    44    45    1
    17    81    80    1
    18    81    82    1
    19    46    47    1
    20    48    47    1
    21   100   101    1
    22    47    50    1
    23    82    83   ar
    24    82    84   ar
    25    67    66    1
    26    67    70    1
    27   101   102    1
    28   104   103    1
    29    38    37    1
    30    39    37    1
    31    37    36    2
    32    36    35    1
    33    70    71    1
    34    35    34    1
    35   103   102    1
    36    50    51    1
    37    34    33    1
    38   119   118    2
    39   118   117    1
    40    71    72   ar
    41    71    73   ar
    42   123   122    2
    43    51    52    1
    44    72    74   ar
    45    85    86    1
    46    53    52    1
    47    53    54    1
    48    93    91   ar
    49    93    95   ar
    50   120   117    1
    51   120   121    1
    52    33    30    1
    53    31    32    2
    54    31    30    1
    55    91    90   ar
    56    95    94   ar
    57   117   116    1
    58    57    58    2
    59    57    56    1
    60    73    75   ar
    61   122   121    1
    62   122   124   am
    63    30    29    1
    64    74    75   ar
    65    86    87    1
    66    86    89    1
    67    90    89    1
    68    90    92   ar
    69    88    87    2
    70    56    55    1
    71    56    59    1
    72    94    92   ar
    73    60    59    1
    74    60    61    1
    75   108   107    2
    76   114   112   ar
    77   114   115   ar
    78   107   106    1
    79    61    62    1
    80   112   110   ar
    81   115   113   ar
    82    62    63    2
    83    63    64    1
    84    63    65    1
    85   110   109    1
    86   110   111   ar
    87   106   109    1
    88   106   105    1
    89   113   111   ar
    90     9    11   ar
    91     9     7   ar
    92   139   140    1
    93   139   138    1
    94    11    10   ar
    95     7     6   ar
    96   138   137    1
    97    10     8   ar
    98     6     8   ar
    99     6     5    1
   100   137   134    1
   101   134   133    1
   102   134   135    1
   103     5     2    1
   104    27    25   ar
   105    27    28   ar
   106     1     2    1
   107    25    23   ar
   108   132   130   am
   109    28    26   ar
   110   131   130    2
   111     2     3    1
   112   130   129    1
   113    23    22    1
   114    23    24   ar
   115     4     3    2
   116   135   136    2
   117   135   141   am
   118    22    19    1
   119     3    12   am
   120    26    24   ar
   121   127   126    1
   122   127   128    2
   123   141   142    1
   124   129   126    1
   125   126   125    1
   126    12    13    1
   127    19    18    1
   128    19    20    1
   129    15    14    2
   130    21    20    2
   131    18    14   am
   132    14    13    1
   133    13    16    1
   134   142   143    1
   135   142   145    1
   136   147   149   ar
   137   147   146   ar
   138   149   150   ar
   139   143   144    2
   140   146   145    1
   141   146   148   ar
   142   150   148   ar
   143    16    17    1
