@<TRIPOS>MOLECULE
tmp/5jurA00.pdb
 150 143 0 0 0
SMALL
GASTEIGER

@<TRIPOS>ATOM
      1  N        -53.4220    1.1360    6.8950 N.3     3  PHE3       -0.1227
      2  CA       -52.8140    0.0170    7.6250 C.3     3  PHE3        0.1736
      3  C        -51.5450    0.4370    8.3700 C.2     3  PHE3        0.2596
      4  O        -50.9920    1.5100    8.0960 O.2     3  PHE3       -0.2718
      5  CB       -52.5930   -1.2110    6.7390 C.3     3  PHE3        0.0547
      6  CG       -51.5500   -1.0550    5.6750 C.ar    3  PHE3       -0.0202
      7  CD1      -51.8510   -0.4240    4.4700 C.ar    3  PHE3       -0.0042
      8  CD2      -50.2510   -1.5340    5.8760 C.ar    3  PHE3       -0.0042
      9  CE1      -50.8800   -0.2910    3.4760 C.ar    3  PHE3       -0.0003
     10  CE2      -49.2720   -1.3690    4.8940 C.ar    3  PHE3       -0.0003
     11  CZ       -49.6020   -0.7650    3.6960 C.ar    3  PHE3       -0.0000
     12  N        -51.0920   -0.4140    9.3160 N.am    4  SER4       -0.1938
     13  CA       -49.9460   -0.1110   10.1700 C.3     4  SER4        0.2055
     14  C        -48.7510   -1.0240    9.9260 C.2     4  SER4        0.2643
     15  O        -48.9320   -2.2320    9.7740 O.2     4  SER4       -0.2714
     16  CB       -50.3760   -0.1920   11.6280 C.3     4  SER4        0.2130
     17  OG       -49.3870    0.3660   12.4690 O.3     4  SER4       -0.2179
     18  N        -47.5260   -0.4730    9.9060 N.am    5  PHE5       -0.1973
     19  CA       -46.3150   -1.2930    9.7630 C.3     5  PHE5        0.1639
     20  C        -45.0800   -0.5750   10.2580 C.2     5  PHE5        0.2290
     21  O        -44.7790    0.5070    9.7770 O.2     5  PHE5       -0.2864
     22  CB       -46.1190   -1.7440    8.3400 C.3     5  PHE5        0.0560
     23  CG       -44.8920   -2.5610    8.0780 C.ar    5  PHE5       -0.0200
     24  CD1      -44.6820   -3.7600    8.7380 C.ar    5  PHE5       -0.0042
     25  CD2      -43.9970   -2.1910    7.0920 C.ar    5  PHE5       -0.0042
     26  CE1      -43.5540   -4.5350    8.4760 C.ar    5  PHE5       -0.0003
     27  CE2      -42.8700   -2.9670    6.8250 C.ar    5  PHE5       -0.0003
     28  CZ       -42.6480   -4.1310    7.5310 C.ar    5  PHE5       -0.0000
     29  N        -52.7340    4.1020    1.1000 N.3    12  ARG12      -0.1245
     30  CA       -52.5000    4.0720   -0.3330 C.3    12  ARG12       0.1563
     31  C        -53.1860    5.2870   -0.9400 C.2    12  ARG12       0.2260
     32  O        -54.3800    5.5110   -0.7010 O.2    12  ARG12      -0.2867
     33  CB       -53.0120    2.7860   -0.9430 C.3    12  ARG12       0.0307
     34  CG       -52.5730    2.6220   -2.3750 C.3    12  ARG12       0.0489
     35  CD       -52.6750    1.1960   -2.8120 C.3    12  ARG12       0.2205
     36  NE       -54.0640    0.7320   -2.8940 N.pl3  12  ARG12      -0.0865
     37  CZ       -54.4180   -0.5490   -2.9970 C.cat  12  ARG12       0.5346
     38  NH1      -53.4930   -1.5020   -3.0190 N.pl3  12  ARG12       0.1354
     39  NH2      -55.6990   -0.8860   -3.0780 N.pl3  12  ARG12       0.1354
     40  N        -52.5160   -3.3510   -5.9420 N.3    17  SER17      -0.1217
     41  CA       -51.7040   -4.5350   -6.0160 C.3    17  SER17       0.1889
     42  C        -52.5430   -5.7800   -5.7950 C.2    17  SER17       0.2288
     43  O        -53.6330   -5.7240   -5.2120 O.2    17  SER17      -0.2866
     44  CB       -50.5870   -4.4820   -4.9820 C.3    17  SER17       0.2089
     45  OG       -51.0810   -4.5260   -3.6520 O.3    17  SER17      -0.2183
     46  N        -51.7420   -9.9780   -4.5730 N.3    19  LYS19      -0.1245
     47  CA       -50.6910  -10.6740   -3.8350 C.3    19  LYS19       0.1561
     48  C        -50.3640  -11.9970   -4.4640 C.2    19  LYS19       0.2260
     49  O        -51.2320  -12.6470   -5.0450 O.2    19  LYS19      -0.2867
     50  CB       -51.1170  -10.9280   -2.3940 C.3    19  LYS19       0.0271
     51  CG       -51.1470   -9.7070   -1.5230 C.3    19  LYS19       0.0035
     52  CD       -52.2990   -9.7820   -0.5300 C.3    19  LYS19       0.0206
     53  CE       -53.6250   -9.4900   -1.2190 C.3    19  LYS19       0.1093
     54  NZ       -54.7680   -9.4100   -0.2690 N.3    19  LYS19      -0.1314
     55  N        -45.4730  -12.7950    1.1020 N.3    35  ARG35      -0.1245
     56  CA       -46.6240  -12.4400    0.2850 C.3    35  ARG35       0.1563
     57  C        -46.2230  -11.1970   -0.5580 C.2    35  ARG35       0.2260
     58  O        -46.1280  -10.0780   -0.0420 O.2    35  ARG35      -0.2867
     59  CB       -47.8230  -12.1980    1.2080 C.3    35  ARG35       0.0307
     60  CG       -49.1540  -12.1740    0.5200 C.3    35  ARG35       0.0489
     61  CD       -50.2830  -12.2910    1.5290 C.3    35  ARG35       0.2205
     62  NE       -50.5330  -13.6920    1.8730 N.pl3  35  ARG35      -0.0865
     63  CZ       -51.7050  -14.1750    2.2690 C.cat  35  ARG35       0.5346
     64  NH1      -52.7530  -13.3690    2.4010 N.pl3  35  ARG35       0.1354
     65  NH2      -51.8390  -15.4660    2.5420 N.pl3  35  ARG35       0.1354
     66  N        -46.5060   -8.2160   -3.1960 N.3    37  HIS37      -0.1241
     67  CA       -47.4910   -7.3230   -3.7550 C.3    37  HIS37       0.1621
     68  C        -47.0620   -6.9250   -5.1580 C.2    37  HIS37       0.2264
     69  O        -45.9720   -6.3950   -5.3830 O.2    37  HIS37      -0.2867
     70  CB       -47.7390   -6.1330   -2.8380 C.3    37  HIS37       0.0745
     71  CG       -48.4820   -6.5040   -1.5990 C.ar   37  HIS37       0.0817
     72  ND1      -49.8220   -6.2020   -1.4370 N.ar   37  HIS37      -0.2268
     73  CD2      -48.0520   -7.1650   -0.5030 C.ar   37  HIS37       0.1154
     74  CE1      -50.1580   -6.6770   -0.2450 C.ar   37  HIS37       0.1986
     75  NE2      -49.1260   -7.2730    0.3470 N.ar   37  HIS37      -0.2212
     76  N        -47.8460    1.2430   -6.7100 N.3    41  GLU41      -0.1245
     77  CA       -48.5860    1.9150   -5.6460 C.3    41  GLU41       0.1567
     78  C        -47.8540    3.1210   -5.1060 C.2    41  GLU41       0.2260
     79  O        -46.6200    3.1780   -5.1450 O.2    41  GLU41      -0.2867
     80  CB       -48.8520    0.9320   -4.5070 C.3    41  GLU41       0.0388
     81  CG       -49.8310   -0.1720   -4.8400 C.3    41  GLU41       0.1160
     82  CD       -49.7400   -1.3350   -3.8810 C.2    41  GLU41       0.3649
     83  OE1      -48.6270   -1.8910   -3.7360 O.co2  41  GLU41      -0.2457
     84  OE2      -50.7840   -1.7150   -3.3030 O.co2  41  GLU41      -0.2457
     85  N        -47.8670    5.5740   -1.5240 N.3    43  PHE43      -0.1241
     86  CA       -48.3340    5.6610   -0.1490 C.3    43  PHE43       0.1605
     87  C        -47.8630    6.8760    0.5510 C.2    43  PHE43       0.2264
     88  O        -46.8340    7.4450    0.1940 O.2    43  PHE43      -0.2867
     89  CB       -47.7680    4.4900    0.6480 C.3    43  PHE43       0.0534
     90  CG       -48.2170    3.1470    0.1720 C.ar   43  PHE43      -0.0203
     91  CD1      -47.5270    2.4830   -0.8260 C.ar   43  PHE43      -0.0042
     92  CD2      -49.3260    2.5350    0.7340 C.ar   43  PHE43      -0.0042
     93  CE1      -47.9280    1.2160   -1.2410 C.ar   43  PHE43      -0.0003
     94  CE2      -49.7510    1.2880    0.2930 C.ar   43  PHE43      -0.0003
     95  CZ       -49.0480    0.6370   -0.6920 C.ar   43  PHE43      -0.0000
     96  N        -43.6520    2.7670   -5.1210 N.3    56  LYS56      -0.1245
     97  CA       -43.0770    1.4660   -5.3670 C.3    56  LYS56       0.1561
     98  C        -43.7860    0.6880   -6.4440 C.2    56  LYS56       0.2260
     99  O        -44.9790    0.8570   -6.6710 O.2    56  LYS56      -0.2867
    100  CB       -43.0740    0.6550   -4.0520 C.3    56  LYS56       0.0271
    101  CG       -44.4500    0.1150   -3.5760 C.3    56  LYS56       0.0035
    102  CD       -44.3480   -0.8390   -2.4080 C.3    56  LYS56       0.0206
    103  CE       -43.7370   -2.1620   -2.8160 C.3    56  LYS56       0.1093
    104  NZ       -44.7740   -3.1390   -3.2260 N.3    56  LYS56      -0.1314
    105  N        -40.4850   -2.6920    3.4020 N.3    84  PHE84      -0.1241
    106  CA       -41.7880   -2.6540    2.7530 C.3    84  PHE84       0.1605
    107  C        -41.7110   -2.8380    1.2420 C.2    84  PHE84       0.2264
    108  O        -42.5920   -3.4670    0.6730 O.2    84  PHE84      -0.2867
    109  CB       -42.4910   -1.3440    3.0790 C.3    84  PHE84       0.0534
    110  CG       -43.9180   -1.2800    2.5940 C.ar   84  PHE84      -0.0203
    111  CD1      -44.9390   -1.9060    3.3030 C.ar   84  PHE84      -0.0042
    112  CD2      -44.2480   -0.5830    1.4350 C.ar   84  PHE84      -0.0042
    113  CE1      -46.2650   -1.8290    2.8630 C.ar   84  PHE84      -0.0003
    114  CE2      -45.5720   -0.5080    1.0020 C.ar   84  PHE84      -0.0003
    115  CZ       -46.5700   -1.1260    1.7200 C.ar   84  PHE84      -0.0000
    116  N        -39.9110   -4.6790   -0.4220 N.3    86  GLN86      -0.1245
    117  CA       -39.6980   -6.1040   -0.7240 C.3    86  GLN86       0.1566
    118  C        -38.5650   -6.3220   -1.7460 C.2    86  GLN86       0.2260
    119  O        -38.4580   -7.4080   -2.3240 O.2    86  GLN86      -0.2867
    120  CB       -41.0140   -6.8080   -1.1560 C.3    86  GLN86       0.0367
    121  CG       -42.0750   -6.8790   -0.0680 C.3    86  GLN86       0.0905
    122  CD       -43.4070   -7.4660   -0.4920 C.2    86  GLN86       0.2608
    123  OE1      -43.9280   -7.2120   -1.5840 O.2    86  GLN86      -0.2717
    124  NE2      -44.0390   -8.2000    0.4160 N.am   86  GLN86      -0.0878
    125  N        -45.1820  -13.4870   10.9850 N.3    96  ASN96      -0.1240
    126  CA       -45.1110  -12.9240    9.6540 C.3    96  ASN96       0.1653
    127  C        -43.6390  -12.6170    9.2870 C.2    96  ASN96       0.2266
    128  O        -42.9270  -12.0080   10.0840 O.2    96  ASN96      -0.2867
    129  CB       -46.0170  -11.6700    9.5570 C.3    96  ASN96       0.1155
    130  CG       -46.0250  -10.9860    8.1970 C.2    96  ASN96       0.2627
    131  OD1      -45.0470  -10.3650    7.7870 O.2    96  ASN96      -0.2716
    132  ND2      -47.1500  -11.0370    7.4970 N.am   96  ASN96      -0.0877
    133  N        -42.3580  -10.4820    6.9970 N.3    98  MET98      -0.1230
    134  CA       -42.1030   -9.0500    6.8150 C.3    98  MET98       0.1702
    135  C        -41.7310   -8.4190    8.1780 C.2    98  MET98       0.2592
    136  O        -40.8270   -7.5910    8.2230 O.2    98  MET98      -0.2718
    137  CB       -43.3230   -8.3120    6.2290 C.3    98  MET98       0.0401
    138  CG       -43.6910   -8.6940    4.8190 C.3    98  MET98       0.0596
    139  SD       -42.4410   -8.5420    3.5230 S.3    98  MET98      -0.1393
    140  CE       -41.7740   -7.0590    3.7350 C.3    98  MET98       0.0692
    141  N        -42.4120   -8.8270    9.2730 N.am   99  HIS99      -0.1976
    142  CA       -42.0660   -8.3310   10.5890 C.3    99  HIS99       0.1656
    143  C        -40.7140   -8.8430   11.0290 C.2    99  HIS99       0.2291
    144  O        -39.9720   -8.1030   11.6850 O.2    99  HIS99      -0.2864
    145  CB       -43.1240   -8.6690   11.6210 C.3    99  HIS99       0.0771
    146  CG       -44.3580   -7.8180   11.5050 C.ar   99  HIS99       0.0820
    147  ND1      -45.5750   -8.3620   11.0920 N.ar   99  HIS99      -0.2267
    148  CD2      -44.5370   -6.4950   11.7610 C.ar   99  HIS99       0.1154
    149  CE1      -46.4460   -7.3590   11.1320 C.ar   99  HIS99       0.1986
    150  NE2      -45.8650   -6.2180   11.5220 N.ar   99  HIS99      -0.2212
@<TRIPOS>BOND
     1    76    77    1
     2    99    98    2
     3    98    97    1
     4    41    40    1
     5    41    42    1
     6    41    44    1
     7    42    43    2
     8    77    78    1
     9    77    80    1
    10    69    68    2
    11    97    96    1
    12    97   100    1
    13    68    67    1
    14    79    78    2
    15    49    48    2
    16    44    45    1
    17    81    80    1
    18    81    82    1
    19    46    47    1
    20    48    47    1
    21   100   101    1
    22    82    83   ar
    23    82    84   ar
    24    47    50    1
    25    67    66    1
    26    67    70    1
    27   101   102    1
    28   104   103    1
    29    39    37    1
    30    38    37    1
    31    37    36    2
    32    36    35    1
    33    70    71    1
    34   103   102    1
    35    35    34    1
    36    50    51    1
    37    34    33    1
    38   119   118    2
    39   118   117    1
    40    71    72   ar
    41    71    73   ar
    42   123   122    2
    43    85    86    1
    44    51    52    1
    45    72    74   ar
    46    93    91   ar
    47    93    95   ar
    48    53    52    1
    49    53    54    1
    50   120   117    1
    51   120   121    1
    52    33    30    1
    53    31    32    2
    54    31    30    1
    55    91    90   ar
    56   117   116    1
    57    95    94   ar
    58    57    58    2
    59    57    56    1
    60    73    75   ar
    61   122   121    1
    62   122   124   am
    63    30    29    1
    64    74    75   ar
    65    86    87    1
    66    86    89    1
    67    90    89    1
    68    90    92   ar
    69    88    87    2
    70    56    55    1
    71    56    59    1
    72    94    92   ar
    73    60    59    1
    74    60    61    1
    75   108   107    2
    76   114   112   ar
    77   114   115   ar
    78   107   106    1
    79   112   110   ar
    80    61    62    1
    81   115   113   ar
    82    62    63    2
    83    63    64    1
    84    63    65    1
    85   110   109    1
    86   110   111   ar
    87   106   109    1
    88   106   105    1
    89   113   111   ar
    90     9    11   ar
    91     9     7   ar
    92   139   140    1
    93   139   138    1
    94    11    10   ar
    95     7     6   ar
    96   138   137    1
    97    10     8   ar
    98     6     8   ar
    99     6     5    1
   100   137   134    1
   101     5     2    1
   102   134   133    1
   103   134   135    1
   104    27    25   ar
   105    27    28   ar
   106     1     2    1
   107    25    23   ar
   108   132   130   am
   109    28    26   ar
   110     2     3    1
   111   131   130    2
   112    23    22    1
   113    23    24   ar
   114     4     3    2
   115   135   136    2
   116   135   141   am
   117   130   129    1
   118    22    19    1
   119     3    12   am
   120    26    24   ar
   121   141   142    1
   122   127   126    1
   123   127   128    2
   124    12    13    1
   125   129   126    1
   126   126   125    1
   127    19    18    1
   128    19    20    1
   129    15    14    2
   130    21    20    2
   131    18    14   am
   132    14    13    1
   133    13    16    1
   134   142   143    1
   135   142   145    1
   136   143   144    2
   137   147   149   ar
   138   147   146   ar
   139   149   150   ar
   140   146   145    1
   141   146   148   ar
   142   150   148   ar
   143    16    17    1
