@<TRIPOS>MOLECULE
tmp/5juzA00.pdb
 163 154 0 0 0
SMALL
GASTEIGER

@<TRIPOS>ATOM
      1  N         -6.8430   75.4830   22.8300 N.3     1  TYR1       -0.1241
      2  CA        -5.5560   75.4080   22.0510 C.3     1  TYR1        0.1605
      3  C         -5.5820   74.3830   20.9120 C.2     1  TYR1        0.2264
      4  O         -5.0650   74.6850   19.8490 O.2     1  TYR1       -0.2867
      5  CB        -4.3090   75.1220   22.9520 C.3     1  TYR1        0.0534
      6  CG        -3.8810   76.2170   23.9570 C.ar    1  TYR1       -0.0201
      7  CD1       -2.6750   76.9290   23.8080 C.ar    1  TYR1       -0.0009
      8  CD2       -4.6590   76.4940   25.1060 C.ar    1  TYR1       -0.0009
      9  CE1       -2.2590   77.8970   24.7610 C.ar    1  TYR1        0.0417
     10  CE2       -4.2730   77.4760   26.0450 C.ar    1  TYR1        0.0417
     11  CZ        -3.0800   78.1870   25.8680 C.ar    1  TYR1        0.1957
     12  OH        -2.7520   79.1230   26.8090 O.3     1  TYR1       -0.2866
     13  N          8.4950   73.1730   14.9870 N.3    42  GLY42      -0.1210
     14  CA         8.8230   71.8950   15.6620 C.3    42  GLY42       0.1956
     15  C          8.6630   71.8160   17.1800 C.2    42  GLY42       0.2612
     16  O          8.9280   70.7470   17.7770 O.2    42  GLY42      -0.2717
     17  N          8.2520   72.9400   17.7990 N.am   43  GLY43      -0.1942
     18  CA         7.9730   73.0240   19.2530 C.3    43  GLY43       0.2014
     19  C          6.5090   72.7880   19.4160 C.2    43  GLY43       0.2638
     20  O          5.8990   72.3510   18.4670 O.2    43  GLY43      -0.2714
     21  N          5.9480   73.0600   20.6010 N.am   44  LYS44      -0.1977
     22  CA         4.4920   72.9490   20.7930 C.3    44  LYS44       0.1596
     23  C          3.7490   74.2940   20.5740 C.2    44  LYS44       0.2287
     24  O          2.5660   74.3160   20.6160 O.2    44  LYS44      -0.2864
     25  CB         4.1790   72.3670   22.1760 C.3    44  LYS44       0.0298
     26  CG         4.6390   70.9330   22.4050 C.3    44  LYS44       0.0038
     27  CD         3.7590   70.3320   23.5100 C.3    44  LYS44       0.0206
     28  CE         2.2800   70.3760   23.1410 C.3    44  LYS44       0.1093
     29  NZ         1.4250   70.0230   24.3070 N.3    44  LYS44      -0.1314
     30  N          3.1190   76.8400   22.4130 N.3    46  ASN46      -0.1225
     31  CA         2.3070   77.2570   23.5160 C.3    46  ASN46       0.1785
     32  C          2.3440   78.7450   23.7880 C.2    46  ASN46       0.2597
     33  O          1.3030   79.3600   24.0440 O.2    46  ASN46      -0.2718
     34  CB         2.6560   76.4520   24.7580 C.3    46  ASN46       0.1169
     35  CG         2.1530   74.9940   24.6690 C.2    46  ASN46       0.2627
     36  OD1        1.0120   74.7690   24.3260 O.2    46  ASN46      -0.2716
     37  ND2        3.0110   74.0220   24.9950 N.am   46  ASN46      -0.0877
     38  N          3.4910   79.3400   23.6390 N.am   47  ARG47      -0.1979
     39  CA         3.6390   80.7320   23.9200 C.3    47  ARG47       0.1597
     40  C          2.9460   81.5870   22.8790 C.2    47  ARG47       0.2287
     41  O          2.1970   82.5040   23.2390 O.2    47  ARG47      -0.2864
     42  CB         5.1100   81.1220   24.0200 C.3    47  ARG47       0.0334
     43  CG         5.7520   80.4670   25.2330 C.3    47  ARG47       0.0492
     44  CD         7.2830   80.5820   25.1570 C.3    47  ARG47       0.2205
     45  NE         7.8910   80.0130   26.3350 N.pl3  47  ARG47      -0.0865
     46  CZ         7.9540   78.7030   26.5170 C.cat  47  ARG47       0.5346
     47  NH1        7.4660   77.8700   25.5800 N.pl3  47  ARG47       0.1354
     48  NH2        8.4890   78.2030   27.6400 N.pl3  47  ARG47       0.1354
     49  N         -0.7150   81.3230   23.0880 N.3    50  THR50      -0.1218
     50  CA        -1.2890   81.9960   24.2250 C.3    50  THR50       0.1862
     51  C         -1.7230   83.4070   23.8290 C.2    50  THR50       0.2287
     52  O         -2.7370   83.8890   24.3460 O.2    50  THR50      -0.2866
     53  CB        -0.3300   82.0270   25.4110 C.3    50  THR50       0.1770
     54  OG1       -0.2060   80.7190   25.9030 O.3    50  THR50      -0.2211
     55  CG2       -0.8860   82.7800   26.5390 C.3    50  THR50       0.0375
     56  N         15.0820   69.1530   20.9230 N.3   100  ARG100     -0.1245
     57  CA        13.8420   68.4270   20.6470 C.3   100  ARG100      0.1563
     58  C         14.2450   67.2550   19.7820 C.2   100  ARG100      0.2260
     59  O         13.6770   67.0850   18.6900 O.2   100  ARG100     -0.2867
     60  CB        12.7780   69.2970   19.8940 C.3   100  ARG100      0.0307
     61  CG        12.2710   70.5930   20.5650 C.3   100  ARG100      0.0489
     62  CD        11.9630   71.6910   19.4870 C.3   100  ARG100      0.2205
     63  NE        11.5920   73.0720   19.9690 N.pl3 100  ARG100     -0.0865
     64  CZ        11.6590   74.2000   19.2180 C.cat 100  ARG100      0.5346
     65  NH1       12.1140   74.1450   17.9450 N.pl3 100  ARG100      0.1354
     66  NH2       11.2450   75.4090   19.7110 N.pl3 100  ARG100      0.1354
     67  N          7.9430   83.7120   28.8620 N.3   191  SER191     -0.1202
     68  CA         7.1870   82.5060   28.6340 C.3   191  SER191      0.2020
     69  C          5.7710   82.7750   29.0560 C.2   191  SER191      0.2618
     70  O          4.8570   82.3710   28.3740 O.2   191  SER191     -0.2717
     71  CB         7.7820   81.2940   29.3650 C.3   191  SER191      0.2103
     72  OG         9.0680   80.8960   28.7840 O.3   191  SER191     -0.2182
     73  N          5.5990   83.5270   30.1280 N.am  192  PHE192     -0.1975
     74  CA         4.3040   83.7470   30.7590 C.3   192  PHE192      0.1639
     75  C          3.8030   85.1790   30.6870 C.2   192  PHE192      0.2290
     76  O          2.6550   85.3620   30.3340 O.2   192  PHE192     -0.2864
     77  CB         4.2650   83.1760   32.2370 C.3   192  PHE192      0.0560
     78  CG         4.3100   81.6900   32.2360 C.ar  192  PHE192     -0.0200
     79  CD1        5.5240   81.0200   32.1280 C.ar  192  PHE192     -0.0042
     80  CD2        3.1160   80.9490   32.1410 C.ar  192  PHE192     -0.0042
     81  CE1        5.5500   79.6290   31.9380 C.ar  192  PHE192     -0.0003
     82  CE2        3.1330   79.5540   31.9950 C.ar  192  PHE192     -0.0003
     83  CZ         4.3540   78.8920   31.8660 C.ar  192  PHE192     -0.0000
     84  N          3.3950   86.8440   26.5120 N.3   195  PRO195     -0.2116
     85  CA         2.2650   86.5490   25.6050 C.3   195  PRO195      0.1372
     86  C          0.9320   87.1280   26.0390 C.2   195  PRO195      0.2244
     87  O          0.1700   87.5790   25.1770 O.2   195  PRO195     -0.2868
     88  CB         2.1880   85.0400   25.5810 C.3   195  PRO195      0.0268
     89  CG         3.3830   84.5870   26.3100 C.3   195  PRO195      0.0207
     90  CD         3.7940   85.6610   27.2500 C.3   195  PRO195      0.0892
     91  N          6.1840   76.3480   36.6350 N.3   225  PHE225     -0.1241
     92  CA         6.4300   75.6730   35.3700 C.3   225  PHE225      0.1605
     93  C          7.8730   75.1510   35.3360 C.2   225  PHE225      0.2264
     94  O          8.1280   73.9880   35.0290 O.2   225  PHE225     -0.2867
     95  CB         6.2800   76.6550   34.1970 C.3   225  PHE225      0.0534
     96  CG         6.4560   76.0280   32.8410 C.ar  225  PHE225     -0.0203
     97  CD1        5.5260   75.1710   32.3290 C.ar  225  PHE225     -0.0042
     98  CD2        7.5440   76.3220   32.0610 C.ar  225  PHE225     -0.0042
     99  CE1        5.6600   74.6200   31.0640 C.ar  225  PHE225     -0.0003
    100  CE2        7.6950   75.7410   30.8030 C.ar  225  PHE225     -0.0003
    101  CZ         6.7470   74.8950   30.3090 C.ar  225  PHE225     -0.0000
    102  N          9.5260   71.4000   35.3380 N.3   229  ASP229     -0.1239
    103  CA        10.4740   70.8700   34.3460 C.3   229  ASP229      0.1674
    104  C         11.7250   70.2800   34.9550 C.2   229  ASP229      0.2266
    105  O         12.2070   69.2370   34.4890 O.2   229  ASP229     -0.2867
    106  CB        10.9200   71.9220   33.3300 C.3   229  ASP229      0.1410
    107  CG         9.9130   72.1340   32.2220 C.2   229  ASP229      0.3668
    108  OD1        8.8290   71.4570   32.1410 O.co2 229  ASP229     -0.2456
    109  OD2       10.2130   73.0330   31.4170 O.co2 229  ASP229     -0.2456
    110  N          6.9810   62.4760   28.8130 N.3   241  THR241     -0.1203
    111  CA         7.6660   63.8010   28.6530 C.3   241  THR241      0.1994
    112  C          8.1690   64.0560   27.2280 C.2   241  THR241      0.2618
    113  O          8.0040   65.1620   26.7200 O.2   241  THR241     -0.2717
    114  CB         8.9140   64.0000   29.5900 C.3   241  THR241      0.1784
    115  OG1        9.6190   62.7570   29.8020 O.3   241  THR241     -0.2211
    116  CG2        8.5130   64.5940   30.9290 C.3   241  THR241      0.0376
    117  N          8.8090   63.0420   26.6170 N.am  242  GLY242     -0.1942
    118  CA         9.6200   63.2030   25.3950 C.3   242  GLY242      0.2014
    119  C         11.0990   63.3920   25.7150 C.2   242  GLY242      0.2638
    120  O         11.9530   62.7990   25.0580 O.2   242  GLY242     -0.2714
    121  N         11.3930   64.2070   26.7370 N.am  243  LYS243     -0.1977
    122  CA        12.7700   64.5220   27.1860 C.3   243  LYS243      0.1596
    123  C         13.3970   63.3300   27.9660 C.2   243  LYS243      0.2287
    124  O         12.6770   62.6050   28.6520 O.2   243  LYS243     -0.2864
    125  CB        12.7670   65.8410   28.0190 C.3   243  LYS243      0.0298
    126  CG        12.1390   65.7050   29.3910 C.3   243  LYS243      0.0038
    127  CD        12.4190   66.9310   30.2340 C.3   243  LYS243      0.0206
    128  CE        11.2780   67.9300   30.1740 C.3   243  LYS243      0.1093
    129  NZ        11.6830   69.1740   30.8840 N.3   243  LYS243     -0.1314
    130  N         -4.3330   78.7190   31.3630 N.3   330  LEU330     -0.1245
    131  CA        -2.9090   78.4750   31.4380 C.3   330  LEU330      0.1561
    132  C         -2.5620   77.5450   32.5640 C.2   330  LEU330      0.2260
    133  O         -1.8460   76.5390   32.3440 O.2   330  LEU330     -0.2867
    134  CB        -2.1220   79.7470   31.5880 C.3   330  LEU330      0.0270
    135  CG        -1.8620   80.6640   30.4180 C.3   330  LEU330      0.0019
    136  CD1       -1.2860   81.9300   31.0100 C.3   330  LEU330      0.0001
    137  CD2       -0.8750   80.0840   29.4290 C.3   330  LEU330      0.0001
    138  N         -3.0390   74.0310   31.6710 N.3   333  LYS333     -0.1231
    139  CA        -2.0170   73.4920   30.7980 C.3   333  LYS333      0.1693
    140  C         -0.8050   73.0540   31.6190 C.2   333  LYS333      0.2591
    141  O         -0.1920   72.0080   31.3620 O.2   333  LYS333     -0.2718
    142  CB        -1.6230   74.4990   29.7180 C.3   333  LYS333      0.0285
    143  CG        -2.7110   74.6450   28.6160 C.3   333  LYS333      0.0035
    144  CD        -2.2070   74.5480   27.1720 C.3   333  LYS333      0.0206
    145  CE        -1.2690   73.3450   26.9260 C.3   333  LYS333      0.1093
    146  NZ        -1.6960   72.2290   26.0190 N.3   333  LYS333     -0.1314
    147  N         -0.5040   73.7970   32.6620 N.am  334  ILE334     -0.1980
    148  CA         0.7190   73.5540   33.3720 C.3   334  ILE334      0.1595
    149  C          0.5980   72.5940   34.5350 C.2   334  ILE334      0.2287
    150  O          1.4430   71.7600   34.6890 O.2   334  ILE334     -0.2864
    151  CB         1.5110   74.8890   33.6310 C.3   334  ILE334      0.0276
    152  CG1        1.0750   75.6640   34.8720 C.3   334  ILE334      0.0022
    153  CG2        1.5250   75.7610   32.3330 C.3   334  ILE334      0.0022
    154  CD1        1.6660   77.0950   34.9080 C.3   334  ILE334      0.0001
    155  N         -1.4140   70.1400   34.5620 N.3   336  LYS336     -0.1245
    156  CA        -1.5450   68.8210   33.8460 C.3   336  LYS336      0.1561
    157  C         -0.2830   68.0140   33.9590 C.2   336  LYS336      0.2260
    158  O         -0.2600   66.9270   33.4290 O.2   336  LYS336     -0.2867
    159  CB        -1.9010   68.9460   32.3340 C.3   336  LYS336      0.0271
    160  CG        -2.2520   67.6440   31.6390 C.3   336  LYS336      0.0035
    161  CD        -2.7700   67.9200   30.2330 C.3   336  LYS336      0.0206
    162  CE        -4.0480   68.7580   30.2780 C.3   336  LYS336      0.1093
    163  NZ        -4.4980   69.2280   28.9320 N.3   336  LYS336     -0.1314
@<TRIPOS>BOND
     1    13    14    1
     2    14    15    1
     3    15    16    2
     4    15    17   am
     5    17    18    1
     6    65    64    1
     7    20    19    2
     8    59    58    2
     9    64    66    1
    10    64    63    2
    11    18    19    1
    12    19    21   am
    13    62    63    1
    14    62    61    1
    15    58    57    1
    16     4     3    2
    17    60    61    1
    18    60    57    1
    19    23    24    2
    20    23    22    1
    21    21    22    1
    22    57    56    1
    23    22    25    1
    24     3     2    1
    25     2     1    1
    26     2     5    1
    27    25    26    1
    28    26    27    1
    29    30    31    1
    30    40    41    2
    31    40    39    1
    32     5     6    1
    33    49    50    1
    34    28    27    1
    35    28    29    1
    36    31    32    1
    37    31    34    1
    38    38    32   am
    39    38    39    1
    40    32    33    2
    41     7     6   ar
    42     7     9   ar
    43    51    50    1
    44    51    52    2
    45    39    42    1
    46     6     8   ar
    47    42    43    1
    48    50    53    1
    49    36    35    2
    50    35    34    1
    51    35    37   am
    52     9    11   ar
    53   120   119    2
    54     8    10   ar
    55    44    43    1
    56    44    45    1
    57    87    86    2
    58   118   119    1
    59   118   117    1
    60    53    54    1
    61    53    55    1
    62    47    46    1
    63    88    85    1
    64    88    89    1
    65    85    86    1
    66    85    84    1
    67   119   121   am
    68    11    10   ar
    69    11    12    1
    70   146   145    1
    71    89    90    1
    72    45    46    2
    73    84    90    1
    74    46    48    1
    75   117   112   am
    76   113   112    2
    77   121   122    1
    78   145   144    1
    79   144   143    1
    80   122   123    1
    81   122   125    1
    82   112   111    1
    83   123   124    2
    84   125   126    1
    85    70    69    2
    86   143   142    1
    87    68    67    1
    88    68    69    1
    89    68    71    1
    90   111   110    1
    91   111   114    1
    92    72    71    1
    93   163   162    1
    94    69    73   am
    95   126   127    1
    96   137   135    1
    97   114   115    1
    98   114   116    1
    99   142   139    1
   100    73    74    1
   101   128   127    1
   102   128   129    1
   103   161   162    1
   104   161   160    1
   105   101   100   ar
   106   101    99   ar
   107    76    75    2
   108   135   136    1
   109   135   134    1
   110    75    74    1
   111    74    77    1
   112   139   140    1
   113   139   138    1
   114   100    98   ar
   115    99    97   ar
   116   141   140    2
   117   130   131    1
   118   109   107   ar
   119   131   134    1
   120   131   132    1
   121   140   147   am
   122   160   159    1
   123    83    81   ar
   124    83    82   ar
   125    81    79   ar
   126    82    80   ar
   127    98    96   ar
   128    79    78   ar
   129   108   107   ar
   130    80    78   ar
   131   107   106    1
   132    78    77    1
   133    97    96   ar
   134   153   151    1
   135   159   156    1
   136   133   132    2
   137   147   148    1
   138    96    95    1
   139   106   103    1
   140   148   151    1
   141   148   149    1
   142   158   157    2
   143   151   152    1
   144   156   157    1
   145   156   155    1
   146    95    92    1
   147   103   104    1
   148   103   102    1
   149   105   104    2
   150   149   150    2
   151   152   154    1
   152    94    93    2
   153    93    92    1
   154    92    91    1
