@<TRIPOS>MOLECULE
tmp/5jv0A02.pdb
 100 94 0 0 0
SMALL
GASTEIGER

@<TRIPOS>ATOM
      1  N          8.5480   72.8170   37.4310 N.3   233  GLN233     -0.1245
      2  CA         8.0100   71.5430   37.0200 C.3   233  GLN233      0.1566
      3  C          8.9400   70.9420   35.9330 C.2   233  GLN233      0.2260
      4  O          9.1700   69.7090   35.8980 O.2   233  GLN233     -0.2867
      5  CB         6.5530   71.6680   36.6040 C.3   233  GLN233      0.0367
      6  CG         6.0100   70.5170   35.7820 C.3   233  GLN233      0.0905
      7  CD         4.5260   70.6250   35.4460 C.2   233  GLN233      0.2608
      8  OE1        3.6800   70.0140   36.0900 O.2   233  GLN233     -0.2717
      9  NE2        4.2150   71.3490   34.3950 N.am  233  GLN233     -0.0878
     10  N          5.6540   67.6180   45.0190 N.3   306  LEU306     -0.1245
     11  CA         4.2140   67.4480   45.0440 C.3   306  LEU306      0.1561
     12  C          3.5120   68.4280   46.0550 C.2   306  LEU306      0.2260
     13  O          2.4230   68.9360   45.7890 O.2   306  LEU306     -0.2867
     14  CB         3.9180   65.9580   45.3110 C.3   306  LEU306      0.0270
     15  CG         2.4430   65.5370   45.1960 C.3   306  LEU306      0.0019
     16  CD1        1.9610   65.6030   43.7190 C.3   306  LEU306      0.0001
     17  CD2        2.1690   64.1940   45.8790 C.3   306  LEU306      0.0001
     18  N          3.8650   71.7100   44.3310 N.3   309  GLU309     -0.1231
     19  CA         2.8690   71.8590   43.2850 C.3   309  GLU309      0.1699
     20  C          1.4410   72.2980   43.7950 C.2   309  GLU309      0.2592
     21  O          0.7800   73.1710   43.1910 O.2   309  GLU309     -0.2718
     22  CB         2.7810   70.5510   42.5060 C.3   309  GLU309      0.0402
     23  CG         1.8390   70.6400   41.3050 C.3   309  GLU309      0.1161
     24  CD         2.1780   69.6630   40.1820 C.2   309  GLU309      0.3649
     25  OE1        2.8130   68.5950   40.4950 O.co2 309  GLU309     -0.2457
     26  OE2        1.7550   69.9700   39.0070 O.co2 309  GLU309     -0.2457
     27  N          0.9980   71.7100   44.9070 N.am  310  GLU310     -0.1979
     28  CA        -0.3140   72.0370   45.5300 C.3   310  GLU310      0.1602
     29  C         -0.2990   73.4180   46.1120 C.2   310  GLU310      0.2287
     30  O         -1.2310   74.2100   45.9000 O.2   310  GLU310     -0.2864
     31  CB        -0.6800   71.0260   46.6350 C.3   310  GLU310      0.0415
     32  CG        -0.7650   69.5600   46.1310 C.3   310  GLU310      0.1163
     33  CD        -0.4190   68.4870   47.1750 C.2   310  GLU310      0.3649
     34  OE1       -0.3560   68.7770   48.4010 O.co2 310  GLU310     -0.2457
     35  OE2       -0.2430   67.3150   46.7730 O.co2 310  GLU310     -0.2457
     36  N         -0.5350   75.8420   43.2140 N.3   313  TYR313     -0.1241
     37  CA        -1.8540   75.9500   42.6180 C.3   313  TYR313      0.1605
     38  C         -2.7770   76.7940   43.4990 C.2   313  TYR313      0.2264
     39  O         -3.5380   77.6150   43.0020 O.2   313  TYR313     -0.2867
     40  CB        -2.4510   74.5530   42.3430 C.3   313  TYR313      0.0534
     41  CG        -3.9060   74.4840   41.8190 C.ar  313  TYR313     -0.0201
     42  CD1       -4.1910   74.5750   40.4740 C.ar  313  TYR313     -0.0009
     43  CD2       -4.9780   74.3110   42.7050 C.ar  313  TYR313     -0.0009
     44  CE1       -5.4930   74.4910   40.0210 C.ar  313  TYR313      0.0417
     45  CE2       -6.2950   74.2270   42.2650 C.ar  313  TYR313      0.0417
     46  CZ        -6.5570   74.3190   40.9140 C.ar  313  TYR313      0.1957
     47  OH        -7.8730   74.2380   40.4550 O.3   313  TYR313     -0.2866
     48  N         -4.3780   80.4140   42.2810 N.3   317  MET317     -0.1245
     49  CA        -5.8020   80.6850   42.3080 C.3   317  MET317      0.1570
     50  C         -6.1520   81.9560   43.1240 C.2   317  MET317      0.2261
     51  O         -7.0500   82.6940   42.7690 O.2   317  MET317     -0.2867
     52  CB        -6.6210   79.4250   42.7300 C.3   317  MET317      0.0387
     53  CG        -6.6860   78.2330   41.7500 C.3   317  MET317      0.0595
     54  SD        -6.8860   78.6960   40.0300 S.3   317  MET317     -0.1393
     55  CE        -7.2230   77.1510   39.2690 C.3   317  MET317      0.0692
     56  N         -6.7430   81.1810   33.7240 N.3   333  LEU333     -0.1245
     57  CA        -7.1430   79.8080   33.9810 C.3   333  LEU333      0.1561
     58  C         -6.7950   78.9040   32.8240 C.2   333  LEU333      0.2260
     59  O         -6.4050   77.7800   33.0360 O.2   333  LEU333     -0.2867
     60  CB        -8.6190   79.7150   34.2700 C.3   333  LEU333      0.0270
     61  CG        -9.0220   80.4070   35.5500 C.3   333  LEU333      0.0019
     62  CD1      -10.5520   80.4300   35.6770 C.3   333  LEU333      0.0001
     63  CD2       -8.4090   79.7770   36.7800 C.3   333  LEU333      0.0001
     64  N         -3.0060   78.3000   33.3290 N.3   336  ALA336     -0.1231
     65  CA        -2.8990   77.3840   34.4580 C.3   336  ALA336      0.1694
     66  C         -3.2120   75.9160   34.0430 C.2   336  ALA336      0.2591
     67  O         -2.4330   75.0250   34.3280 O.2   336  ALA336     -0.2718
     68  CB        -3.7770   77.8490   35.6160 C.3   336  ALA336      0.0304
     69  N         -4.2860   75.6770   33.3300 N.am  337  ARG337     -0.1980
     70  CA        -4.6310   74.3430   32.9300 C.3   337  ARG337      0.1597
     71  C         -3.5340   73.7590   32.0460 C.2   337  ARG337      0.2287
     72  O         -3.2620   72.5620   32.1360 O.2   337  ARG337     -0.2864
     73  CB        -6.0270   74.3050   32.2040 C.3   337  ARG337      0.0334
     74  CG        -6.4040   72.9490   31.6380 C.3   337  ARG337      0.0492
     75  CD        -7.5600   72.9480   30.6320 C.3   337  ARG337      0.2205
     76  NE        -7.8650   71.5410   30.2320 N.pl3 337  ARG337     -0.0865
     77  CZ        -8.6100   70.6650   30.9330 C.cat 337  ARG337      0.5346
     78  NH1       -8.7870   69.4180   30.4750 N.pl3 337  ARG337      0.1354
     79  NH2       -9.1940   71.0300   32.0820 N.pl3 337  ARG337      0.1354
     80  N         -0.5240   73.1050   34.9240 N.3   340  TYR340     -0.1227
     81  CA        -0.8010   72.2290   36.0510 C.3   340  TYR340      0.1736
     82  C         -1.3610   70.9040   35.5310 C.2   340  TYR340      0.2595
     83  O         -1.8620   70.1830   36.3290 O.2   340  TYR340     -0.2718
     84  CB        -1.6960   72.9200   37.1340 C.3   340  TYR340      0.0548
     85  CG        -1.0010   74.1050   37.7950 C.ar  340  TYR340     -0.0200
     86  CD1       -1.0190   75.3490   37.2030 C.ar  340  TYR340     -0.0009
     87  CD2       -0.2930   73.9740   38.9820 C.ar  340  TYR340     -0.0009
     88  CE1       -0.3620   76.4440   37.7580 C.ar  340  TYR340      0.0417
     89  CE2        0.4060   75.0400   39.5410 C.ar  340  TYR340      0.0417
     90  CZ         0.3560   76.2850   38.9390 C.ar  340  TYR340      0.1957
     91  OH         1.0160   77.4150   39.4530 O.3   340  TYR340     -0.2866
     92  N         -1.1570   70.5470   34.2380 N.am  341  LYS341     -0.1980
     93  CA        -1.8460   69.4120   33.5390 C.3   341  LYS341      0.1596
     94  C         -0.9470   68.2170   33.1860 C.2   341  LYS341      0.2287
     95  O          0.1310   68.3660   32.5870 O.2   341  LYS341     -0.2864
     96  CB        -2.5000   69.8940   32.2200 C.3   341  LYS341      0.0298
     97  CG        -3.0950   68.7730   31.4270 C.3   341  LYS341      0.0038
     98  CD        -4.1720   69.2910   30.5110 C.3   341  LYS341      0.0206
     99  CE        -3.8480   69.1630   29.0640 C.3   341  LYS341      0.1093
    100  NZ        -4.9040   69.7210   28.2150 N.3   341  LYS341     -0.1314
@<TRIPOS>BOND
     1   100    99    1
     2    99    98    1
     3    76    75    1
     4    76    77    2
     5    78    77    1
     6    98    97    1
     7    75    74    1
     8    77    79    1
     9    97    96    1
    10    74    73    1
    11    71    72    2
    12    71    70    1
    13    73    70    1
    14    96    93    1
    15    95    94    2
    16    58    59    2
    17    58    57    1
    18    70    69    1
    19    94    93    1
    20    64    65    1
    21    69    66   am
    22    93    92    1
    23    56    57    1
    24    57    60    1
    25    66    67    2
    26    66    65    1
    27    92    82   am
    28    60    61    1
    29     9     7   am
    30    65    68    1
    31    80    81    1
    32     7     6    1
    33     7     8    2
    34    82    81    1
    35    82    83    2
    36    61    62    1
    37    61    63    1
    38     6     5    1
    39     4     3    2
    40     3     2    1
    41    81    84    1
    42     5     2    1
    43     2     1    1
    44    84    85    1
    45    86    88   ar
    46    86    85   ar
    47    88    90   ar
    48    85    87   ar
    49    90    91    1
    50    90    89   ar
    51    87    89   ar
    52    26    24   ar
    53    55    54    1
    54    44    42   ar
    55    44    46   ar
    56    54    53    1
    57    24    25   ar
    58    24    23    1
    59    47    46    1
    60    42    41   ar
    61    46    45   ar
    62    23    22    1
    63    53    52    1
    64    41    40    1
    65    41    43   ar
    66    45    43   ar
    67    48    49    1
    68    49    52    1
    69    49    50    1
    70    40    37    1
    71    22    19    1
    72    37    36    1
    73    37    38    1
    74    51    50    2
    75    39    38    2
    76    21    20    2
    77    19    20    1
    78    19    18    1
    79    16    15    1
    80    20    27   am
    81    27    28    1
    82    10    11    1
    83    11    14    1
    84    11    12    1
    85    15    14    1
    86    15    17    1
    87    28    29    1
    88    28    31    1
    89    13    12    2
    90    30    29    2
    91    32    31    1
    92    32    33    1
    93    35    33   ar
    94    33    34   ar
