@<TRIPOS>MOLECULE
tmp/5jv0A01.pdb
 108 107 0 0 0
SMALL
GASTEIGER

@<TRIPOS>ATOM
      1  N         -8.4580   86.6270   21.5400 N.3    62  ARG62      -0.1231
      2  CA        -9.8330   86.1890   21.3930 C.3    62  ARG62       0.1694
      3  C        -10.6600   86.2590   22.6480 C.2    62  ARG62       0.2592
      4  O        -11.8230   86.2470   22.5600 O.2    62  ARG62      -0.2718
      5  CB        -9.8900   84.7710   20.8450 C.3    62  ARG62       0.0321
      6  CG        -9.5610   84.7530   19.3590 C.3    62  ARG62       0.0489
      7  CD        -9.9490   83.4210   18.7910 C.3    62  ARG62       0.2205
      8  NE        -9.6930   83.1240   17.3640 N.pl3  62  ARG62      -0.0865
      9  CZ       -10.3680   83.5930   16.3280 C.cat  62  ARG62       0.5346
     10  NH1      -11.2650   84.5640   16.4550 N.pl3  62  ARG62       0.1354
     11  NH2      -10.0840   83.0960   15.1310 N.pl3  62  ARG62       0.1354
     12  N        -10.0800   86.2940   23.8210 N.am   63  GLU63      -0.1966
     13  CA       -10.8570   86.4220   25.0130 C.3    63  GLU63       0.1733
     14  C        -10.9590   87.8410   25.4380 C.2    63  GLU63       0.2616
     15  O        -11.8000   88.1890   26.2420 O.2    63  GLU63      -0.2715
     16  CB       -10.2460   85.5800   26.0970 C.3    63  GLU63       0.0429
     17  CG       -10.1230   84.1030   25.7170 C.3    63  GLU63       0.1163
     18  CD        -9.2220   83.3180   26.6440 C.2    63  GLU63       0.3649
     19  OE1       -8.3580   83.9310   27.3180 O.co2  63  GLU63      -0.2457
     20  OE2       -9.3500   82.0800   26.6970 O.co2  63  GLU63      -0.2457
     21  N        -10.0830   88.6720   24.9340 N.am   64  LEU64      -0.1963
     22  CA       -10.0130   90.0320   25.3970 C.3    64  LEU64       0.1728
     23  C        -10.8370   90.9680   24.5570 C.2    64  LEU64       0.2616
     24  O        -11.3230   91.9580   25.0820 O.2    64  LEU64      -0.2715
     25  CB        -8.5730   90.5150   25.4760 C.3    64  LEU64       0.0311
     26  CG        -7.7460   89.9460   26.6200 C.3    64  LEU64       0.0022
     27  CD1       -6.2640   90.3840   26.5850 C.3    64  LEU64       0.0001
     28  CD2       -8.3840   90.3440   27.9430 C.3    64  LEU64       0.0001
     29  N        -11.0110   90.6410   23.2890 N.am   65  VAL65      -0.1963
     30  CA       -11.5690   91.5660   22.3390 C.3    65  VAL65       0.1727
     31  C        -12.9990   91.1750   21.9840 C.2    65  VAL65       0.2616
     32  O        -13.2390   90.0320   21.5880 O.2    65  VAL65      -0.2715
     33  CB       -10.6720   91.5600   21.1150 C.3    65  VAL65       0.0290
     34  CG1      -11.2340   92.4470   19.9920 C.3    65  VAL65       0.0023
     35  CG2       -9.2730   91.9790   21.5770 C.3    65  VAL65       0.0023
     36  N        -13.9460   92.1030   22.1700 N.am   66  GLU66      -0.1964
     37  CA       -15.3090   91.9820   21.6200 C.3    66  GLU66       0.1718
     38  C        -15.2340   91.2540   20.2540 C.2    66  GLU66       0.2458
     39  O        -14.4810   91.6640   19.3770 O.2    66  GLU66      -0.2730
     40  CB       -15.9590   93.3670   21.3880 C.3    66  GLU66       0.0428
     41  CG       -16.3280   94.2410   22.6050 C.3    66  GLU66       0.1163
     42  CD       -16.9070   95.6370   22.2410 C.2    66  GLU66       0.3649
     43  OE1      -16.7810   96.1410   21.0790 O.co2  66  GLU66      -0.2457
     44  OE2      -17.5170   96.2510   23.1440 O.co2  66  GLU66      -0.2457
     45  N        -15.9940   90.1660   20.0680 N.am   67  PRO67      -0.2727
     46  CA       -15.9490   89.4800   18.7430 C.3    67  PRO67       0.1402
     47  C        -16.3300   90.3670   17.5020 C.2    67  PRO67       0.2269
     48  O        -15.8880   90.0920   16.3760 O.2    67  PRO67      -0.2865
     49  CB       -16.9700   88.3110   18.9230 C.3    67  PRO67       0.0296
     50  CG       -17.1830   88.1790   20.4040 C.3    67  PRO67       0.0237
     51  CD       -17.0210   89.5740   20.9570 C.3    67  PRO67       0.0939
     52  N        -15.1710   93.1960   17.0160 N.3    69  LYS69      -0.1231
     53  CA       -13.8180   93.7330   16.5610 C.3    69  LYS69       0.1693
     54  C        -12.6960   92.7440   16.2600 C.2    69  LYS69       0.2591
     55  O        -11.5190   93.1000   16.2490 O.2    69  LYS69      -0.2718
     56  CB       -13.2390   94.7070   17.5850 C.3    69  LYS69       0.0285
     57  CG       -14.2490   95.6650   18.1590 C.3    69  LYS69       0.0035
     58  CD       -13.5180   96.6490   19.0170 C.3    69  LYS69       0.0206
     59  CE       -14.4900   97.6930   19.4810 C.3    69  LYS69       0.1093
     60  NZ       -13.9540   98.2740   20.7320 N.3    69  LYS69      -0.1314
     61  N        -13.0540   91.5050   16.0070 N.am   70  GLN70      -0.1979
     62  CA       -12.1040   90.5000   15.5450 C.3    70  GLN70       0.1601
     63  C        -12.3070   90.2480   14.0220 C.2    70  GLN70       0.2287
     64  O        -12.5820   89.1250   13.5790 O.2    70  GLN70      -0.2864
     65  CB       -12.3100   89.2160   16.3530 C.3    70  GLN70       0.0394
     66  CG       -12.1910   89.3500   17.8720 C.3    70  GLN70       0.0908
     67  CD       -12.4120   88.0060   18.6430 C.2    70  GLN70       0.2608
     68  OE1      -12.5760   86.8990   18.0770 O.2    70  GLN70      -0.2717
     69  NE2      -12.4510   88.1270   19.9570 N.am   70  GLN70      -0.0878
     70  N         -5.4680   95.0110   22.6640 N.3   208  ALA208     -0.1231
     71  CA        -6.8780   95.1560   22.9240 C.3   208  ALA208      0.1694
     72  C         -7.1350   96.5010   23.5810 C.2   208  ALA208      0.2593
     73  O         -8.2240   96.7470   24.0740 O.2   208  ALA208     -0.2718
     74  CB        -7.3330   94.0160   23.8220 C.3   208  ALA208      0.0304
     75  N         -6.1320   97.3760   23.6130 N.am  209  GLY209     -0.1942
     76  CA        -6.3270   98.6770   24.1730 C.3   209  GLY209      0.2014
     77  C         -6.0000   98.6920   25.6270 C.2   209  GLY209      0.2638
     78  O         -5.9910   99.7570   26.2150 O.2   209  GLY209     -0.2714
     79  N         -5.6530   97.5620   26.2350 N.am  210  ILE210     -0.1977
     80  CA        -5.3880   97.6010   27.6770 C.3   210  ILE210      0.1596
     81  C         -3.9090   97.9220   27.8560 C.2   210  ILE210      0.2287
     82  O         -3.0610   97.0400   27.7780 O.2   210  ILE210     -0.2864
     83  CB        -5.7640   96.2780   28.4100 C.3   210  ILE210      0.0276
     84  CG1       -7.1630   95.8290   28.0270 C.3   210  ILE210      0.0022
     85  CG2       -5.6580   96.4390   29.9200 C.3   210  ILE210      0.0022
     86  CD1       -7.3180   94.3360   28.1440 C.3   210  ILE210      0.0001
     87  N         -9.5630   93.7430   35.6330 N.3   326  PRO326     -0.2102
     88  CA       -10.8360   93.4840   34.9440 C.3   326  PRO326      0.1504
     89  C        -10.7000   92.5650   33.7220 C.2   326  PRO326      0.2576
     90  O        -11.5960   92.5620   32.8590 O.2   326  PRO326     -0.2718
     91  CB       -11.2290   94.9020   34.4880 C.3   326  PRO326      0.0282
     92  CG        -9.8930   95.4830   34.0700 C.3   326  PRO326      0.0208
     93  CD        -8.8610   94.8900   35.0190 C.3   326  PRO326      0.0893
     94  N         -9.5910   91.8220   33.6020 N.am  327  LEU327     -0.1967
     95  CA        -9.5030   90.7570   32.5620 C.3   327  LEU327      0.1713
     96  C        -10.3730   89.5760   32.9740 C.2   327  LEU327      0.2458
     97  O        -10.6810   89.4160   34.1760 O.2   327  LEU327     -0.2730
     98  CB        -8.0680   90.3110   32.3140 C.3   327  LEU327      0.0310
     99  CG        -7.0160   91.4470   32.1260 C.3   327  LEU327      0.0022
    100  CD1       -5.6550   90.8490   31.8420 C.3   327  LEU327      0.0001
    101  CD2       -7.3890   92.3950   31.0330 C.3   327  LEU327      0.0001
    102  N        -10.8520   88.8150   31.9880 N.am  328  PRO328     -0.2727
    103  CA       -11.5770   87.6140   32.2570 C.3   328  PRO328      0.1402
    104  C        -10.6000   86.6030   32.8900 C.2   328  PRO328      0.2269
    105  O         -9.4930   86.3810   32.3960 O.2   328  PRO328     -0.2865
    106  CB       -12.0430   87.1420   30.8980 C.3   328  PRO328      0.0296
    107  CG       -11.2790   87.8640   29.8610 C.3   328  PRO328      0.0237
    108  CD       -10.6770   89.0600   30.5480 C.3   328  PRO328      0.0939
@<TRIPOS>BOND
     1    64    63    2
     2    63    62    1
     3    11     9    1
     4    62    61    1
     5    62    65    1
     6    61    54   am
     7    55    54    2
     8    54    53    1
     9     9    10    1
    10     9     8    2
    11    65    66    1
    12    48    47    2
    13    53    52    1
    14    53    56    1
    15     8     7    1
    16    47    46    1
    17    56    57    1
    18    66    67    1
    19    68    67    2
    20    57    58    1
    21    67    69   am
    22    46    49    1
    23    46    45    1
    24     7     6    1
    25    49    50    1
    26    58    59    1
    27     6     5    1
    28    39    38    2
    29    59    60    1
    30    34    33    1
    31    45    38   am
    32    45    51    1
    33    38    37    1
    34    50    51    1
    35     5     2    1
    36    43    42   ar
    37    33    35    1
    38    33    30    1
    39    40    37    1
    40    40    41    1
    41     2     1    1
    42     2     3    1
    43    32    31    2
    44    37    36    1
    45    31    36   am
    46    31    30    1
    47    42    41    1
    48    42    44   ar
    49    30    29    1
    50     4     3    2
    51     3    12   am
    52    70    71    1
    53    71    72    1
    54    71    74    1
    55    29    23   am
    56    72    75   am
    57    72    73    2
    58    75    76    1
    59    12    13    1
    60    76    77    1
    61    23    24    2
    62    23    22    1
    63    21    22    1
    64    21    14   am
    65    13    14    1
    66    13    16    1
    67    22    25    1
    68    14    15    2
    69    25    26    1
    70    77    78    2
    71    77    79   am
    72    17    16    1
    73    17    18    1
    74    79    80    1
    75    27    26    1
    76    26    28    1
    77    18    20   ar
    78    18    19   ar
    79    80    81    1
    80    80    83    1
    81    82    81    2
    82    84    86    1
    83    84    83    1
    84    83    85    1
    85   107   108    1
    86   107   106    1
    87   108   102    1
    88   106   103    1
    89   101    99    1
    90   100    99    1
    91   102   103    1
    92   102    96   am
    93    99    98    1
    94   103   104    1
    95    98    95    1
    96   105   104    2
    97    95    96    1
    98    95    94    1
    99    90    89    2
   100    96    97    2
   101    94    89   am
   102    89    88    1
   103    92    91    1
   104    92    93    1
   105    91    88    1
   106    88    87    1
   107    93    87    1
