@<TRIPOS>MOLECULE
tmp/5jv0A00.pdb
 155 146 0 0 0
SMALL
GASTEIGER

@<TRIPOS>ATOM
      1  N         -6.5710   75.9930   22.4540 N.3     3  TYR3       -0.1241
      2  CA        -5.2900   76.1000   21.7500 C.3     3  TYR3        0.1605
      3  C         -5.2150   75.1740   20.5320 C.2     3  TYR3        0.2264
      4  O         -4.6450   75.6080   19.5610 O.2     3  TYR3       -0.2867
      5  CB        -4.0860   75.7920   22.6870 C.3     3  TYR3        0.0534
      6  CG        -3.6830   76.8620   23.7140 C.ar    3  TYR3       -0.0201
      7  CD1       -2.4320   77.4680   23.6550 C.ar    3  TYR3       -0.0009
      8  CD2       -4.4930   77.2140   24.7850 C.ar    3  TYR3       -0.0009
      9  CE1       -2.0020   78.4010   24.5980 C.ar    3  TYR3        0.0417
     10  CE2       -4.0720   78.1760   25.7330 C.ar    3  TYR3        0.0417
     11  CZ        -2.8140   78.7710   25.5930 C.ar    3  TYR3        0.1957
     12  OH        -2.3310   79.6870   26.4540 O.3     3  TYR3       -0.2866
     13  N          5.9540   73.3260   19.9400 N.3    50  LYS50      -0.1245
     14  CA         4.5300   73.2810   20.1910 C.3    50  LYS50       0.1561
     15  C          3.8810   74.6730   20.0340 C.2    50  LYS50       0.2260
     16  O          2.7060   74.7430   19.9060 O.2    50  LYS50      -0.2867
     17  CB         4.2080   72.6920   21.5710 C.3    50  LYS50       0.0271
     18  CG         4.8480   71.3670   21.9750 C.3    50  LYS50       0.0035
     19  CD         4.2510   70.1360   21.3760 C.3    50  LYS50       0.0206
     20  CE         5.1610   68.9060   21.5520 C.3    50  LYS50       0.1093
     21  NZ         6.5350   69.1360   20.9750 N.3    50  LYS50      -0.1314
     22  N          3.3010   77.1980   22.0310 N.3    52  ASN52      -0.1225
     23  CA         2.5110   77.6470   23.1420 C.3    52  ASN52       0.1785
     24  C          2.5670   79.1270   23.4160 C.2    52  ASN52       0.2597
     25  O          1.5580   79.7450   23.6920 O.2    52  ASN52      -0.2718
     26  CB         2.8960   76.8420   24.3590 C.3    52  ASN52       0.1169
     27  CG         2.3160   75.4050   24.3060 C.2    52  ASN52       0.2627
     28  OD1        1.1120   75.2160   24.0260 O.2    52  ASN52      -0.2716
     29  ND2        3.1640   74.4050   24.5430 N.am   52  ASN52      -0.0877
     30  N          3.7270   79.7090   23.2800 N.am   53  ARG53      -0.1979
     31  CA         3.8820   81.0980   23.6130 C.3    53  ARG53       0.1597
     32  C          3.1830   81.9820   22.6120 C.2    53  ARG53       0.2287
     33  O          2.4280   82.9040   23.0030 O.2    53  ARG53      -0.2864
     34  CB         5.3550   81.4700   23.7560 C.3    53  ARG53       0.0334
     35  CG         5.9760   80.8670   25.0420 C.3    53  ARG53       0.0492
     36  CD         7.4990   80.8820   24.9240 C.3    53  ARG53       0.2205
     37  NE         8.2060   80.2510   26.0120 N.pl3  53  ARG53      -0.0865
     38  CZ         8.3310   78.9380   26.1540 C.cat  53  ARG53       0.5346
     39  NH1        7.7840   78.1070   25.2860 N.pl3  53  ARG53       0.1354
     40  NH2        8.9970   78.4320   27.1760 N.pl3  53  ARG53       0.1354
     41  N         -0.5750   81.6770   22.7530 N.3    56  THR56      -0.1218
     42  CA        -1.1710   82.3360   23.8920 C.3    56  THR56       0.1862
     43  C         -1.5110   83.7450   23.5080 C.2    56  THR56       0.2287
     44  O         -2.4330   84.3420   24.0670 O.2    56  THR56      -0.2866
     45  CB        -0.2090   82.3660   25.0650 C.3    56  THR56       0.1770
     46  OG1        0.0320   81.0290   25.4640 O.3    56  THR56      -0.2211
     47  CG2       -0.7330   83.1650   26.2590 C.3    56  THR56       0.0375
     48  N          8.1420   84.0980   28.5670 N.3   196  SER196     -0.1202
     49  CA         7.3760   82.9220   28.3140 C.3   196  SER196      0.2020
     50  C          5.9450   83.1660   28.7590 C.2   196  SER196      0.2618
     51  O          5.0470   82.6630   28.1440 O.2   196  SER196     -0.2717
     52  CB         7.9500   81.6760   29.0140 C.3   196  SER196      0.2103
     53  OG         9.2310   81.3170   28.5630 O.3   196  SER196     -0.2182
     54  N          5.7320   83.9530   29.8110 N.am  197  PHE197     -0.1975
     55  CA         4.4130   84.0950   30.4030 C.3   197  PHE197      0.1639
     56  C          3.8570   85.4980   30.3820 C.2   197  PHE197      0.2290
     57  O          2.7150   85.7020   29.9340 O.2   197  PHE197     -0.2864
     58  CB         4.4440   83.5000   31.8300 C.3   197  PHE197      0.0560
     59  CG         4.4710   82.0260   31.7960 C.ar  197  PHE197     -0.0200
     60  CD1        5.6710   81.3490   31.7790 C.ar  197  PHE197     -0.0042
     61  CD2        3.2520   81.3070   31.6430 C.ar  197  PHE197     -0.0042
     62  CE1        5.6710   79.9510   31.6660 C.ar  197  PHE197     -0.0003
     63  CE2        3.2560   79.9300   31.5480 C.ar  197  PHE197     -0.0003
     64  CZ         4.4780   79.2540   31.5230 C.ar  197  PHE197     -0.0000
     65  N          3.4580   87.1700   26.1650 N.3   200  PRO200     -0.2116
     66  CA         2.3780   86.9040   25.2450 C.3   200  PRO200      0.1372
     67  C          1.0470   87.5140   25.6960 C.2   200  PRO200      0.2244
     68  O          0.3650   88.1210   24.9100 O.2   200  PRO200     -0.2868
     69  CB         2.3130   85.3560   25.1990 C.3   200  PRO200      0.0268
     70  CG         3.5940   84.9090   25.8170 C.3   200  PRO200      0.0207
     71  CD         3.9690   85.9600   26.7920 C.3   200  PRO200      0.0892
     72  N          6.1970   76.7520   36.2260 N.3   230  PHE230     -0.1241
     73  CA         6.4420   76.0040   35.0120 C.3   230  PHE230      0.1605
     74  C          7.9400   75.5040   34.9670 C.2   230  PHE230      0.2264
     75  O          8.2440   74.3560   34.5820 O.2   230  PHE230     -0.2867
     76  CB         6.1730   76.9160   33.8300 C.3   230  PHE230      0.0534
     77  CG         6.5840   76.3580   32.5320 C.ar  230  PHE230     -0.0203
     78  CD1        5.7600   75.4290   31.8790 C.ar  230  PHE230     -0.0042
     79  CD2        7.8130   76.6940   31.9690 C.ar  230  PHE230     -0.0042
     80  CE1        6.1360   74.8870   30.6680 C.ar  230  PHE230     -0.0003
     81  CE2        8.1960   76.1430   30.7480 C.ar  230  PHE230     -0.0003
     82  CZ         7.3580   75.2420   30.1060 C.ar  230  PHE230     -0.0000
     83  N          8.5480   72.8170   37.4310 N.3   233  GLN233     -0.1231
     84  CA         8.0100   71.5430   37.0200 C.3   233  GLN233      0.1698
     85  C          8.9400   70.9420   35.9330 C.2   233  GLN233      0.2592
     86  O          9.1700   69.7090   35.8980 O.2   233  GLN233     -0.2718
     87  CB         6.5530   71.6680   36.6040 C.3   233  GLN233      0.0381
     88  CG         6.0100   70.5170   35.7820 C.3   233  GLN233      0.0905
     89  CD         4.5260   70.6250   35.4460 C.2   233  GLN233      0.2608
     90  OE1        3.6800   70.0140   36.0900 O.2   233  GLN233     -0.2717
     91  NE2        4.2150   71.3490   34.3950 N.am  233  GLN233     -0.0878
     92  N          9.4990   71.8140   35.0860 N.am  234  ASP234     -0.1974
     93  CA        10.4170   71.4090   34.0200 C.3   234  ASP234      0.1709
     94  C         11.6960   70.7360   34.5590 C.2   234  ASP234      0.2293
     95  O         12.1440   69.7000   34.0810 O.2   234  ASP234     -0.2864
     96  CB        10.7680   72.6650   33.2170 C.3   234  ASP234      0.1436
     97  CG        11.2850   72.3880   31.8290 C.2   234  ASP234      0.3671
     98  OD1       10.9620   71.3840   31.1760 O.co2 234  ASP234     -0.2456
     99  OD2       12.0330   73.2510   31.3850 O.co2 234  ASP234     -0.2456
    100  N         10.6870   67.3170   36.0100 N.3   237  LEU237     -0.1245
    101  CA        10.4510   66.3120   34.9670 C.3   237  LEU237      0.1561
    102  C         11.7310   65.9120   34.1560 C.2   237  LEU237      0.2260
    103  O         11.7610   64.8550   33.5140 O.2   237  LEU237     -0.2867
    104  CB         9.3750   66.8070   33.9940 C.3   237  LEU237      0.0270
    105  CG         7.9200   66.8200   34.4700 C.3   237  LEU237      0.0019
    106  CD1        7.0800   67.4530   33.4210 C.3   237  LEU237      0.0001
    107  CD2        7.3250   65.4790   34.7310 C.3   237  LEU237      0.0001
    108  N          6.0480   60.8230   27.9410 N.3   245  VAL245     -0.1231
    109  CA         5.1110   61.9460   28.1910 C.3   245  VAL245      0.1692
    110  C          5.7590   63.3240   27.8770 C.2   245  VAL245      0.2592
    111  O          5.1470   64.1620   27.1940 O.2   245  VAL245     -0.2718
    112  CB         4.5180   61.8880   29.6440 C.3   245  VAL245      0.0266
    113  CG1        3.5350   63.0490   29.9110 C.3   245  VAL245      0.0020
    114  CG2        3.8380   60.5340   29.9010 C.3   245  VAL245      0.0020
    115  N          6.9850   63.5400   28.3780 N.am  246  THR246     -0.1953
    116  CA         7.7600   64.8020   28.1980 C.3   246  THR246      0.1897
    117  C          8.2910   65.0630   26.8010 C.2   246  THR246      0.2313
    118  O          8.3790   66.2230   26.4040 O.2   246  THR246     -0.2863
    119  CB         9.0710   64.8590   29.0590 C.3   246  THR246      0.1794
    120  OG1        9.6570   63.5460   29.2290 O.3   246  THR246     -0.2208
    121  CG2        8.8350   65.5030   30.4180 C.3   246  THR246      0.0378
    122  N         -4.3020   79.1740   30.9620 N.3   335  LEU335     -0.1245
    123  CA        -2.8650   78.9250   31.0350 C.3   335  LEU335      0.1561
    124  C         -2.5120   77.9720   32.1390 C.2   335  LEU335      0.2260
    125  O         -1.7820   76.9900   31.9380 O.2   335  LEU335     -0.2867
    126  CB        -2.0840   80.1880   31.3040 C.3   335  LEU335      0.0270
    127  CG        -1.6980   81.0770   30.1890 C.3   335  LEU335      0.0019
    128  CD1       -1.0560   82.3470   30.7580 C.3   335  LEU335      0.0001
    129  CD2       -0.7380   80.3140   29.3130 C.3   335  LEU335      0.0001
    130  N         -2.9410   74.5680   31.1690 N.3   338  LYS338     -0.1231
    131  CA        -1.8560   74.1070   30.2550 C.3   338  LYS338      0.1693
    132  C         -0.5550   73.6260   30.9250 C.2   338  LYS338      0.2591
    133  O          0.2500   72.9620   30.2800 O.2   338  LYS338     -0.2718
    134  CB        -1.4740   75.1880   29.2690 C.3   338  LYS338      0.0285
    135  CG        -2.3460   75.2290   28.0460 C.3   338  LYS338      0.0035
    136  CD        -1.6820   74.3500   27.0300 C.3   338  LYS338      0.0206
    137  CE        -2.2620   74.5850   25.6610 C.3   338  LYS338      0.1093
    138  NZ        -1.7470   73.5320   24.7840 N.3   338  LYS338     -0.1314
    139  N         -0.3800   73.9610   32.1970 N.am  339  ILE339     -0.1980
    140  CA         0.8220   73.7380   32.9220 C.3   339  ILE339      0.1595
    141  C          0.6470   73.0320   34.2850 C.2   339  ILE339      0.2287
    142  O          1.6110   72.4520   34.7780 O.2   339  ILE339     -0.2864
    143  CB         1.5760   75.1210   33.1110 C.3   339  ILE339      0.0276
    144  CG1        1.0900   75.9570   34.3200 C.3   339  ILE339      0.0022
    145  CG2        1.5630   75.9480   31.7920 C.3   339  ILE339      0.0022
    146  CD1        1.6380   77.3610   34.3000 C.3   339  ILE339      0.0001
    147  N         -1.1570   70.5470   34.2380 N.3   341  LYS341     -0.1245
    148  CA        -1.8460   69.4120   33.5390 C.3   341  LYS341      0.1561
    149  C         -0.9470   68.2170   33.1860 C.2   341  LYS341      0.2260
    150  O          0.1310   68.3660   32.5870 O.2   341  LYS341     -0.2867
    151  CB        -2.5000   69.8940   32.2200 C.3   341  LYS341      0.0271
    152  CG        -3.0950   68.7730   31.4270 C.3   341  LYS341      0.0035
    153  CD        -4.1720   69.2910   30.5110 C.3   341  LYS341      0.0206
    154  CE        -3.8480   69.1630   29.0640 C.3   341  LYS341      0.1093
    155  NZ        -4.9040   69.7210   28.2150 N.3   341  LYS341     -0.1314
@<TRIPOS>BOND
     1     4     3    2
     2    16    15    2
     3    13    14    1
     4    15    14    1
     5    14    17    1
     6     3     2    1
     7    21    20    1
     8    19    20    1
     9    19    18    1
    10    17    18    1
    11     2     1    1
    12     2     5    1
    13    22    23    1
    14    32    33    2
    15    32    31    1
    16     5     6    1
    17    41    42    1
    18    23    24    1
    19    23    26    1
    20    30    24   am
    21    30    31    1
    22    24    25    2
    23    43    42    1
    24    43    44    2
    25    31    34    1
    26     7     6   ar
    27     7     9   ar
    28     6     8   ar
    29    34    35    1
    30    42    45    1
    31    28    27    2
    32    27    26    1
    33    27    29   am
    34     9    11   ar
    35   138   137    1
    36     8    10   ar
    37    68    67    2
    38    36    35    1
    39    36    37    1
    40    45    46    1
    41    45    47    1
    42    69    66    1
    43    69    70    1
    44    66    67    1
    45    66    65    1
    46    39    38    1
    47    11    10   ar
    48    11    12    1
    49   137   136    1
    50    70    71    1
    51    37    38    2
    52    38    40    1
    53    65    71    1
    54   118   117    2
    55   117   116    1
    56   136   135    1
    57   111   110    2
    58   110   109    1
    59   110   115   am
    60   108   109    1
    61   135   134    1
    62    51    50    2
    63   109   112    1
    64   116   115    1
    65   116   119    1
    66   155   154    1
    67    49    48    1
    68    49    50    1
    69    49    52    1
    70    53    52    1
    71    50    54   am
    72   119   120    1
    73   119   121    1
    74   154   153    1
    75   134   131    1
    76   129   127    1
    77   112   114    1
    78   112   113    1
    79    54    55    1
    80    57    56    2
    81    82    80   ar
    82    82    81   ar
    83   127   128    1
    84   127   126    1
    85   131   132    1
    86   131   130    1
    87   133   132    2
    88    56    55    1
    89    55    58    1
    90   153   152    1
    91    80    78   ar
    92    81    79   ar
    93   132   139   am
    94   122   123    1
    95   123   126    1
    96   123   124    1
    97    98    97   ar
    98    99    97   ar
    99   152   151    1
   100    64    63   ar
   101    64    62   ar
   102    63    61   ar
   103    61    59   ar
   104    62    60   ar
   105    60    59   ar
   106   145   143    1
   107    59    58    1
   108    97    96    1
   109    78    77   ar
   110   125   124    2
   111    79    77   ar
   112   139   140    1
   113   151   148    1
   114    77    76    1
   115   150   149    2
   116   140   143    1
   117   140   141    1
   118   143   144    1
   119   149   148    1
   120    96    93    1
   121   106   105    1
   122   103   102    2
   123   148   147    1
   124    76    73    1
   125   104   105    1
   126   104   101    1
   127    93    94    1
   128    93    92    1
   129    95    94    2
   130   102   101    1
   131   141   142    2
   132   146   144    1
   133    91    89   am
   134   105   107    1
   135    75    74    2
   136    74    73    1
   137   101   100    1
   138    73    72    1
   139    92    85   am
   140    89    88    1
   141    89    90    2
   142    88    87    1
   143    86    85    2
   144    85    84    1
   145    87    84    1
   146    84    83    1
