@<TRIPOS>MOLECULE
tmp/5jv2A00.pdb
 138 132 0 0 0
SMALL
GASTEIGER

@<TRIPOS>ATOM
      1  N         -8.4050   73.0920   20.6720 N.3     1  TYR1       -0.1241
      2  CA        -6.9870   73.4070   21.0270 C.3     1  TYR1        0.1605
      3  C         -5.9360   72.7600   20.1260 C.2     1  TYR1        0.2264
      4  O         -4.9370   73.4250   19.8220 O.2     1  TYR1       -0.2867
      5  CB        -6.6380   73.1310   22.5260 C.3     1  TYR1        0.0534
      6  CG        -5.3170   73.8200   22.9130 C.ar    1  TYR1       -0.0201
      7  CD1       -5.2080   75.2300   22.8820 C.ar    1  TYR1       -0.0009
      8  CD2       -4.1410   73.0770   23.2300 C.ar    1  TYR1       -0.0009
      9  CE1       -4.0100   75.8820   23.2170 C.ar    1  TYR1        0.0417
     10  CE2       -2.9190   73.7240   23.5510 C.ar    1  TYR1        0.0417
     11  CZ        -2.8340   75.1390   23.5490 C.ar    1  TYR1        0.1957
     12  OH        -1.6010   75.8290   23.8700 O.3     1  TYR1       -0.2866
     13  N          6.1600   72.7580   20.2810 N.3    43  LYS43      -0.1231
     14  CA         4.7380   72.5360   20.5790 C.3    43  LYS43       0.1693
     15  C          3.9170   73.8020   20.3630 C.2    43  LYS43       0.2592
     16  O          2.7250   73.7230   20.3840 O.2    43  LYS43      -0.2718
     17  CB         4.5470   72.0120   22.0150 C.3    43  LYS43       0.0285
     18  CG         5.2900   70.6710   22.2040 C.3    43  LYS43       0.0035
     19  CD         5.1280   70.0320   23.5280 C.3    43  LYS43       0.0206
     20  CE         5.4220   70.8040   24.7770 C.3    43  LYS43       0.1093
     21  NZ         4.9280   69.9480   25.9320 N.3    43  LYS43      -0.1314
     22  N          4.5420   74.9560   20.1880 N.am   44  TYR44      -0.1962
     23  CA         3.8450   76.1790   19.8240 C.3    44  TYR44       0.1771
     24  C          2.9600   76.7380   20.9340 C.2    44  TYR44       0.2620
     25  O          2.1550   77.6440   20.7050 O.2    44  TYR44      -0.2715
     26  CB         3.0180   76.0610   18.5230 C.3    44  TYR44       0.0574
     27  CG         3.7640   75.3820   17.4620 C.ar   44  TYR44      -0.0198
     28  CD1        3.4560   74.0620   17.0990 C.ar   44  TYR44      -0.0009
     29  CD2        4.8510   75.9850   16.8730 C.ar   44  TYR44      -0.0009
     30  CE1        4.2320   73.3930   16.1300 C.ar   44  TYR44       0.0417
     31  CE2        5.5850   75.3670   15.8910 C.ar   44  TYR44       0.0417
     32  CZ         5.2850   74.0730   15.5360 C.ar   44  TYR44       0.1957
     33  OH         6.0530   73.4680   14.6110 O.3    44  TYR44      -0.2866
     34  N          3.2100   76.3000   22.1580 N.am   45  ASN45      -0.1958
     35  CA         2.3820   76.7290   23.2500 C.3    45  ASN45       0.1819
     36  C          2.4610   78.2190   23.5850 C.2    45  ASN45       0.2621
     37  O          1.4480   78.8080   23.8760 O.2    45  ASN45      -0.2715
     38  CB         2.6840   75.9310   24.4580 C.3    45  ASN45       0.1195
     39  CG         2.2270   74.4950   24.3190 C.2    45  ASN45       0.2630
     40  OD1        1.1630   74.1920   23.6980 O.2    45  ASN45      -0.2716
     41  ND2        3.0310   73.5790   24.9040 N.am   45  ASN45      -0.0877
     42  N          3.6230   78.8160   23.4760 N.am   46  ARG46      -0.1977
     43  CA         3.7720   80.1960   23.7880 C.3    46  ARG46       0.1597
     44  C          3.0860   81.0890   22.7480 C.2    46  ARG46       0.2287
     45  O          2.3800   82.0890   23.1080 O.2    46  ARG46      -0.2864
     46  CB         5.2580   80.5840   23.9290 C.3    46  ARG46       0.0334
     47  CG         5.9520   79.7840   25.0650 C.3    46  ARG46       0.0492
     48  CD         7.4610   80.1940   25.1380 C.3    46  ARG46       0.2205
     49  NE         8.1540   79.5680   26.2400 N.pl3  46  ARG46      -0.0865
     50  CZ         8.3390   78.2400   26.3420 C.cat  46  ARG46       0.5346
     51  NH1        7.8680   77.4070   25.4020 N.pl3  46  ARG46       0.1354
     52  NH2        8.9430   77.7340   27.4200 N.pl3  46  ARG46       0.1354
     53  N         -0.6530   80.8130   22.9210 N.3    49  THR49      -0.1218
     54  CA        -1.2120   81.3980   24.0650 C.3    49  THR49       0.1862
     55  C         -1.6060   82.8350   23.7440 C.2    49  THR49       0.2287
     56  O         -2.5400   83.3770   24.3360 O.2    49  THR49      -0.2866
     57  CB        -0.1810   81.4130   25.1670 C.3    49  THR49       0.1770
     58  OG1       -0.1100   80.1370   25.7790 O.3    49  THR49      -0.2211
     59  CG2       -0.5660   82.3650   26.2600 C.3    49  THR49       0.0375
     60  N         11.5020   82.8780   20.8480 N.3    81  GLN81      -0.1245
     61  CA        11.9290   81.5670   21.3050 C.3    81  GLN81       0.1566
     62  C         13.0170   80.9280   20.4490 C.2    81  GLN81       0.2260
     63  O         14.0370   80.5120   20.9810 O.2    81  GLN81      -0.2867
     64  CB        10.7480   80.6850   21.4760 C.3    81  GLN81       0.0367
     65  CG        11.1270   79.2870   21.5930 C.3    81  GLN81       0.0905
     66  CD        10.6520   78.7710   22.8580 C.2    81  GLN81       0.2608
     67  OE1       11.2900   78.9920   23.8480 O.2    81  GLN81      -0.2717
     68  NE2        9.4730   78.1770   22.8590 N.am   81  GLN81      -0.0878
     69  N          8.0380   83.3090   28.6970 N.3   190  SER190     -0.1202
     70  CA         7.2920   82.1110   28.4770 C.3   190  SER190      0.2020
     71  C          5.8600   82.3060   28.9400 C.2   190  SER190      0.2618
     72  O          4.9610   81.8130   28.2660 O.2   190  SER190     -0.2717
     73  CB         7.9170   80.8810   29.1910 C.3   190  SER190      0.2103
     74  OG         9.1610   80.4560   28.6060 O.3   190  SER190     -0.2182
     75  N          5.6580   83.0590   30.0310 N.am  191  PHE191     -0.1975
     76  CA         4.3930   83.2740   30.6280 C.3   191  PHE191      0.1639
     77  C          3.8350   84.6890   30.5610 C.2   191  PHE191      0.2290
     78  O          2.7130   84.8920   30.0470 O.2   191  PHE191     -0.2864
     79  CB         4.4690   82.7370   32.1030 C.3   191  PHE191      0.0560
     80  CG         4.4610   81.2780   32.1350 C.ar  191  PHE191     -0.0200
     81  CD1        5.6190   80.5660   32.0700 C.ar  191  PHE191     -0.0042
     82  CD2        3.2620   80.6310   32.0460 C.ar  191  PHE191     -0.0042
     83  CE1        5.5860   79.2010   31.9250 C.ar  191  PHE191     -0.0003
     84  CE2        3.2160   79.2740   31.9490 C.ar  191  PHE191     -0.0003
     85  CZ         4.3790   78.5570   31.8700 C.ar  191  PHE191     -0.0000
     86  N          6.3130   75.9490   36.7130 N.3   224  PHE224     -0.1241
     87  CA         6.5060   75.2650   35.4740 C.3   224  PHE224      0.1605
     88  C          7.9630   74.8080   35.3780 C.2   224  PHE224      0.2264
     89  O          8.2640   73.7010   34.9540 O.2   224  PHE224     -0.2867
     90  CB         6.2300   76.2550   34.3190 C.3   224  PHE224      0.0534
     91  CG         6.7840   75.8340   33.0300 C.ar  224  PHE224     -0.0203
     92  CD1        6.0920   74.9310   32.2330 C.ar  224  PHE224     -0.0042
     93  CD2        8.0260   76.2660   32.6240 C.ar  224  PHE224     -0.0042
     94  CE1        6.6190   74.4940   31.0200 C.ar  224  PHE224     -0.0003
     95  CE2        8.5690   75.8480   31.4020 C.ar  224  PHE224     -0.0003
     96  CZ         7.8510   74.9690   30.6050 C.ar  224  PHE224     -0.0000
     97  N          9.4930   71.0870   35.5950 N.3   228  ASP228     -0.1239
     98  CA        10.4900   70.7080   34.5740 C.3   228  ASP228      0.1674
     99  C         11.7300   70.0200   35.1400 C.2   228  ASP228      0.2266
    100  O         12.1490   68.9960   34.6600 O.2   228  ASP228     -0.2867
    101  CB        10.9900   71.9360   33.8460 C.3   228  ASP228      0.1410
    102  CG        10.9080   71.7740   32.3820 C.2   228  ASP228      0.3668
    103  OD1       11.9760   71.5210   31.7250 O.co2 228  ASP228     -0.2456
    104  OD2        9.7310   71.8340   31.9200 O.co2 228  ASP228     -0.2456
    105  N         -4.0390   78.2710   31.3340 N.3   325  LEU325     -0.1245
    106  CA        -2.6190   78.0560   31.4690 C.3   325  LEU325      0.1561
    107  C         -2.3540   77.1770   32.6720 C.2   325  LEU325      0.2260
    108  O         -1.6010   76.2060   32.5700 O.2   325  LEU325     -0.2867
    109  CB        -1.8550   79.3480   31.5270 C.3   325  LEU325      0.0270
    110  CG        -1.6050   80.0850   30.2420 C.3   325  LEU325      0.0019
    111  CD1       -0.9130   81.3860   30.5640 C.3   325  LEU325      0.0001
    112  CD2       -0.7060   79.3380   29.2590 C.3   325  LEU325      0.0001
    113  N         -3.0110   73.6900   31.8450 N.3   328  LYS328     -0.1231
    114  CA        -1.9800   73.0750   31.0010 C.3   328  LYS328      0.1693
    115  C         -0.7150   72.6240   31.8380 C.2   328  LYS328      0.2591
    116  O         -0.2010   71.5050   31.7850 O.2   328  LYS328     -0.2718
    117  CB        -1.6060   74.0620   29.9060 C.3   328  LYS328      0.0285
    118  CG        -0.6030   73.5160   28.9150 C.3   328  LYS328      0.0035
    119  CD        -1.2530   72.8800   27.6720 C.3   328  LYS328      0.0206
    120  CE        -0.2340   72.5490   26.5990 C.3   328  LYS328      0.1093
    121  NZ         0.2820   71.1380   26.6950 N.3   328  LYS328     -0.1314
    122  N         -0.3230   73.4960   32.7090 N.am  329  ILE329     -0.1980
    123  CA         0.8620   73.3190   33.5270 C.3   329  ILE329      0.1595
    124  C          0.6770   72.3390   34.6610 C.2   329  ILE329      0.2287
    125  O          1.5570   71.6040   34.9450 O.2   329  ILE329     -0.2864
    126  CB         1.1700   74.6860   34.1450 C.3   329  ILE329      0.0276
    127  CG1        1.7720   75.5550   33.1100 C.3   329  ILE329      0.0022
    128  CG2        2.0940   74.6560   35.3330 C.3   329  ILE329      0.0022
    129  CD1        1.7460   76.9380   33.6620 C.3   329  ILE329      0.0001
    130  N         -1.2790   69.8330   34.8350 N.3   331  LYS331     -0.1245
    131  CA        -1.4840   68.4650   34.3040 C.3   331  LYS331      0.1561
    132  C         -0.6860   67.3920   35.0210 C.2   331  LYS331      0.2260
    133  O         -1.2310   66.3290   35.3650 O.2   331  LYS331     -0.2867
    134  CB        -1.1840   68.4160   32.7940 C.3   331  LYS331      0.0271
    135  CG        -2.3320   68.9010   31.9540 C.3   331  LYS331      0.0035
    136  CD        -2.0230   68.8010   30.4680 C.3   331  LYS331      0.0206
    137  CE        -3.1830   68.8860   29.5670 C.3   331  LYS331      0.1093
    138  NZ        -3.9810   70.1010   29.6160 N.3   331  LYS331     -0.1314
@<TRIPOS>BOND
     1    33    32    1
     2    32    31   ar
     3    32    30   ar
     4    31    29   ar
     5    30    28   ar
     6    29    27   ar
     7    28    27   ar
     8    27    26    1
     9    26    23    1
    10     4     3    2
    11    23    22    1
    12    23    24    1
    13     3     2    1
    14    22    15   am
    15    13    14    1
    16    15    16    2
    17    15    14    1
    18    62    63    2
    19    62    61    1
    20    14    17    1
    21     1     2    1
    22    25    24    2
    23    60    61    1
    24    24    34   am
    25     2     5    1
    26    61    64    1
    27    64    65    1
    28    65    66    1
    29    17    18    1
    30    34    35    1
    31    18    19    1
    32     5     6    1
    33    44    45    2
    34    44    43    1
    35    66    68   am
    36    66    67    2
    37     7     6   ar
    38     7     9   ar
    39     6     8   ar
    40    53    54    1
    41     9    11   ar
    42     8    10   ar
    43    35    36    1
    44    35    38    1
    45    42    36   am
    46    42    43    1
    47    19    20    1
    48    11    10   ar
    49    11    12    1
    50    36    37    2
    51    40    39    2
    52    55    54    1
    53    55    56    2
    54    43    46    1
    55    46    47    1
    56    54    57    1
    57    39    38    1
    58    39    41   am
    59    20    21    1
    60    47    48    1
    61    48    49    1
    62    57    58    1
    63    57    59    1
    64    51    50    1
    65    49    50    2
    66    50    52    1
    67   120   121    1
    68   120   119    1
    69   119   118    1
    70    72    71    2
    71    70    69    1
    72    70    71    1
    73    70    73    1
    74    74    73    1
    75   118   117    1
    76    71    75   am
    77   112   110    1
    78   137   138    1
    79   137   136    1
    80   117   114    1
    81    75    76    1
    82    78    77    2
    83   110   111    1
    84   110   109    1
    85   136   135    1
    86    77    76    1
    87    96    94   ar
    88    96    95   ar
    89    76    79    1
    90   114   115    1
    91   114   113    1
    92    94    92   ar
    93   105   106    1
    94    95    93   ar
    95   106   109    1
    96   106   107    1
    97   103   102   ar
    98   116   115    2
    99   115   122   am
   100    85    83   ar
   101    85    84   ar
   102   104   102   ar
   103    83    81   ar
   104    84    82   ar
   105   135   134    1
   106    82    80   ar
   107    81    80   ar
   108    79    80    1
   109    92    91   ar
   110   102   101    1
   111   108   107    2
   112    93    91   ar
   113   122   123    1
   114   134   131    1
   115    91    90    1
   116   127   129    1
   117   127   126    1
   118   123   126    1
   119   123   124    1
   120   101    98    1
   121   126   128    1
   122   131   130    1
   123   131   132    1
   124    90    87    1
   125    98    99    1
   126    98    97    1
   127   100    99    2
   128   124   125    2
   129    89    88    2
   130   132   133    2
   131    88    87    1
   132    87    86    1
