@<TRIPOS>MOLECULE
tmp/5jv4A00.pdb
 93 90 0 0 0
SMALL
GASTEIGER

@<TRIPOS>ATOM
      1  N         25.6650  -43.1190   37.0700 N.3    15  ALA15      -0.1245
      2  CA        24.7460  -42.2200   36.3830 C.3    15  ALA15       0.1562
      3  C         25.4360  -41.5520   35.1950 C.2    15  ALA15       0.2260
      4  O         26.6380  -41.2960   35.2000 O.2    15  ALA15      -0.2867
      5  CB        24.2020  -41.1080   37.3100 C.3    15  ALA15       0.0290
      6  N         18.3000  -31.6400   24.1890 N.3    28  HIS28      -0.1241
      7  CA        17.5460  -31.9280   25.3980 C.3    28  HIS28       0.1621
      8  C         18.3300  -32.8910   26.2860 C.2    28  HIS28       0.2264
      9  O         18.8790  -33.8220   25.7940 O.2    28  HIS28      -0.2867
     10  CB        16.2890  -32.6330   24.9590 C.3    28  HIS28       0.0745
     11  CG        15.3030  -32.8750   26.0410 C.ar   28  HIS28       0.0817
     12  ND1       14.4280  -31.9150   26.4670 N.ar   28  HIS28      -0.2268
     13  CD2       14.9780  -34.0000   26.7070 C.ar   28  HIS28       0.1154
     14  CE1       13.6600  -32.4150   27.4070 C.ar   28  HIS28       0.1986
     15  NE2       13.9460  -33.6880   27.5430 N.ar   28  HIS28      -0.2212
     16  N         18.5260  -35.3940   29.9410 N.3    30  VAL30      -0.1231
     17  CA        17.9480  -36.0180   31.0950 C.3    30  VAL30       0.1678
     18  C         19.0030  -36.9170   31.7090 C.2    30  VAL30       0.2434
     19  O         19.8770  -37.4370   30.9720 O.2    30  VAL30      -0.2733
     20  CB        16.6780  -36.8680   30.7770 C.3    30  VAL30       0.0265
     21  CG1       15.5620  -36.0410   30.1860 C.3    30  VAL30       0.0020
     22  CG2       16.9790  -38.0620   29.9380 C.3    30  VAL30       0.0020
     23  N         18.9500  -37.1100   33.0500 N.am   31  PRO31      -0.2718
     24  CA        19.9060  -38.0480   33.6300 C.3    31  PRO31       0.1535
     25  C         19.3880  -39.4540   33.5390 C.2    31  PRO31       0.2598
     26  O         18.1520  -39.6640   33.5130 O.2    31  PRO31      -0.2715
     27  CB        19.9850  -37.5870   35.0750 C.3    31  PRO31       0.0310
     28  CG        18.6030  -37.0960   35.3540 C.3    31  PRO31       0.0237
     29  CD        18.1730  -36.3890   34.0920 C.3    31  PRO31       0.0939
     30  N         20.2760  -40.4440   33.5130 N.am   32  VAL32      -0.1964
     31  CA        19.8310  -41.8330   33.4650 C.3    32  VAL32       0.1727
     32  C         20.7330  -42.7420   34.3290 C.2    32  VAL32       0.2616
     33  O         21.9250  -42.4650   34.4700 O.2    32  VAL32      -0.2715
     34  CB        19.8190  -42.4380   32.0400 C.3    32  VAL32       0.0290
     35  CG1       18.8070  -41.6650   31.1600 C.3    32  VAL32       0.0023
     36  CG2       21.1910  -42.4050   31.4020 C.3    32  VAL32       0.0023
     37  N         20.1860  -43.8530   34.8250 N.am   33  VAL33      -0.1977
     38  CA        21.0380  -44.9750   35.2260 C.3    33  VAL33       0.1596
     39  C         20.9890  -45.8990   34.0360 C.2    33  VAL33       0.2287
     40  O         20.0690  -45.7750   33.1580 O.2    33  VAL33      -0.2864
     41  CB        20.5750  -45.6670   36.5670 C.3    33  VAL33       0.0276
     42  CG1       20.6280  -44.6600   37.6940 C.3    33  VAL33       0.0022
     43  CG2       19.2180  -46.3590   36.4180 C.3    33  VAL33       0.0022
     44  N         18.8380  -48.5280   29.2220 N.3    50  THR50      -0.1203
     45  CA        18.2230  -47.7220   30.3080 C.3    50  THR50       0.1994
     46  C         16.7170  -47.9980   30.2380 C.2    50  THR50       0.2618
     47  O         16.1510  -48.2090   29.1880 O.2    50  THR50      -0.2717
     48  CB        18.5700  -46.2300   30.1950 C.3    50  THR50       0.1784
     49  OG1       17.9510  -45.4430   31.2580 O.3    50  THR50      -0.2211
     50  CG2       18.0840  -45.6980   28.8580 C.3    50  THR50       0.0376
     51  N         16.0800  -48.0510   31.3880 N.am   51  ALA51      -0.1965
     52  CA        14.6590  -48.3890   31.4290 C.3    51  ALA51       0.1728
     53  C         13.9010  -47.1370   31.8110 C.2    51  ALA51       0.2616
     54  O         14.3810  -46.3550   32.5970 O.2    51  ALA51      -0.2715
     55  CB        14.4220  -49.4710   32.4550 C.3    51  ALA51       0.0334
     56  N         12.6840  -46.9950   31.3000 N.am   52  VAL52      -0.1963
     57  CA        11.8400  -45.8760   31.6860 C.3    52  VAL52       0.1727
     58  C         10.8210  -46.3410   32.7200 C.2    52  VAL52       0.2616
     59  O         10.0520  -47.2710   32.4800 O.2    52  VAL52      -0.2715
     60  CB        11.0990  -45.2800   30.4750 C.3    52  VAL52       0.0290
     61  CG1       10.2700  -44.0780   30.9000 C.3    52  VAL52       0.0023
     62  CG2       12.0880  -44.8960   29.3860 C.3    52  VAL52       0.0023
     63  N         10.8270  -45.6820   33.8740 N.am   53  ASP53      -0.1971
     64  CA         9.9080  -46.0220   34.9880 C.3    53  ASP53       0.1709
     65  C          8.4530  -45.6850   34.5640 C.2    53  ASP53       0.2293
     66  O          8.1390  -44.5290   34.2740 O.2    53  ASP53      -0.2864
     67  CB        10.3590  -45.2290   36.2160 C.3    53  ASP53       0.1436
     68  CG         9.7210  -45.7040   37.5210 C.2    53  ASP53       0.3671
     69  OD1       10.2680  -46.5990   38.1970 O.co2  53  ASP53      -0.2456
     70  OD2        8.6860  -45.1420   37.8820 O.co2  53  ASP53      -0.2456
     71  N          4.7140  -38.9200   25.3430 N.3    64  ARG64      -0.1245
     72  CA         6.0240  -38.4110   25.7390 C.3    64  ARG64       0.1563
     73  C          6.4660  -37.2710   24.8240 C.2    64  ARG64       0.2260
     74  O          6.4990  -37.4110   23.6020 O.2    64  ARG64      -0.2867
     75  CB         7.0630  -39.5330   25.7210 C.3    64  ARG64       0.0307
     76  CG         6.8650  -40.5800   26.8060 C.3    64  ARG64       0.0489
     77  CD         8.0860  -41.4750   26.9380 C.3    64  ARG64       0.2205
     78  NE         8.3380  -42.2410   25.7210 N.pl3  64  ARG64      -0.0865
     79  CZ         7.7700  -43.4110   25.4430 C.cat  64  ARG64       0.5346
     80  NH1        8.0570  -44.0380   24.3110 N.pl3  64  ARG64       0.1354
     81  NH2        6.9140  -43.9540   26.2980 N.pl3  64  ARG64       0.1354
     82  N         17.3490  -51.9460   42.4560 N.3   120  TYR120     -0.1241
     83  CA        16.2370  -52.5370   41.7200 C.3   120  TYR120      0.1605
     84  C         15.6730  -53.7660   42.4580 C.2   120  TYR120      0.2264
     85  O         14.7190  -54.3590   42.0230 O.2   120  TYR120     -0.2867
     86  CB        16.5940  -52.8480   40.2460 C.3   120  TYR120      0.0534
     87  CG        16.5660  -51.6470   39.2790 C.ar  120  TYR120     -0.0201
     88  CD1       15.4450  -50.8880   39.1240 C.ar  120  TYR120     -0.0009
     89  CD2       17.6880  -51.3090   38.5030 C.ar  120  TYR120     -0.0009
     90  CE1       15.4050  -49.8100   38.2250 C.ar  120  TYR120      0.0417
     91  CE2       17.6610  -50.2240   37.5980 C.ar  120  TYR120      0.0417
     92  CZ        16.5250  -49.4880   37.4650 C.ar  120  TYR120      0.1957
     93  OH        16.3880  -48.4390   36.5980 O.3   120  TYR120     -0.2866
@<TRIPOS>BOND
     1    74    73    2
     2     6     7    1
     3    80    79    1
     4    73    72    1
     5    10     7    1
     6    10    11    1
     7    71    72    1
     8     7     8    1
     9    79    78    2
    10    79    81    1
    11    75    72    1
    12    75    76    1
    13    78    77    1
    14     9     8    2
    15    11    12   ar
    16    11    13   ar
    17    12    14   ar
    18    13    15   ar
    19    76    77    1
    20    14    15   ar
    21    50    48    1
    22    47    46    2
    23    44    45    1
    24    62    60    1
    25    22    20    1
    26    16    17    1
    27    21    20    1
    28    48    45    1
    29    48    49    1
    30    46    45    1
    31    46    51   am
    32    60    61    1
    33    60    57    1
    34    20    17    1
    35    19    18    2
    36    17    18    1
    37    35    34    1
    38    56    57    1
    39    56    53   am
    40    51    52    1
    41    36    34    1
    42    52    53    1
    43    52    55    1
    44    57    58    1
    45    18    23   am
    46    53    54    2
    47    34    31    1
    48    59    58    2
    49    58    63   am
    50    23    24    1
    51    23    29    1
    52    40    39    2
    53    31    30    1
    54    31    32    1
    55    30    25   am
    56    26    25    2
    57    25    24    1
    58    24    27    1
    59    63    64    1
    60    39    38    1
    61    29    28    1
    62    66    65    2
    63    32    33    2
    64    32    37   am
    65    65    64    1
    66    37    38    1
    67    64    67    1
    68    27    28    1
    69     3     4    2
    70     3     2    1
    71    38    41    1
    72    67    68    1
    73     2     1    1
    74     2     5    1
    75    43    41    1
    76    41    42    1
    77    93    92    1
    78    92    91   ar
    79    92    90   ar
    80    68    70   ar
    81    68    69   ar
    82    91    89   ar
    83    90    88   ar
    84    89    87   ar
    85    88    87   ar
    86    87    86    1
    87    86    83    1
    88    83    82    1
    89    83    84    1
    90    85    84    2
