@<TRIPOS>MOLECULE
tmp/5jv5B00.pdb
 90 85 0 0 0
SMALL
GASTEIGER

@<TRIPOS>ATOM
      1  N         -1.9780   21.8250   11.6810 N.3    92  GLU92      -0.1231
      2  CA        -2.5400   23.0810   11.2130 C.3    92  GLU92       0.1699
      3  C         -2.9260   23.9210   12.4210 C.2    92  GLU92       0.2592
      4  O         -3.4150   23.3900   13.4220 O.2    92  GLU92      -0.2718
      5  CB        -3.7490   22.8370   10.3000 C.3    92  GLU92       0.0402
      6  CG        -4.2360   24.0650    9.5520 C.3    92  GLU92       0.1161
      7  CD        -5.1150   23.7050    8.3660 C.2    92  GLU92       0.3649
      8  OE1       -4.5890   23.6420    7.2330 O.co2  92  GLU92      -0.2457
      9  OE2       -6.3270   23.4710    8.5700 O.co2  92  GLU92      -0.2457
     10  N         -2.6920   25.2320   12.3280 N.am   93  ASP93      -0.1960
     11  CA        -2.9220   26.1030   13.4770 C.3    93  ASP93       0.1840
     12  C         -4.4030   26.1880   13.8290 C.2    93  ASP93       0.2621
     13  O         -4.7660   26.1550   15.0110 O.2    93  ASP93      -0.2715
     14  CB        -2.3450   27.4940   13.2070 C.3    93  ASP93       0.1450
     15  CG        -2.8290   28.0870   11.8970 C.2    93  ASP93       0.3671
     16  OD1       -3.3750   27.3340   11.0620 O.co2  93  ASP93      -0.2456
     17  OD2       -2.6520   29.3090   11.6990 O.co2  93  ASP93      -0.2456
     18  N         -5.2740   26.2920   12.8280 N.am   94  ILE94      -0.1977
     19  CA        -6.7100   26.3830   13.0600 C.3    94  ILE94       0.1596
     20  C         -7.4380   25.5760   11.9930 C.2    94  ILE94       0.2287
     21  O         -7.0180   25.5340   10.8310 O.2    94  ILE94      -0.2864
     22  CB        -7.1920   27.8510   13.0840 C.3    94  ILE94       0.0276
     23  CG1       -8.6490   27.9320   13.5410 C.3    94  ILE94       0.0022
     24  CG2       -7.0050   28.5160   11.7240 C.3    94  ILE94       0.0022
     25  CD1       -9.1320   29.3400   13.7680 C.3    94  ILE94       0.0001
     26  N        -11.0370   25.4900   10.4070 N.3    96  ASP96      -0.1239
     27  CA       -12.2850   26.2290   10.3140 C.3    96  ASP96       0.1674
     28  C        -13.1730   25.5570    9.2870 C.2    96  ASP96       0.2266
     29  O        -14.0180   24.7170    9.6530 O.2    96  ASP96      -0.2867
     30  CB       -12.0110   27.7040    9.9920 C.3    96  ASP96       0.1410
     31  CG       -13.2830   28.4940    9.7770 C.2    96  ASP96       0.3668
     32  OD1      -14.3050   28.1560   10.4110 O.co2  96  ASP96      -0.2456
     33  OD2      -13.2630   29.4480    8.9720 O.co2  96  ASP96      -0.2456
     34  N         -8.9530   23.5680    3.2500 N.3   100  THR100     -0.1218
     35  CA        -7.5130   23.4590    3.0420 C.3   100  THR100      0.1862
     36  C         -6.9850   22.1200    3.5410 C.2   100  THR100      0.2287
     37  O         -6.1770   21.4720    2.8650 O.2   100  THR100     -0.2866
     38  CB        -6.7920   24.6130    3.7430 C.3   100  THR100      0.1770
     39  OG1       -7.2290   25.8600    3.1880 O.3   100  THR100     -0.2211
     40  CG2       -5.2830   24.4870    3.5760 C.3   100  THR100      0.0375
     41  N        -12.4860   24.8510   14.9980 N.3   124  LYS124     -0.1245
     42  CA       -13.6400   25.7330   14.8510 C.3   124  LYS124      0.1561
     43  C        -14.7550   24.9170   14.2060 C.2   124  LYS124      0.2260
     44  O        -15.0170   25.0510   13.0010 O.2   124  LYS124     -0.2867
     45  CB       -13.2890   26.9600   14.0140 C.3   124  LYS124      0.0271
     46  CG       -13.8880   28.2540   14.5110 C.3   124  LYS124      0.0035
     47  CD       -13.2670   29.4340   13.7890 C.3   124  LYS124      0.0206
     48  CE       -13.9060   30.7390   14.2140 C.3   124  LYS124      0.1093
     49  NZ       -13.3250   31.8940   13.4830 N.3   124  LYS124     -0.1314
     50  N        -16.0200   32.5300   16.2860 N.3   144  VAL144     -0.1231
     51  CA       -15.5970   33.8980   16.5580 C.3   144  VAL144      0.1692
     52  C        -14.1520   34.0390   16.1000 C.2   144  VAL144      0.2592
     53  O        -13.3340   33.1380   16.2990 O.2   144  VAL144     -0.2718
     54  CB       -15.7670   34.2580   18.0510 C.3   144  VAL144      0.0266
     55  CG1      -15.1470   33.1900   18.9380 C.3   144  VAL144      0.0020
     56  CG2      -15.1550   35.6160   18.3470 C.3   144  VAL144      0.0020
     57  N        -13.8450   35.1670   15.4640 N.am  145  PHE145     -0.1962
     58  CA       -12.5030   35.3830   14.9370 C.3   145  PHE145      0.1771
     59  C        -11.5210   35.6050   16.0800 C.2   145  PHE145      0.2619
     60  O        -11.6960   36.5190   16.8940 O.2   145  PHE145     -0.2715
     61  CB       -12.4920   36.5720   13.9820 C.3   145  PHE145      0.0574
     62  CG       -11.2470   36.6630   13.1530 C.ar  145  PHE145     -0.0200
     63  CD1      -11.1130   35.9020   12.0030 C.ar  145  PHE145     -0.0042
     64  CD2      -10.2070   37.4970   13.5250 C.ar  145  PHE145     -0.0042
     65  CE1       -9.9670   35.9770   11.2360 C.ar  145  PHE145     -0.0003
     66  CE2       -9.0580   37.5760   12.7620 C.ar  145  PHE145     -0.0003
     67  CZ        -8.9390   36.8150   11.6160 C.ar  145  PHE145     -0.0000
     68  N        -10.4860   34.7720   16.1410 N.am  146  VAL146     -0.1977
     69  CA        -9.4770   34.8570   17.1850 C.3   146  VAL146      0.1596
     70  C         -8.1190   35.0940   16.5360 C.2   146  VAL146      0.2287
     71  O         -7.9340   34.9100   15.3310 O.2   146  VAL146     -0.2864
     72  CB        -9.4480   33.5930   18.0680 C.3   146  VAL146      0.0276
     73  CG1      -10.8110   33.3630   18.6940 C.3   146  VAL146      0.0022
     74  CG2       -9.0350   32.3880   17.2490 C.3   146  VAL146      0.0022
     75  N         -2.1560   32.4900   14.8740 N.3   151  LEU151     -0.1231
     76  CA        -3.2940   33.0590   14.1670 C.3   151  LEU151      0.1693
     77  C         -3.1310   34.5670   14.0330 C.2   151  LEU151      0.2592
     78  O         -2.7690   35.2570   14.9910 O.2   151  LEU151     -0.2718
     79  CB        -4.5910   32.7260   14.9000 C.3   151  LEU151      0.0284
     80  CG        -4.7810   31.2320   15.1600 C.3   151  LEU151      0.0019
     81  CD1       -6.0700   30.9590   15.9080 C.3   151  LEU151      0.0001
     82  CD2       -4.7480   30.4700   13.8490 C.3   151  LEU151      0.0001
     83  N         -3.4090   35.0790   12.8370 N.am  152  ASP152     -0.1974
     84  CA        -3.1230   36.4630   12.4970 C.3   152  ASP152      0.1709
     85  C         -4.3880   37.2120   12.1090 C.2   152  ASP152      0.2293
     86  O         -5.3490   36.6300   11.5930 O.2   152  ASP152     -0.2864
     87  CB        -2.1340   36.5560   11.3360 C.3   152  ASP152      0.1436
     88  CG        -2.7690   36.2010   10.0050 C.2   152  ASP152      0.3671
     89  OD1       -2.9880   34.9970    9.7520 O.co2 152  ASP152     -0.2456
     90  OD2       -3.0520   37.1230    9.2110 O.co2 152  ASP152     -0.2456
@<TRIPOS>BOND
     1    37    36    2
     2    35    34    1
     3    35    36    1
     4    35    38    1
     5    39    38    1
     6    40    38    1
     7     8     7   ar
     8     7     9   ar
     9     7     6    1
    10    33    31   ar
    11    90    88   ar
    12    28    29    2
    13    28    27    1
    14     6     5    1
    15    89    88   ar
    16    31    30    1
    17    31    32   ar
    18    30    27    1
    19    88    87    1
    20     5     2    1
    21    27    26    1
    22    21    20    2
    23    16    15   ar
    24     2     1    1
    25     2     3    1
    26    65    67   ar
    27    65    63   ar
    28    87    84    1
    29    86    85    2
    30    67    66   ar
    31    17    15   ar
    32    24    22    1
    33    15    14    1
    34    20    19    1
    35    63    62   ar
    36    85    84    1
    37    10     3   am
    38    10    11    1
    39     3     4    2
    40    84    83    1
    41    66    64   ar
    42    18    19    1
    43    18    12   am
    44    83    77   am
    45    44    43    2
    46    19    22    1
    47    22    23    1
    48    62    64   ar
    49    62    61    1
    50    14    11    1
    51    11    12    1
    52    49    48    1
    53    23    25    1
    54    47    48    1
    55    47    46    1
    56    12    13    2
    57    82    80    1
    58    61    58    1
    59    45    46    1
    60    45    42    1
    61    77    76    1
    62    77    78    2
    63    76    75    1
    64    76    79    1
    65    43    42    1
    66    42    41    1
    67    79    80    1
    68    58    57    1
    69    58    59    1
    70    80    81    1
    71    71    70    2
    72    57    52   am
    73    59    68   am
    74    59    60    2
    75    52    53    2
    76    52    51    1
    77    68    69    1
    78    50    51    1
    79    70    69    1
    80    51    54    1
    81    69    72    1
    82    74    72    1
    83    54    56    1
    84    54    55    1
    85    72    73    1
