@<TRIPOS>MOLECULE
tmp/5jvdB00.pdb
 180 169 0 0 0
SMALL
GASTEIGER

@<TRIPOS>ATOM
      1  N         17.9040   55.2660   32.5570 N.3   199  TYR199     -0.1241
      2  CA        16.4580   55.1210   32.6620 C.3   199  TYR199      0.1605
      3  C         16.0410   53.8500   31.9370 C.2   199  TYR199      0.2264
      4  O         16.2190   53.7360   30.7280 O.2   199  TYR199     -0.2867
      5  CB        15.7350   56.3120   32.0590 C.3   199  TYR199      0.0534
      6  CG        15.9940   57.6190   32.7520 C.ar  199  TYR199     -0.0201
      7  CD1       15.4670   57.8720   34.0150 C.ar  199  TYR199     -0.0009
      8  CD2       16.7430   58.6180   32.1350 C.ar  199  TYR199     -0.0009
      9  CE1       15.6870   59.0690   34.6550 C.ar  199  TYR199      0.0417
     10  CE2       16.9760   59.8290   32.7660 C.ar  199  TYR199      0.0417
     11  CZ        16.4400   60.0510   34.0330 C.ar  199  TYR199      0.1957
     12  OH        16.6470   61.2490   34.6740 O.3   199  TYR199     -0.2866
     13  N         11.3330   63.6920   33.0040 N.3   235  VAL235     -0.1245
     14  CA        12.5890   63.4880   33.7230 C.3   235  VAL235      0.1561
     15  C         13.6830   64.4700   33.2900 C.2   235  VAL235      0.2260
     16  O         14.7710   64.4420   33.8320 O.2   235  VAL235     -0.2867
     17  CB        13.1250   62.0480   33.5670 C.3   235  VAL235      0.0252
     18  CG1       12.0680   61.0380   33.9710 C.3   235  VAL235      0.0019
     19  CG2       13.6110   61.8040   32.1460 C.3   235  VAL235      0.0019
     20  N         13.4390   69.3570   35.2800 N.3   238  CYS238     -0.1221
     21  CA        14.3120   70.0490   36.2240 C.3   238  CYS238      0.1808
     22  C         15.6070   70.5420   35.5940 C.2   238  CYS238      0.2601
     23  O         16.2640   71.4280   36.1320 O.2   238  CYS238     -0.2717
     24  CB        14.6470   69.1420   37.4000 C.3   238  CYS238      0.0970
     25  SG        13.2290   68.7720   38.4280 S.3   238  CYS238     -0.0800
     26  N         15.9780   69.9560   34.4630 N.am  239  LEU239     -0.1979
     27  CA        17.2100   70.3470   33.7900 C.3   239  LEU239      0.1596
     28  C         16.9410   71.5150   32.8590 C.2   239  LEU239      0.2287
     29  O         17.8210   72.3240   32.5970 O.2   239  LEU239     -0.2864
     30  CB        17.7890   69.1700   33.0070 C.3   239  LEU239      0.0297
     31  CG        17.9970   67.8640   33.7830 C.3   239  LEU239      0.0022
     32  CD1       18.2360   66.7290   32.8100 C.3   239  LEU239      0.0001
     33  CD2       19.1710   67.9960   34.7440 C.3   239  LEU239      0.0001
     34  N         16.2260   73.7370   42.8870 N.3   245  LEU245     -0.1245
     35  CA        17.2630   72.7360   43.0990 C.3   245  LEU245      0.1561
     36  C         18.5770   73.0240   42.4000 C.2   245  LEU245      0.2260
     37  O         19.6150   72.5190   42.8220 O.2   245  LEU245     -0.2867
     38  CB        16.7730   71.3640   42.6440 C.3   245  LEU245      0.0270
     39  CG        15.8380   70.6140   43.5840 C.3   245  LEU245      0.0019
     40  CD1       15.4390   69.2840   42.9560 C.3   245  LEU245      0.0001
     41  CD2       16.4970   70.4000   44.9360 C.3   245  LEU245      0.0001
     42  N         19.1110   71.9610   39.2730 N.3   247  ALA247     -0.1231
     43  CA        19.2430   70.5710   38.8890 C.3   247  ALA247      0.1694
     44  C         20.2620   70.3610   37.7740 C.2   247  ALA247      0.2592
     45  O         20.3580   71.1560   36.8370 O.2   247  ALA247     -0.2718
     46  CB        17.9040   70.0230   38.4710 C.3   247  ALA247      0.0304
     47  N         21.0340   69.2910   37.9010 N.am  248  ASP248     -0.1960
     48  CA        21.8610   68.8050   36.8040 C.3   248  ASP248      0.1840
     49  C         22.0780   67.3170   36.9670 C.2   248  ASP248      0.2621
     50  O         21.6870   66.7340   37.9770 O.2   248  ASP248     -0.2715
     51  CB        23.2000   69.5520   36.7320 C.3   248  ASP248      0.1450
     52  CG        24.0030   69.4590   38.0090 C.2   248  ASP248      0.3671
     53  OD1       23.9990   68.3830   38.6390 O.co2 248  ASP248     -0.2456
     54  OD2       24.6560   70.4600   38.3740 O.co2 248  ASP248     -0.2456
     55  N         22.7170   66.7030   35.9780 N.am  249  LEU249     -0.1977
     56  CA        22.8810   65.2590   35.9660 C.3   249  LEU249      0.1596
     57  C         23.8270   64.7600   37.0540 C.2   249  LEU249      0.2287
     58  O         23.6960   63.6360   37.5230 O.2   249  LEU249     -0.2864
     59  CB        23.3690   64.8100   34.5970 C.3   249  LEU249      0.0297
     60  CG        22.3210   65.0000   33.5000 C.3   249  LEU249      0.0022
     61  CD1       22.9500   64.8120   32.1280 C.3   249  LEU249      0.0001
     62  CD2       21.1650   64.0380   33.7000 C.3   249  LEU249      0.0001
     63  N         24.2640   66.0320   40.1800 N.3   251  LYS251     -0.1231
     64  CA        23.5390   65.9960   41.4480 C.3   251  LYS251      0.1693
     65  C         22.5280   64.8640   41.4800 C.2   251  LYS251      0.2591
     66  O         22.3050   64.2560   42.5230 O.2   251  LYS251     -0.2718
     67  CB        22.8330   67.3170   41.7100 C.3   251  LYS251      0.0285
     68  CG        23.7540   68.4310   42.1410 C.3   251  LYS251      0.0035
     69  CD        22.9720   69.7000   42.3320 C.3   251  LYS251      0.0206
     70  CE        23.8420   70.9030   42.1080 C.3   251  LYS251      0.1093
     71  NZ        23.0700   71.9870   41.4570 N.3   251  LYS251     -0.1314
     72  N         21.9280   64.5800   40.3320 N.am  252  LEU252     -0.1980
     73  CA        21.0210   63.4500   40.2280 C.3   252  LEU252      0.1596
     74  C         21.7600   62.1540   40.5230 C.2   252  LEU252      0.2287
     75  O         21.2870   61.3180   41.2870 O.2   252  LEU252     -0.2864
     76  CB        20.3760   63.3890   38.8430 C.3   252  LEU252      0.0297
     77  CG        19.2570   62.3510   38.6910 C.3   252  LEU252      0.0022
     78  CD1       18.0770   62.6670   39.6030 C.3   252  LEU252      0.0001
     79  CD2       18.7990   62.2720   37.2420 C.3   252  LEU252      0.0001
     80  N         22.8910   61.9380   44.2850 N.3   255  ASN255     -0.1225
     81  CA        21.8080   61.7440   45.2430 C.3   255  ASN255      0.1785
     82  C         20.9590   60.4910   45.0290 C.2   255  ASN255      0.2597
     83  O         20.3080   60.0320   45.9560 O.2   255  ASN255     -0.2718
     84  CB        20.8790   62.9660   45.2430 C.3   255  ASN255      0.1169
     85  CG        21.4930   64.1570   45.9460 C.2   255  ASN255      0.2627
     86  OD1       21.6160   64.1700   47.1700 O.2   255  ASN255     -0.2716
     87  ND2       21.8770   65.1740   45.1780 N.am  255  ASN255     -0.0877
     88  N         20.9650   59.9370   43.8200 N.am  256  MET256     -0.1979
     89  CA        20.1080   58.7830   43.5180 C.3   256  MET256      0.1605
     90  C         20.8550   57.4540   43.5770 C.2   256  MET256      0.2287
     91  O         20.2380   56.4090   43.7480 O.2   256  MET256     -0.2864
     92  CB        19.4510   58.9340   42.1380 C.3   256  MET256      0.0413
     93  CG        18.3830   60.0250   42.0540 C.3   256  MET256      0.0598
     94  SD        16.8280   59.5880   42.8660 S.3   256  MET256     -0.1393
     95  CE        16.3520   58.1070   41.9660 C.3   256  MET256      0.0692
     96  N         16.1300   55.2280   46.5540 N.3   307  THR307     -0.1203
     97  CA        15.9380   56.6680   46.4560 C.3   307  THR307      0.1994
     98  C         14.8480   56.9720   45.4430 C.2   307  THR307      0.2618
     99  O         14.5110   56.1300   44.5980 O.2   307  THR307     -0.2717
    100  CB        17.2330   57.3860   46.0330 C.3   307  THR307      0.1784
    101  OG1       17.6140   56.9340   44.7290 O.3   307  THR307     -0.2211
    102  CG2       18.3580   57.0940   47.0210 C.3   307  THR307      0.0376
    103  N         14.3170   58.1840   45.5240 N.am  308  VAL308     -0.1965
    104  CA        13.2520   58.6040   44.6370 C.3   308  VAL308      0.1727
    105  C         13.3460   60.0870   44.3470 C.2   308  VAL308      0.2616
    106  O         13.5990   60.8790   45.2350 O.2   308  VAL308     -0.2715
    107  CB        11.8670   58.3120   45.2400 C.3   308  VAL308      0.0290
    108  CG1       10.7710   58.8220   44.3100 C.3   308  VAL308      0.0023
    109  CG2       11.7060   56.8130   45.5060 C.3   308  VAL308      0.0023
    110  N         13.1550   60.4510   43.0880 N.am  309  ALA309     -0.1963
    111  CA        13.0180   61.8460   42.7260 C.3   309  ALA309      0.1728
    112  C         11.6480   62.0330   42.0670 C.2   309  ALA309      0.2616
    113  O         11.2400   61.2310   41.2430 O.2   309  ALA309     -0.2715
    114  CB        14.1360   62.2770   41.7940 C.3   309  ALA309      0.0334
    115  N         10.9470   63.0880   42.4450 N.am  310  ALA310     -0.1963
    116  CA         9.6120   63.3340   41.9000 C.3   310  ALA310      0.1728
    117  C          9.5430   64.7340   41.3090 C.2   310  ALA310      0.2616
    118  O         10.1210   65.6820   41.8470 O.2   310  ALA310     -0.2715
    119  CB         8.5460   63.1520   42.9750 C.3   310  ALA310      0.0334
    120  N          8.8490   64.8580   40.1860 N.am  311  ILE311     -0.1977
    121  CA         8.6670   66.1620   39.5720 C.3   311  ILE311      0.1596
    122  C          7.1900   66.4380   39.3230 C.2   311  ILE311      0.2287
    123  O          6.5280   65.7220   38.5820 O.2   311  ILE311     -0.2864
    124  CB         9.4330   66.2790   38.2510 C.3   311  ILE311      0.0276
    125  CG1       10.9340   66.1000   38.4860 C.3   311  ILE311      0.0022
    126  CG2        9.1820   67.6130   37.6190 C.3   311  ILE311      0.0022
    127  CD1       11.4030   64.6530   38.4570 C.3   311  ILE311      0.0001
    128  N         18.6710   54.9640   54.5380 N.3   340  ILE340     -0.1245
    129  CA        18.8780   56.1990   53.7970 C.3   340  ILE340      0.1561
    130  C         17.7970   57.1880   54.2060 C.2   340  ILE340      0.2260
    131  O         16.7000   57.1800   53.6490 O.2   340  ILE340     -0.2867
    132  CB        18.8270   55.9940   52.2780 C.3   340  ILE340      0.0252
    133  CG1       19.8640   54.9610   51.8390 C.3   340  ILE340      0.0019
    134  CG2       19.0560   57.3220   51.5540 C.3   340  ILE340      0.0019
    135  CD1       19.8990   54.7480   50.3570 C.3   340  ILE340      0.0001
    136  N         15.3440   60.2330   54.4950 N.3   342  ASN342     -0.1225
    137  CA        14.8210   61.2430   53.5910 C.3   342  ASN342      0.1785
    138  C         15.1970   60.9730   52.1470 C.2   342  ASN342      0.2597
    139  O         15.7160   61.8460   51.4510 O.2   342  ASN342     -0.2718
    140  CB        15.3160   62.6130   54.0340 C.3   342  ASN342      0.1169
    141  CG        15.2530   62.7820   55.5390 C.2   342  ASN342      0.2627
    142  OD1       16.2710   63.0180   56.1970 O.2   342  ASN342     -0.2716
    143  ND2       14.0550   62.6380   56.1040 N.am  342  ASN342     -0.0877
    144  N         14.9350   59.7490   51.7070 N.am  343  ASN343     -0.1960
    145  CA        15.3570   59.2930   50.3840 C.3   343  ASN343      0.1819
    146  C         14.3480   59.6430   49.3000 C.2   343  ASN343      0.2621
    147  O         14.4110   59.1240   48.1940 O.2   343  ASN343     -0.2715
    148  CB        15.6170   57.7890   50.4050 C.3   343  ASN343      0.1195
    149  CG        14.4060   56.9890   50.8590 C.2   343  ASN343      0.2630
    150  OD1       13.5040   57.5130   51.5150 O.2   343  ASN343     -0.2716
    151  ND2       14.3910   55.7060   50.5250 N.am  343  ASN343     -0.0877
    152  N         13.4370   60.5530   49.6060 N.am  344  VAL344     -0.1963
    153  CA        12.5020   61.0260   48.5990 C.3   344  VAL344      0.1727
    154  C         12.5910   62.5290   48.4640 C.2   344  VAL344      0.2616
    155  O         12.4830   63.2750   49.4520 O.2   344  VAL344     -0.2715
    156  CB        11.0520   60.6280   48.9090 C.3   344  VAL344      0.0290
    157  CG1       10.1420   61.0680   47.7690 C.3   344  VAL344      0.0023
    158  CG2       10.9660   59.1250   49.1170 C.3   344  VAL344      0.0023
    159  N         12.7800   62.9620   47.2280 N.am  345  LYS345     -0.1977
    160  CA        12.9630   64.3680   46.9290 C.3   345  LYS345      0.1596
    161  C         11.9530   64.8180   45.8900 C.2   345  LYS345      0.2287
    162  O         11.7770   64.1610   44.8570 O.2   345  LYS345     -0.2864
    163  CB        14.3850   64.6240   46.4400 C.3   345  LYS345      0.0298
    164  CG        14.5580   65.9660   45.7590 C.3   345  LYS345      0.0038
    165  CD        14.2260   67.0990   46.7010 C.3   345  LYS345      0.0206
    166  CE        15.3520   67.3480   47.6730 C.3   345  LYS345      0.1093
    167  NZ        14.8720   67.6170   49.0580 N.3   345  LYS345     -0.1314
    168  N         10.2930   67.9920   43.4630 N.3   347  ALA347     -0.1245
    169  CA        10.4980   69.2790   42.8330 C.3   347  ALA347      0.1562
    170  C          9.2100   69.7000   42.1350 C.2   347  ALA347      0.2260
    171  O          8.3610   68.8630   41.8220 O.2   347  ALA347     -0.2867
    172  CB        11.6430   69.2080   41.8610 C.3   347  ALA347      0.0290
    173  N         10.9160   59.1370   39.3220 N.3   363  ILE363     -0.1245
    174  CA        12.2050   58.5030   39.0550 C.3   363  ILE363      0.1561
    175  C         12.6100   57.6990   40.2730 C.2   363  ILE363      0.2260
    176  O         12.9980   58.2710   41.2930 O.2   363  ILE363     -0.2867
    177  CB        13.3160   59.5220   38.7670 C.3   363  ILE363      0.0252
    178  CG1       12.8970   60.4970   37.6760 C.3   363  ILE363      0.0019
    179  CG2       14.6280   58.8120   38.3930 C.3   363  ILE363      0.0019
    180  CD1       13.8960   61.6510   37.5230 C.3   363  ILE363      0.0001
@<TRIPOS>BOND
     1     4     3    2
     2     3     2    1
     3     5     2    1
     4     5     6    1
     5    61    60    1
     6     8     6   ar
     7     8    10   ar
     8    19    17    1
     9     1     2    1
    10    29    28    2
    11     6     7   ar
    12    10    11   ar
    13    32    31    1
    14    28    27    1
    15    13    14    1
    16    30    31    1
    17    30    27    1
    18    15    14    1
    19    15    16    2
    20    60    62    1
    21    60    59    1
    22    17    14    1
    23    17    18    1
    24    31    33    1
    25    27    26    1
    26     7     9   ar
    27    11     9   ar
    28    11    12    1
    29    26    22   am
    30    59    56    1
    31    20    21    1
    32    22    23    2
    33    22    21    1
    34    56    55    1
    35    56    57    1
    36    55    49   am
    37    21    24    1
    38    51    48    1
    39    51    52    1
    40    48    49    1
    41    48    47    1
    42    45    44    2
    43    49    50    2
    44    57    58    2
    45    79    77    1
    46    24    25    1
    47   180   178    1
    48   126   124    1
    49   178   177    1
    50    44    47   am
    51    44    43    1
    52    52    54   ar
    53    52    53   ar
    54   124   125    1
    55   124   121    1
    56   179   177    1
    57   127   125    1
    58    46    43    1
    59   123   122    2
    60    77    76    1
    61    77    78    1
    62   177   174    1
    63    76    73    1
    64    43    42    1
    65   174   173    1
    66   174   175    1
    67   122   121    1
    68   121   120    1
    69    63    64    1
    70   120   117   am
    71    73    72    1
    72    73    74    1
    73   175   176    2
    74    72    65   am
    75    74    75    2
    76   113   112    2
    77   117   118    2
    78   117   116    1
    79    64    65    1
    80    64    67    1
    81    71    70    1
    82    65    66    2
    83    67    68    1
    84   114   111    1
    85   171   170    2
    86   172   169    1
    87   116   115    1
    88   116   119    1
    89    95    94    1
    90    93    92    1
    91    93    94    1
    92   112   115   am
    93   112   111    1
    94    70    69    1
    95   170   169    1
    96    92    89    1
    97    68    69    1
    98    36    37    2
    99    36    35    1
   100    38    35    1
   101    38    39    1
   102   111   110    1
   103   169   168    1
   104    34    35    1
   105    40    39    1
   106   110   105   am
   107    89    90    1
   108    89    88    1
   109    90    91    2
   110    39    41    1
   111    88    82   am
   112    80    81    1
   113   108   107    1
   114   105   104    1
   115   105   106    2
   116    99    98    2
   117   104   107    1
   118   104   103    1
   119   101   100    1
   120   162   161    2
   121    82    81    1
   122    82    83    2
   123    87    85   am
   124   107   109    1
   125    81    84    1
   126    84    85    1
   127    98   103   am
   128    98    97    1
   129   164   163    1
   130   164   165    1
   131   161   160    1
   132    85    86    2
   133   100    97    1
   134   100   102    1
   135   163   160    1
   136    97    96    1
   137   165   166    1
   138   160   159    1
   139   159   154   am
   140   166   167    1
   141   157   156    1
   142   147   146    2
   143   154   153    1
   144   154   155    2
   145   153   156    1
   146   153   152    1
   147   156   158    1
   148   146   152   am
   149   146   145    1
   150   135   133    1
   151   145   148    1
   152   145   144    1
   153   148   149    1
   154   151   149   am
   155   149   150    2
   156   139   138    2
   157   134   132    1
   158   144   138   am
   159   133   132    1
   160   138   137    1
   161   132   129    1
   162   137   140    1
   163   137   136    1
   164   131   130    2
   165   129   130    1
   166   129   128    1
   167   140   141    1
   168   141   143   am
   169   141   142    2
