@<TRIPOS>MOLECULE
tmp/5jvlB00.pdb
 130 120 0 0 0
SMALL
GASTEIGER

@<TRIPOS>ATOM
      1  N         33.5180  -34.8300  -95.9560 N.3   206  LEU206     -0.1245
      2  CA        32.1740  -34.8050  -96.4920 C.3   206  LEU206      0.1561
      3  C         31.1520  -34.9440  -95.3820 C.2   206  LEU206      0.2260
      4  O         31.0810  -35.9720  -94.7770 O.2   206  LEU206     -0.2867
      5  CB        31.9740  -35.9240  -97.5090 C.3   206  LEU206      0.0270
      6  CG        30.5530  -36.0830  -98.0320 C.3   206  LEU206      0.0019
      7  CD1       30.0850  -34.8290  -98.7570 C.3   206  LEU206      0.0001
      8  CD2       30.4390  -37.2620  -98.9600 C.3   206  LEU206      0.0001
      9  N         27.2820  -34.9290  -95.3930 N.3   208  ARG208     -0.1245
     10  CA        26.1150  -34.9820  -96.2960 C.3   208  ARG208      0.1563
     11  C         24.9320  -34.3910  -95.5690 C.2   208  ARG208      0.2260
     12  O         24.3730  -35.0210  -94.7220 O.2   208  ARG208     -0.2867
     13  CB        25.7990  -36.4080  -96.7630 C.3   208  ARG208      0.0307
     14  CG        26.8140  -37.0500  -97.6920 C.3   208  ARG208      0.0489
     15  CD        26.3940  -38.4940  -97.9600 C.3   208  ARG208      0.2205
     16  NE        27.1390  -39.1380  -99.0290 N.pl3 208  ARG208     -0.0865
     17  CZ        28.2050  -39.9130  -98.8910 C.cat 208  ARG208      0.5346
     18  NH1       28.7500  -40.1270  -97.7360 N.pl3 208  ARG208      0.1354
     19  NH2       28.7570  -40.4780  -99.9440 N.pl3 208  ARG208      0.1354
     20  N         21.9840  -33.8750  -96.4150 N.3   210  GLU210     -0.1231
     21  CA        20.7140  -34.5890  -96.6480 C.3   210  GLU210      0.1699
     22  C         20.5090  -35.7240  -95.6590 C.2   210  GLU210      0.2592
     23  O         19.3880  -36.1240  -95.3990 O.2   210  GLU210     -0.2718
     24  CB        20.6040  -35.0920  -98.0730 C.3   210  GLU210      0.0402
     25  CG        21.7210  -36.0120  -98.4910 C.3   210  GLU210      0.1161
     26  CD        22.8880  -35.3120  -99.1100 C.2   210  GLU210      0.3649
     27  OE1       23.0190  -34.0450  -99.0270 O.co2 210  GLU210     -0.2457
     28  OE2       23.7540  -36.0270  -99.6530 O.co2 210  GLU210     -0.2457
     29  N         21.5800  -36.1620  -95.0200 N.am  211  HIS211     -0.1976
     30  CA        21.4890  -37.2390  -94.0200 C.3   211  HIS211      0.1656
     31  C         21.4530  -36.6790  -92.6130 C.2   211  HIS211      0.2291
     32  O         21.7910  -37.3840  -91.6790 O.2   211  HIS211     -0.2864
     33  CB        22.6710  -38.2440  -94.1860 C.3   211  HIS211      0.0771
     34  CG        22.6350  -39.0480  -95.4810 C.ar  211  HIS211      0.0820
     35  ND1       23.7590  -39.6510  -96.0180 N.ar  211  HIS211     -0.2267
     36  CD2       21.6260  -39.3070  -96.3660 C.ar  211  HIS211      0.1154
     37  CE1       23.4380  -40.2610  -97.1670 C.ar  211  HIS211      0.1986
     38  NE2       22.1450  -40.0810  -97.3940 N.ar  211  HIS211     -0.2212
     39  N         28.6990  -30.0990  -97.2200 N.3   265  ARG265     -0.1245
     40  CA        28.1830  -30.0320  -98.5760 C.3   265  ARG265      0.1563
     41  C         26.7330  -29.6270  -98.5770 C.2   265  ARG265      0.2260
     42  O         25.9490  -30.1150  -97.7650 O.2   265  ARG265     -0.2867
     43  CB        28.3290  -31.4010  -99.2430 C.3   265  ARG265      0.0307
     44  CG        28.0330  -31.3860 -100.7300 C.3   265  ARG265      0.0489
     45  CD        28.3040  -32.7090 -101.3440 C.3   265  ARG265      0.2205
     46  NE        27.3490  -33.7300 -100.9300 N.pl3 265  ARG265     -0.0865
     47  CZ        27.3650  -34.9990 -101.3960 C.cat 265  ARG265      0.5346
     48  NH1       28.2700  -35.3970 -102.2720 N.pl3 265  ARG265      0.1354
     49  NH2       26.4570  -35.9040 -101.0050 N.pl3 265  ARG265      0.1354
     50  N         21.8310  -32.4180 -101.2630 N.3   268  ASP268     -0.1239
     51  CA        21.6940  -33.2800 -102.4450 C.3   268  ASP268      0.1674
     52  C         20.7170  -34.4010 -102.1290 C.2   268  ASP268      0.2266
     53  O         21.1110  -35.5300 -101.8770 O.2   268  ASP268     -0.2867
     54  CB        23.0480  -33.8430 -102.8340 C.3   268  ASP268      0.1410
     55  CG        22.9780  -34.7420 -104.0550 C.2   268  ASP268      0.3668
     56  OD1       21.9860  -34.6780 -104.8050 O.co2 268  ASP268     -0.2456
     57  OD2       23.9620  -35.5330 -104.2540 O.co2 268  ASP268     -0.2456
     58  N         18.5060  -40.4050 -110.1960 N.3   311  MET311     -0.1245
     59  CA        19.9470  -40.1890 -110.0500 C.3   311  MET311      0.1570
     60  C         20.4760  -39.0980 -110.9660 C.2   311  MET311      0.2261
     61  O         21.5500  -38.5450 -110.7020 O.2   311  MET311     -0.2867
     62  CB        20.7610  -41.4550 -110.2940 C.3   311  MET311      0.0387
     63  CG        20.9800  -42.2750 -109.0160 C.3   311  MET311      0.0595
     64  SD        22.1710  -41.4680 -107.8640 S.3   311  MET311     -0.1393
     65  CE        22.0850  -42.5980 -106.4530 C.3   311  MET311      0.0692
     66  N         18.1870  -32.7810 -108.4650 N.3   315  ARG315     -0.1245
     67  CA        18.9210  -32.9760 -107.2570 C.3   315  ARG315      0.1563
     68  C         20.2400  -32.2300 -107.2890 C.2   315  ARG315      0.2260
     69  O         20.5550  -31.5760 -108.2850 O.2   315  ARG315     -0.2867
     70  CB        19.1270  -34.4410 -107.0440 C.3   315  ARG315      0.0307
     71  CG        19.9820  -35.1870 -108.0760 C.3   315  ARG315      0.0489
     72  CD        21.1390  -35.8640 -107.3410 C.3   315  ARG315      0.2205
     73  NE        21.7250  -36.9680 -108.0150 N.pl3 315  ARG315     -0.0865
     74  CZ        22.8660  -37.5520 -107.6660 C.cat 315  ARG315      0.5346
     75  NH1       23.5510  -37.1550 -106.6330 N.pl3 315  ARG315      0.1354
     76  NH2       23.3260  -38.5410 -108.4320 N.pl3 315  ARG315      0.1354
     77  N         32.2100  -30.5520 -105.4960 N.3   392  MET392     -0.1245
     78  CA        32.3340  -31.9400 -105.8890 C.3   392  MET392      0.1570
     79  C         32.7340  -32.0350 -107.3670 C.2   392  MET392      0.2261
     80  O         32.2550  -31.2560 -108.2270 O.2   392  MET392     -0.2867
     81  CB        31.0120  -32.6870 -105.7020 C.3   392  MET392      0.0387
     82  CG        30.5240  -32.8410 -104.2450 C.3   392  MET392      0.0595
     83  SD        31.4740  -34.0480 -103.3760 S.3   392  MET392     -0.1393
     84  CE        31.0640  -35.5390 -104.3130 C.3   392  MET392      0.0692
     85  N         32.0180  -34.8410 -109.4740 N.3   394  GLU394     -0.1245
     86  CA        31.3470  -36.1320 -109.6280 C.3   394  GLU394      0.1567
     87  C         30.5280  -36.2300 -110.9300 C.2   394  GLU394      0.2260
     88  O         29.7490  -37.1550 -111.0770 O.2   394  GLU394     -0.2867
     89  CB        30.4600  -36.3860 -108.4300 C.3   394  GLU394      0.0388
     90  CG        29.4140  -35.3430 -108.1530 C.3   394  GLU394      0.1160
     91  CD        28.6650  -35.5880 -106.8570 C.2   394  GLU394      0.3649
     92  OE1       28.7170  -36.7170 -106.3320 O.co2 394  GLU394     -0.2457
     93  OE2       27.9790  -34.6280 -106.4120 O.co2 394  GLU394     -0.2457
     94  N         33.7340  -37.2300 -106.2340 N.3   415  GLY415     -0.1210
     95  CA        32.6460  -38.1530 -105.8390 C.3   415  GLY415      0.1956
     96  C         32.6380  -39.3200 -106.7890 C.2   415  GLY415      0.2613
     97  O         31.8660  -39.3250 -107.7210 O.2   415  GLY415     -0.2717
     98  N         33.4730  -40.3030 -106.5220 N.am  416  THR416     -0.1938
     99  CA        33.6420  -41.4380 -107.4100 C.3   416  THR416      0.2028
    100  C         32.4310  -42.3710 -107.4910 C.2   416  THR416      0.2642
    101  O         32.3730  -43.2020 -108.3760 O.2   416  THR416     -0.2714
    102  CB        34.8830  -42.2210 -107.0450 C.3   416  THR416      0.1808
    103  OG1       34.8620  -42.4460 -105.6750 O.3   416  THR416     -0.2208
    104  CG2       36.1110  -41.4200 -107.4060 C.3   416  THR416      0.0379
    105  N         31.4620  -42.2240 -106.6000 N.am  417  ASN417     -0.1957
    106  CA        30.2160  -42.9590 -106.7280 C.3   417  ASN417      0.1819
    107  C         29.4420  -42.4970 -107.9360 C.2   417  ASN417      0.2621
    108  O         29.1470  -43.2880 -108.8460 O.2   417  ASN417     -0.2715
    109  CB        29.3530  -42.8120 -105.4520 C.3   417  ASN417      0.1195
    110  CG        30.1130  -43.1590 -104.1780 C.2   417  ASN417      0.2630
    111  OD1       31.0450  -43.9290 -104.1670 O.2   417  ASN417     -0.2716
    112  ND2       29.6540  -42.6100 -103.0910 N.am  417  ASN417     -0.0877
    113  N         29.0650  -41.2250 -107.9440 N.am  418  ASP418     -0.1971
    114  CA        28.3560  -40.6660 -109.0740 C.3   418  ASP418      0.1709
    115  C         29.2430  -40.6640 -110.3290 C.2   418  ASP418      0.2293
    116  O         28.7660  -40.9420 -111.4270 O.2   418  ASP418     -0.2864
    117  CB        27.8890  -39.2250 -108.7790 C.3   418  ASP418      0.1436
    118  CG        26.5550  -39.1540 -108.1050 C.2   418  ASP418      0.3671
    119  OD1       25.6290  -39.8250 -108.6120 O.co2 418  ASP418     -0.2456
    120  OD2       26.4170  -38.4390 -107.0690 O.co2 418  ASP418     -0.2456
    121  N         35.8320  -38.2880 -101.7130 N.3   480  CYS480     -0.1221
    122  CA        34.9200  -38.7480 -100.6610 C.3   480  CYS480      0.1808
    123  C         33.9850  -39.8390 -101.1000 C.2   480  CYS480      0.2601
    124  O         33.1190  -40.2290 -100.3670 O.2   480  CYS480     -0.2717
    125  CB        34.1100  -37.5620 -100.1800 C.3   480  CYS480      0.0970
    126  SG        33.2880  -36.6550 -101.4870 S.3   480  CYS480     -0.0800
    127  N         34.1420  -40.3540 -102.3040 N.am  481  GLY481     -0.1957
    128  CA        33.4070  -41.5330 -102.7180 C.3   481  GLY481      0.1869
    129  C         33.8230  -42.7430 -101.9390 C.2   481  GLY481      0.2309
    130  O         34.8720  -42.7390 -101.2560 O.2   481  GLY481     -0.2863
@<TRIPOS>BOND
     1   116   115    2
     2    88    87    2
     3    60    61    2
     4    60    59    1
     5    87    86    1
     6   115   114    1
     7    62    59    1
     8    62    63    1
     9    58    59    1
    10    86    85    1
    11    86    89    1
    12   114   117    1
    13   114   113    1
    14    63    64    1
    15   108   107    2
    16   117   118    1
    17   119   118   ar
    18    66    67    1
    19    76    74    1
    20    89    90    1
    21   101   100    2
    22    69    68    2
    23    80    79    2
    24    90    91    1
    25   118   120   ar
    26    71    72    1
    27    71    70    1
    28    73    74    2
    29    73    72    1
    30   113   107   am
    31   107   106    1
    32    64    65    1
    33    97    96    2
    34    74    75    1
    35   100    99    1
    36   100   105   am
    37    99   102    1
    38    99    98    1
    39   104   102    1
    40    79    78    1
    41    68    67    1
    42    67    70    1
    43   102   103    1
    44    91    93   ar
    45    91    92   ar
    46    96    98   am
    47    96    95    1
    48   106   105    1
    49   106   109    1
    50    94    95    1
    51    78    81    1
    52    78    77    1
    53    81    82    1
    54   109   110    1
    55    56    55   ar
    56    84    83    1
    57    57    55   ar
    58    82    83    1
    59   110   111    2
    60   110   112   am
    61    55    54    1
    62    54    51    1
    63   128   127    1
    64   128   129    1
    65    51    52    1
    66    51    50    1
    67   127   123   am
    68    48    47    1
    69    52    53    2
    70   129   130    2
    71   121   122    1
    72   126   125    1
    73    47    49    1
    74    47    46    2
    75    45    46    1
    76    45    44    1
    77   123   122    1
    78   123   124    2
    79    44    43    1
    80   122   125    1
    81    19    17    1
    82    28    26   ar
    83    43    40    1
    84    26    27   ar
    85    26    25    1
    86    16    17    2
    87    16    15    1
    88     8     6    1
    89    17    18    1
    90     7     6    1
    91    41    40    1
    92    41    42    2
    93    40    39    1
    94    25    24    1
    95    24    21    1
    96     6     5    1
    97    15    14    1
    98    14    13    1
    99     5     2    1
   100    38    37   ar
   101    38    36   ar
   102    37    35   ar
   103    13    10    1
   104    21    20    1
   105    21    22    1
   106     2     1    1
   107     2     3    1
   108    36    34   ar
   109    10    11    1
   110    10     9    1
   111    35    34   ar
   112    22    23    2
   113    22    29   am
   114    11    12    2
   115    34    33    1
   116     3     4    2
   117    29    30    1
   118    33    30    1
   119    30    31    1
   120    31    32    2
