@<TRIPOS>MOLECULE
tmp/5jvlD00.pdb
 176 163 0 0 0
SMALL
GASTEIGER

@<TRIPOS>ATOM
      1  N         25.0320  -66.6430  -17.7320 N.3    25  LYS25      -0.1245
      2  CA        24.7270  -67.8930  -17.1590 C.3    25  LYS25       0.1561
      3  C         25.9690  -68.7630  -17.0580 C.2    25  LYS25       0.2260
      4  O         26.3290  -69.2370  -15.9610 O.2    25  LYS25      -0.2867
      5  CB        23.6510  -68.5640  -17.9430 C.3    25  LYS25       0.0271
      6  CG        23.1240  -69.8290  -17.3330 C.3    25  LYS25       0.0035
      7  CD        21.9730  -70.4070  -18.1320 C.3    25  LYS25       0.0206
      8  CE        20.7550  -69.4920  -18.1200 C.3    25  LYS25       0.1093
      9  NZ        19.6690  -70.0890  -18.9210 N.3    25  LYS25      -0.1314
     10  N         21.0590  -81.2040  -19.3960 N.3    93  SER93      -0.1217
     11  CA        20.2300  -80.0910  -19.7920 C.3    93  SER93       0.1889
     12  C         21.0220  -79.2160  -20.7810 C.2    93  SER93       0.2288
     13  O         22.2250  -79.1380  -20.7050 O.2    93  SER93      -0.2866
     14  CB        19.7570  -79.2720  -18.5820 C.3    93  SER93       0.2089
     15  OG        20.8040  -78.5210  -18.0010 O.3    93  SER93      -0.2183
     16  N         21.0410  -75.2420  -22.0130 N.3    95  ARG95      -0.1231
     17  CA        20.5500  -73.9340  -21.5650 C.3    95  ARG95       0.1694
     18  C         21.2060  -72.8310  -22.3680 C.2    95  ARG95       0.2593
     19  O         22.4210  -72.7480  -22.4610 O.2    95  ARG95      -0.2718
     20  CB        20.8550  -73.6940  -20.0880 C.3    95  ARG95       0.0321
     21  CG        20.4860  -74.8540  -19.1610 C.3    95  ARG95       0.0489
     22  CD        21.1520  -74.6990  -17.8000 C.3    95  ARG95       0.2205
     23  NE        20.5210  -73.6570  -17.0070 N.pl3  95  ARG95      -0.0865
     24  CZ        20.8560  -73.4140  -15.7430 C.cat  95  ARG95       0.5346
     25  NH1       21.8080  -74.1120  -15.1770 N.pl3  95  ARG95       0.1354
     26  NH2       20.2410  -72.4680  -15.0540 N.pl3  95  ARG95       0.1354
     27  N         20.3890  -71.9820  -22.9760 N.am   96  SER96      -0.1938
     28  CA        20.8850  -70.8240  -23.6810 C.3    96  SER96       0.2055
     29  C         21.3540  -69.7760  -22.6850 C.2    96  SER96       0.2643
     30  O         21.0540  -69.8240  -21.5000 O.2    96  SER96      -0.2714
     31  CB        19.7800  -70.2060  -24.5050 C.3    96  SER96       0.2130
     32  OG        19.1080  -71.1450  -25.2640 O.3    96  SER96      -0.2179
     33  N         22.1140  -68.8080  -23.1770 N.am   97  GLY97      -0.1954
     34  CA        22.6090  -67.7300  -22.3160 C.3    97  GLY97       0.1869
     35  C         23.5360  -66.8010  -23.0440 C.2    97  GLY97       0.2309
     36  O         24.6640  -67.1840  -23.3790 O.2    97  GLY97      -0.2863
     37  N         14.2290  -72.1270  -25.2760 N.3   107  ASP107     -0.1225
     38  CA        14.0070  -72.5460  -23.9260 C.3   107  ASP107      0.1805
     39  C         14.9300  -73.6970  -23.5140 C.2   107  ASP107      0.2598
     40  O         15.3760  -74.4660  -24.3520 O.2   107  ASP107     -0.2718
     41  CB        12.5460  -72.9260  -23.7280 C.3   107  ASP107      0.1424
     42  CG        11.6310  -71.7240  -23.7920 C.2   107  ASP107      0.3668
     43  OD1       11.8920  -70.7180  -23.1280 O.co2 107  ASP107     -0.2456
     44  OD2       10.6610  -71.7830  -24.5330 O.co2 107  ASP107     -0.2456
     45  N         15.2210  -73.7890  -22.2160 N.am  108  THR108     -0.1953
     46  CA        16.0000  -74.8860  -21.7030 C.3   108  THR108      0.1897
     47  C         15.2680  -76.2110  -21.8460 C.2   108  THR108      0.2313
     48  O         14.0390  -76.3140  -21.6670 O.2   108  THR108     -0.2863
     49  CB        16.3410  -74.6320  -20.2420 C.3   108  THR108      0.1794
     50  OG1       17.2840  -73.5810  -20.2150 O.3   108  THR108     -0.2208
     51  CG2       16.9960  -75.8190  -19.5840 C.3   108  THR108      0.0378
     52  N         15.4280  -80.2340  -20.5050 N.3   110  LEU110     -0.1245
     53  CA        15.9560  -81.1310  -19.4510 C.3   110  LEU110      0.1561
     54  C         15.8890  -82.5890  -19.8430 C.2   110  LEU110      0.2260
     55  O         15.2200  -82.9560  -20.8000 O.2   110  LEU110     -0.2867
     56  CB        15.1800  -80.9230  -18.1660 C.3   110  LEU110      0.0270
     57  CG        15.0060  -79.4840  -17.7070 C.3   110  LEU110      0.0019
     58  CD1       14.0290  -79.4240  -16.5260 C.3   110  LEU110      0.0001
     59  CD2       16.3450  -78.8690  -17.3350 C.3   110  LEU110      0.0001
     60  N         24.7520  -79.2990  -19.1840 N.3   241  GLN241     -0.1231
     61  CA        24.9140  -79.4680  -17.7010 C.3   241  GLN241      0.1698
     62  C         24.2430  -80.7190  -17.1660 C.2   241  GLN241      0.2593
     63  O         23.1770  -81.1060  -17.6280 O.2   241  GLN241     -0.2718
     64  CB        24.3250  -78.2700  -16.9680 C.3   241  GLN241      0.0381
     65  CG        24.5150  -78.2830  -15.4720 C.3   241  GLN241      0.0905
     66  CD        24.1490  -76.9500  -14.8510 C.2   241  GLN241      0.2608
     67  OE1       23.3120  -76.2390  -15.3590 O.2   241  GLN241     -0.2717
     68  NE2       24.8480  -76.5920  -13.7900 N.am  241  GLN241     -0.0878
     69  N         24.9080  -81.3880  -16.2420 N.am  242  SER242     -0.1938
     70  CA        24.4020  -82.6280  -15.7150 C.3   242  SER242      0.2055
     71  C         23.1160  -82.3870  -14.9800 C.2   242  SER242      0.2643
     72  O         22.9580  -81.3990  -14.3200 O.2   242  SER242     -0.2714
     73  CB        25.4280  -83.2660  -14.7920 C.3   242  SER242      0.2130
     74  OG        24.8900  -84.4310  -14.1890 O.3   242  SER242     -0.2179
     75  N         22.2070  -83.3330  -15.0560 N.am  243  MET243     -0.1962
     76  CA        20.8970  -83.2090  -14.4370 C.3   243  MET243      0.1736
     77  C         20.8800  -83.5070  -12.9340 C.2   243  MET243      0.2616
     78  O         21.5840  -84.4020  -12.4610 O.2   243  MET243     -0.2715
     79  CB        19.8850  -84.1240  -15.1340 C.3   243  MET243      0.0427
     80  CG        19.4020  -83.6510  -16.4800 C.3   243  MET243      0.0599
     81  SD        18.4960  -82.1650  -16.3850 S.3   243  MET243     -0.1393
     82  CE        17.1700  -82.6260  -15.2810 C.3   243  MET243      0.0692
     83  N         20.0710  -82.7370  -12.2300 N.am  244  VAL244     -0.1977
     84  CA        19.6300  -83.0520  -10.8860 C.3   244  VAL244      0.1596
     85  C         18.1000  -83.0280  -10.8730 C.2   244  VAL244      0.2287
     86  O         17.4740  -82.3180  -11.6920 O.2   244  VAL244     -0.2864
     87  CB        20.2300  -82.1360   -9.8140 C.3   244  VAL244      0.0276
     88  CG1       21.7180  -82.3770   -9.6960 C.3   244  VAL244      0.0022
     89  CG2       19.9680  -80.6780  -10.1360 C.3   244  VAL244      0.0022
     90  N         12.2920  -77.5540   -6.3580 N.3   254  THR254     -0.1218
     91  CA        12.9770  -76.5100   -7.1460 C.3   254  THR254      0.1862
     92  C         12.4570  -75.1510   -6.7040 C.2   254  THR254      0.2287
     93  O         11.2920  -75.0080   -6.2870 O.2   254  THR254     -0.2866
     94  CB        12.7680  -76.7360   -8.6410 C.3   254  THR254      0.1770
     95  OG1       13.5620  -75.8000   -9.3870 O.3   254  THR254     -0.2211
     96  CG2       11.3270  -76.5580   -9.0230 C.3   254  THR254      0.0375
     97  N         10.2050  -80.0800  -11.4530 N.3   278  GLN278     -0.1231
     98  CA        11.3920  -79.6360  -12.1910 C.3   278  GLN278      0.1698
     99  C         11.3170  -78.1450  -12.4820 C.2   278  GLN278      0.2593
    100  O         10.2550  -77.5350  -12.3800 O.2   278  GLN278     -0.2718
    101  CB        11.5300  -80.3960  -13.4820 C.3   278  GLN278      0.0381
    102  CG        12.1710  -81.7460  -13.2940 C.3   278  GLN278      0.0905
    103  CD        12.2020  -82.6250  -14.6100 C.2   278  GLN278      0.2608
    104  OE1       13.0380  -83.5840  -14.7350 O.2   278  GLN278     -0.2717
    105  NE2       11.3400  -82.2580  -15.6380 N.am  278  GLN278     -0.0878
    106  N         12.4650  -77.5720  -12.7840 N.am  279  GLY279     -0.1942
    107  CA        12.5330  -76.1650  -13.1830 C.3   279  GLY279      0.2014
    108  C         11.6210  -75.7560  -14.3460 C.2   279  GLY279      0.2638
    109  O         11.0360  -74.6390  -14.3060 O.2   279  GLY279     -0.2714
    110  N         11.4690  -76.6410  -15.3570 N.am  280  GLU280     -0.1977
    111  CA        10.3720  -76.5020  -16.3530 C.3   280  GLU280      0.1602
    112  C          9.0150  -76.0590  -15.7400 C.2   280  GLU280      0.2287
    113  O          8.3690  -75.1600  -16.3010 O.2   280  GLU280     -0.2864
    114  CB        10.1760  -77.7750  -17.1240 C.3   280  GLU280      0.0415
    115  CG        11.2370  -77.8770  -18.1910 C.3   280  GLU280      0.1163
    116  CD        11.2740  -79.2100  -18.9280 C.2   280  GLU280      0.3649
    117  OE1       10.5310  -80.1370  -18.4250 O.co2 280  GLU280     -0.2457
    118  OE2       12.0450  -79.3190  -19.9830 O.co2 280  GLU280     -0.2457
    119  N          8.4900  -74.3650  -13.1780 N.3   282  VAL282     -0.1231
    120  CA         8.5710  -73.0090  -12.6550 C.3   282  VAL282      0.1692
    121  C          8.3090  -72.0190  -13.7850 C.2   282  VAL282      0.2591
    122  O          7.6230  -70.9730  -13.5500 O.2   282  VAL282     -0.2718
    123  CB         9.9570  -72.6790  -12.0300 C.3   282  VAL282      0.0266
    124  CG1        9.9290  -71.3080  -11.3400 C.3   282  VAL282      0.0020
    125  CG2       10.3670  -73.7350  -11.0180 C.3   282  VAL282      0.0020
    126  N          8.8680  -72.3340  -14.9810 N.am  283  VAL283     -0.1980
    127  CA         8.7140  -71.5510  -16.2530 C.3   283  VAL283      0.1595
    128  C          7.2130  -71.5350  -16.6010 C.2   283  VAL283      0.2287
    129  O          6.5980  -70.4490  -16.7490 O.2   283  VAL283     -0.2864
    130  CB         9.5100  -72.2440  -17.4230 C.3   283  VAL283      0.0276
    131  CG1        9.0860  -71.7370  -18.8140 C.3   283  VAL283      0.0022
    132  CG2       11.0340  -72.1320  -17.2340 C.3   283  VAL283      0.0022
    133  N         18.6420  -69.5880   -8.6960 N.3   324  GLU324     -0.1245
    134  CA        17.7910  -70.7360   -8.8990 C.3   324  GLU324      0.1567
    135  C         18.4680  -71.9220   -8.2840 C.2   324  GLU324      0.2260
    136  O         19.6660  -72.0970   -8.3710 O.2   324  GLU324     -0.2867
    137  CB        17.5530  -70.9950  -10.3520 C.3   324  GLU324      0.0388
    138  CG        16.8310  -69.9260  -11.0990 C.3   324  GLU324      0.1160
    139  CD        16.1250  -70.4960  -12.3530 C.2   324  GLU324      0.3649
    140  OE1       16.7080  -70.4220  -13.5360 O.co2 324  GLU324     -0.2457
    141  OE2       14.9850  -71.0380  -12.1820 O.co2 324  GLU324     -0.2457
    142  N         17.8510  -76.2890   -6.9240 N.3   326  THR326     -0.1218
    143  CA        17.0800  -77.5380   -6.9480 C.3   326  THR326      0.1862
    144  C         17.5180  -78.3760   -5.7850 C.2   326  THR326      0.2287
    145  O         18.7040  -78.4540   -5.4760 O.2   326  THR326     -0.2866
    146  CB        17.2690  -78.2780   -8.2720 C.3   326  THR326      0.1770
    147  OG1       16.6570  -77.5250   -9.3290 O.3   326  THR326     -0.2211
    148  CG2       16.5860  -79.6200   -8.2750 C.3   326  THR326      0.0375
    149  N         21.8410  -73.8120   -9.3250 N.3   335  LEU335     -0.1231
    150  CA        21.7540  -73.9270  -10.7710 C.3   335  LEU335      0.1693
    151  C         21.8340  -72.6130  -11.5450 C.2   335  LEU335      0.2591
    152  O         21.9890  -72.6400  -12.7820 O.2   335  LEU335     -0.2718
    153  CB        20.4990  -74.6790  -11.1750 C.3   335  LEU335      0.0284
    154  CG        20.7410  -76.1540  -10.9800 C.3   335  LEU335      0.0019
    155  CD1       20.0060  -76.6600   -9.7340 C.3   335  LEU335      0.0001
    156  CD2       20.2840  -76.8960  -12.2190 C.3   335  LEU335      0.0001
    157  N         21.7690  -71.4750  -10.8600 N.am  336  GLN336     -0.1979
    158  CA        21.9180  -70.1910  -11.4970 C.3   336  GLN336      0.1601
    159  C         22.0330  -69.1320  -10.4560 C.2   336  GLN336      0.2287
    160  O         21.4180  -69.2160   -9.4060 O.2   336  GLN336     -0.2864
    161  CB        20.7400  -69.8930  -12.4250 C.3   336  GLN336      0.0394
    162  CG        20.9800  -68.7550  -13.3380 C.3   336  GLN336      0.0908
    163  CD        19.8760  -68.6240  -14.3940 C.2   336  GLN336      0.2608
    164  OE1       18.9930  -69.5000  -14.6080 O.2   336  GLN336     -0.2717
    165  NE2       19.9220  -67.4950  -15.0830 N.am  336  GLN336     -0.0878
    166  N         22.6560  -64.5830  -10.5440 N.3   338  ARG338     -0.1245
    167  CA        22.9680  -63.3500  -11.2680 C.3   338  ARG338      0.1563
    168  C         22.5060  -62.1740  -10.4450 C.2   338  ARG338      0.2260
    169  O         21.7510  -62.3140   -9.5030 O.2   338  ARG338     -0.2867
    170  CB        22.2670  -63.3270  -12.6100 C.3   338  ARG338      0.0307
    171  CG        20.7630  -63.2840  -12.5080 C.3   338  ARG338      0.0489
    172  CD        20.1160  -63.5910  -13.8380 C.3   338  ARG338      0.2205
    173  NE        18.6930  -63.7320  -13.6760 N.pl3 338  ARG338     -0.0865
    174  CZ        17.8670  -64.2360  -14.5850 C.cat 338  ARG338      0.5346
    175  NH1       18.2920  -64.6940  -15.7500 N.pl3 338  ARG338      0.1354
    176  NH2       16.5840  -64.2990  -14.3390 N.pl3 338  ARG338      0.1354
@<TRIPOS>BOND
     1    37    38    1
     2    32    31    1
     3    44    42   ar
     4    31    28    1
     5    40    39    2
     6    38    41    1
     7    38    39    1
     8    42    41    1
     9    42    43   ar
    10    28    27    1
    11    28    29    1
    12    39    45   am
    13    36    35    2
    14    33    29   am
    15    33    34    1
    16    35    34    1
    17    27    18   am
    18    29    30    2
    19    19    18    2
    20    18    17    1
    21    45    46    1
    22    16    17    1
    23    47    46    1
    24    47    48    2
    25    46    49    1
    26    17    20    1
    27    55    54    2
    28    12    13    2
    29    12    11    1
    30    52    53    1
    31    49    50    1
    32    49    51    1
    33    20    21    1
    34   118   116   ar
    35    54    53    1
    36    11    10    1
    37    11    14    1
    38    53    56    1
    39    60    61    1
    40    21    22    1
    41   116   117   ar
    42   116   115    1
    43     9     8    1
    44   131   130    1
    45    14    15    1
    46   115   114    1
    47    56    57    1
    48     7     8    1
    49     7     6    1
    50     5     6    1
    51     5     2    1
    52    22    23    1
    53     1     2    1
    54    57    59    1
    55    57    58    1
    56    61    62    1
    57    61    64    1
    58    63    62    2
    59   130   132    1
    60   130   127    1
    61    62    69   am
    62     2     3    1
    63   114   111    1
    64     3     4    2
    65    23    24    2
    66    64    65    1
    67   129   128    2
    68   128   127    1
    69    80    81    1
    70    80    79    1
    71    81    82    1
    72   111   112    1
    73   111   110    1
    74   113   112    2
    75   127   126    1
    76    69    70    1
    77   175   174    1
    78    24    25    1
    79    24    26    1
    80    70    71    1
    81    70    73    1
    82   105   103   am
    83    65    66    1
    84    67    66    2
    85   110   108   am
    86    79    76    1
    87   165   163   am
    88    75    71   am
    89    75    76    1
    90   126   121   am
    91    71    72    2
    92    66    68   am
    93    73    74    1
    94   104   103    2
    95   103   102    1
    96   164   163    2
    97   174   176    1
    98   174   173    2
    99    76    77    1
   100   163   162    1
   101   108   109    2
   102   108   107    1
   103   172   173    1
   104   172   171    1
   105   121   122    2
   106   121   120    1
   107   140   139   ar
   108   101   102    1
   109   101    98    1
   110   162   161    1
   111   107   106    1
   112   119   120    1
   113    77    78    2
   114    77    83   am
   115   106    99   am
   116   152   151    2
   117   120   123    1
   118   170   171    1
   119   170   167    1
   120    99   100    2
   121    99    98    1
   122   161   158    1
   123   139   141   ar
   124   139   138    1
   125    83    84    1
   126   156   154    1
   127    98    97    1
   128   123   124    1
   129   123   125    1
   130    86    85    2
   131   151   157   am
   132   151   150    1
   133   158   157    1
   134   158   159    1
   135   167   166    1
   136   167   168    1
   137   153   154    1
   138   153   150    1
   139   138   137    1
   140   154   155    1
   141    84    85    1
   142    84    87    1
   143   150   149    1
   144   159   160    2
   145   168   169    2
   146   137   134    1
   147    89    87    1
   148    87    88    1
   149    95    94    1
   150   147   146    1
   151    96    94    1
   152   134   133    1
   153   134   135    1
   154    94    91    1
   155   136   135    2
   156   148   146    1
   157   146   143    1
   158    91    92    1
   159    91    90    1
   160   143   142    1
   161   143   144    1
   162    92    93    2
   163   144   145    2
