@<TRIPOS>MOLECULE
tmp/5jvlD01.pdb
 140 128 0 0 0
SMALL
GASTEIGER

@<TRIPOS>ATOM
      1  N         15.0550  -26.7780  -31.3110 N.3   456  HIS456     -0.1241
      2  CA        14.9430  -25.9400  -30.1130 C.3   456  HIS456      0.1621
      3  C         13.5920  -26.0820  -29.3780 C.2   456  HIS456      0.2264
      4  O         13.5430  -26.0540  -28.1650 O.2   456  HIS456     -0.2867
      5  CB        15.3130  -24.4910  -30.4590 C.3   456  HIS456      0.0745
      6  CG        16.7950  -24.2750  -30.5920 C.ar  456  HIS456      0.0817
      7  ND1       17.4310  -24.1550  -31.8200 N.ar  456  HIS456     -0.2268
      8  CD2       17.7620  -24.1290  -29.6440 C.ar  456  HIS456      0.1154
      9  CE1       18.7280  -23.9440  -31.6180 C.ar  456  HIS456      0.1986
     10  NE2       18.9520  -23.9410  -30.3070 N.ar  456  HIS456     -0.2212
     11  N         14.0380  -28.9850  -27.2910 N.3   459  VAL459     -0.1245
     12  CA        14.9580  -28.6030  -26.2120 C.3   459  VAL459      0.1561
     13  C         14.2290  -27.8760  -25.0650 C.2   459  VAL459      0.2260
     14  O         14.3890  -28.1930  -23.8770 O.2   459  VAL459     -0.2867
     15  CB        16.1240  -27.7570  -26.7720 C.3   459  VAL459      0.0252
     16  CG1       16.9590  -27.1370  -25.6630 C.3   459  VAL459      0.0019
     17  CG2       16.9900  -28.6190  -27.6710 C.3   459  VAL459      0.0019
     18  N         24.5910  -22.3820  -19.3730 N.3   560  LEU560     -0.1245
     19  CA        24.0670  -21.8270  -20.5500 C.3   560  LEU560      0.1561
     20  C         22.7100  -21.2000  -20.2720 C.2   560  LEU560      0.2260
     21  O         21.7560  -21.9050  -20.0270 O.2   560  LEU560     -0.2867
     22  CB        23.9330  -22.8820  -21.6350 C.3   560  LEU560      0.0270
     23  CG        23.2440  -22.4560  -22.9380 C.3   560  LEU560      0.0019
     24  CD1       23.9950  -21.3380  -23.6090 C.3   560  LEU560      0.0001
     25  CD2       23.0900  -23.6250  -23.9010 C.3   560  LEU560      0.0001
     26  N         20.2960  -19.2820  -22.6300 N.3   562  ARG562     -0.1245
     27  CA        20.0430  -18.9310  -24.0310 C.3   562  ARG562      0.1563
     28  C         19.1940  -17.6850  -24.0480 C.2   562  ARG562      0.2260
     29  O         17.9990  -17.7540  -23.7860 O.2   562  ARG562     -0.2867
     30  CB        19.3070  -20.0710  -24.7830 C.3   562  ARG562      0.0307
     31  CG        20.1080  -21.3220  -24.9910 C.3   562  ARG562      0.0489
     32  CD        19.2070  -22.3820  -25.6060 C.3   562  ARG562      0.2205
     33  NE        19.9350  -23.5520  -26.1240 N.pl3 562  ARG562     -0.0865
     34  CZ        20.1540  -24.6940  -25.4990 C.cat 562  ARG562      0.5346
     35  NH1       19.7450  -24.8990  -24.2860 N.pl3 562  ARG562      0.1354
     36  NH2       20.8330  -25.6490  -26.1010 N.pl3 562  ARG562      0.1354
     37  N         18.0450  -15.9740  -26.4900 N.3   564  GLU564     -0.1245
     38  CA        16.9890  -16.0120  -27.4500 C.3   564  GLU564      0.1567
     39  C         15.7020  -16.5640  -26.9270 C.2   564  GLU564      0.2260
     40  O         14.6360  -16.3200  -27.4580 O.2   564  GLU564     -0.2867
     41  CB        17.4220  -16.7730  -28.7030 C.3   564  GLU564      0.0388
     42  CG        17.8730  -18.1970  -28.4630 C.3   564  GLU564      0.1160
     43  CD        19.3480  -18.3240  -28.1310 C.2   564  GLU564      0.3649
     44  OE1       20.0660  -17.2940  -27.9190 O.co2 564  GLU564     -0.2457
     45  OE2       19.8180  -19.4440  -28.1970 O.co2 564  GLU564     -0.2457
     46  N         24.7240  -16.4540  -22.5690 N.3   619  ARG619     -0.1245
     47  CA        25.1700  -16.4690  -23.9680 C.3   619  ARG619      0.1563
     48  C         24.4790  -15.4120  -24.7790 C.2   619  ARG619      0.2260
     49  O         23.3040  -15.1770  -24.6570 O.2   619  ARG619     -0.2867
     50  CB        24.9080  -17.8270  -24.5900 C.3   619  ARG619      0.0307
     51  CG        25.5810  -18.0170  -25.9320 C.3   619  ARG619      0.0489
     52  CD        25.3950  -19.4130  -26.4780 C.3   619  ARG619      0.2205
     53  NE        24.0340  -19.6670  -26.9130 N.pl3 619  ARG619     -0.0865
     54  CZ        23.6160  -20.8500  -27.4120 C.cat 619  ARG619      0.5346
     55  NH1       24.4710  -21.8580  -27.5400 N.pl3 619  ARG619      0.1354
     56  NH2       22.3470  -21.0340  -27.7680 N.pl3 619  ARG619      0.1354
     57  N         21.4610  -15.8630  -30.1810 N.3   622  ASP622     -0.1239
     58  CA        21.5930  -16.8060  -31.3250 C.3   622  ASP622      0.1674
     59  C         20.1880  -17.1870  -31.8320 C.2   622  ASP622      0.2266
     60  O         19.6630  -18.2380  -31.5200 O.2   622  ASP622     -0.2867
     61  CB        22.3860  -18.0590  -30.9080 C.3   622  ASP622      0.1410
     62  CG        22.5400  -19.0550  -32.0200 C.2   622  ASP622      0.3668
     63  OD1       22.3540  -18.6550  -33.1910 O.co2 622  ASP622     -0.2456
     64  OD2       22.8360  -20.2130  -31.6840 O.co2 622  ASP622     -0.2456
     65  N         23.0550  -16.0350  -38.0820 N.3   669  ARG669     -0.1245
     66  CA        22.7380  -16.2660  -36.7110 C.3   669  ARG669      0.1563
     67  C         24.0090  -16.3470  -35.8980 C.2   669  ARG669      0.2260
     68  O         25.0970  -16.1870  -36.4100 O.2   669  ARG669     -0.2867
     69  CB        21.9180  -17.5300  -36.5730 C.3   669  ARG669      0.0307
     70  CG        22.6110  -18.8340  -36.9960 C.3   669  ARG669      0.0489
     71  CD        22.5620  -19.8110  -35.8400 C.3   669  ARG669      0.2205
     72  NE        22.7220  -21.1910  -36.2320 N.pl3 669  ARG669     -0.0865
     73  CZ        22.9700  -22.1910  -35.3850 C.cat 669  ARG669      0.5346
     74  NH1       23.0540  -21.9590  -34.0830 N.pl3 669  ARG669      0.1354
     75  NH2       23.1270  -23.4190  -35.8350 N.pl3 669  ARG669      0.1354
     76  N         31.4990  -20.4980  -27.2320 N.3   746  MET746     -0.1245
     77  CA        31.0280  -21.7950  -27.6300 C.3   746  MET746      0.1570
     78  C         32.0600  -22.4030  -28.5510 C.2   746  MET746      0.2261
     79  O         32.6040  -21.6990  -29.4370 O.2   746  MET746     -0.2867
     80  CB        29.6810  -21.6990  -28.3340 C.3   746  MET746      0.0387
     81  CG        28.5160  -21.2580  -27.4480 C.3   746  MET746      0.0595
     82  SD        27.9250  -22.5360  -26.3600 S.3   746  MET746     -0.1393
     83  CE        27.3670  -23.7880  -27.5330 C.3   746  MET746      0.0692
     84  N         31.3390  -24.8940  -31.0380 N.3   748  GLU748     -0.1245
     85  CA        30.2980  -25.6740  -31.6840 C.3   748  GLU748      0.1567
     86  C         30.4140  -25.7110  -33.2070 C.2   748  GLU748      0.2260
     87  O         29.4820  -26.0800  -33.9110 O.2   748  GLU748     -0.2867
     88  CB        28.9310  -25.1510  -31.2680 C.3   748  GLU748      0.0388
     89  CG        28.6600  -23.6690  -31.5710 C.3   748  GLU748      0.1160
     90  CD        27.3140  -23.1920  -31.0580 C.2   748  GLU748      0.3649
     91  OE1       26.4280  -24.0430  -30.7090 O.co2 748  GLU748     -0.2457
     92  OE2       27.1230  -21.9800  -30.9490 O.co2 748  GLU748     -0.2457
     93  N         29.2790  -26.8900  -27.7340 N.3   769  GLY769     -0.1210
     94  CA        27.8680  -27.0190  -28.1760 C.3   769  GLY769      0.1956
     95  C         27.7720  -28.2360  -29.0670 C.2   769  GLY769      0.2613
     96  O         27.8300  -28.0990  -30.2710 O.2   769  GLY769     -0.2717
     97  N         27.6190  -29.4300  -28.4870 N.am  770  THR770     -0.1938
     98  CA        27.6370  -30.6340  -29.2550 C.3   770  THR770      0.2028
     99  C         26.4040  -30.8730  -30.1180 C.2   770  THR770      0.2642
    100  O         26.4200  -31.7690  -30.9490 O.2   770  THR770     -0.2714
    101  CB        27.8170  -31.8190  -28.3430 C.3   770  THR770      0.1808
    102  OG1       26.9150  -31.7320  -27.2560 O.3   770  THR770     -0.2208
    103  CG2       29.2290  -31.8270  -27.8030 C.3   770  THR770      0.0379
    104  N         25.3620  -30.0680  -29.9650 N.am  771  ASN771     -0.1957
    105  CA        24.2260  -30.0960  -30.8830 C.3   771  ASN771      0.1819
    106  C         24.6540  -29.5880  -32.2680 C.2   771  ASN771      0.2621
    107  O         24.5880  -30.3410  -33.2570 O.2   771  ASN771     -0.2715
    108  CB        23.0540  -29.2220  -30.3790 C.3   771  ASN771      0.1195
    109  CG        22.6440  -29.5600  -28.9670 C.2   771  ASN771      0.2630
    110  OD1       22.8520  -30.6870  -28.4980 O.2   771  ASN771     -0.2716
    111  ND2       22.0540  -28.6300  -28.3120 N.am  771  ASN771     -0.0877
    112  N         25.1130  -28.3570  -32.3610 N.am  772  ASP772     -0.1971
    113  CA        25.5930  -27.8510  -33.5880 C.3   772  ASP772      0.1709
    114  C         26.8270  -28.5730  -34.0300 C.2   772  ASP772      0.2293
    115  O         27.0130  -28.8200  -35.2420 O.2   772  ASP772     -0.2864
    116  CB        25.8920  -26.3270  -33.4790 C.3   772  ASP772      0.1436
    117  CG        24.6460  -25.4390  -33.6790 C.2   772  ASP772      0.3671
    118  OD1       23.9580  -25.6780  -34.6590 O.co2 772  ASP772     -0.2456
    119  OD2       24.4230  -24.5190  -32.8380 O.co2 772  ASP772     -0.2456
    120  N         19.6780  -30.9280  -37.8680 N.3   782  ARG782     -0.1245
    121  CA        19.0730  -31.2390  -36.5890 C.3   782  ARG782      0.1563
    122  C         17.5440  -31.2640  -36.6440 C.2   782  ARG782      0.2260
    123  O         16.9360  -31.8540  -35.7780 O.2   782  ARG782     -0.2867
    124  CB        19.4620  -30.1680  -35.5410 C.3   782  ARG782      0.0307
    125  CG        20.9440  -30.0720  -35.3300 C.3   782  ARG782      0.0489
    126  CD        21.2790  -28.7310  -34.6760 C.3   782  ARG782      0.2205
    127  NE        20.5500  -28.5020  -33.4350 N.pl3 782  ARG782     -0.0865
    128  CZ        20.8750  -27.5440  -32.5710 C.cat 782  ARG782      0.5346
    129  NH1       21.9110  -26.7550  -32.8100 N.pl3 782  ARG782      0.1354
    130  NH2       20.1690  -27.3830  -31.4500 N.pl3 782  ARG782      0.1354
    131  N         27.5300  -27.8060  -22.9430 N.3   834  CYS834     -0.1221
    132  CA        26.1250  -27.5200  -22.7290 C.3   834  CYS834      0.1808
    133  C         25.2010  -28.0700  -23.8030 C.2   834  CYS834      0.2601
    134  O         23.9970  -27.7970  -23.7870 O.2   834  CYS834     -0.2717
    135  CB        25.9620  -25.9850  -22.6560 C.3   834  CYS834      0.0970
    136  SG        26.6120  -25.1390  -24.0970 S.3   834  CYS834     -0.0800
    137  N         25.7220  -28.8180  -24.7570 N.am  835  GLY835     -0.1957
    138  CA        24.8620  -29.5460  -25.6590 C.3   835  GLY835      0.1869
    139  C         24.0660  -30.5990  -24.9480 C.2   835  GLY835      0.2309
    140  O         24.3170  -30.9640  -23.7940 O.2   835  GLY835     -0.2863
@<TRIPOS>BOND
     1    65    66    1
     2   120   121    1
     3    70    69    1
     4    70    71    1
     5    66    69    1
     6    66    67    1
     7   122   121    1
     8   122   123    2
     9   121   124    1
    10    68    67    2
    11    72    71    1
    12    72    73    2
    13    75    73    1
    14   124   125    1
    15    73    74    1
    16   125   126    1
    17   115   114    2
    18   126   127    1
    19   118   117   ar
    20   114   113    1
    21    87    86    2
    22   117   116    1
    23   117   119   ar
    24   113   116    1
    25   113   112    1
    26   127   128    2
    27   107   106    2
    28    86    85    1
    29    63    62   ar
    30   129   128    1
    31   128   130    1
    32   112   106   am
    33   106   105    1
    34    62    64   ar
    35    62    61    1
    36    59    60    2
    37    59    58    1
    38     7     9   ar
    39     7     6   ar
    40    85    88    1
    41    85    84    1
    42     9    10   ar
    43    89    88    1
    44    89    90    1
    45    58    61    1
    46    58    57    1
    47     1     2    1
    48    90    92   ar
    49    90    91   ar
    50   100    99    2
    51   105   108    1
    52   105   104    1
    53     6     5    1
    54     6     8   ar
    55     5     2    1
    56   108   109    1
    57    10     8   ar
    58    96    95    2
    59    99   104   am
    60    99    98    1
    61     2     3    1
    62    79    78    2
    63     3     4    2
    64    98    97    1
    65    98   101    1
    66    95    97   am
    67    95    94    1
    68   109   110    2
    69   109   111   am
    70    41    42    1
    71    41    38    1
    72    78    77    1
    73    42    43    1
    74   101   103    1
    75   101   102    1
    76    80    77    1
    77    80    81    1
    78    45    43   ar
    79    94    93    1
    80    43    44   ar
    81    56    54    1
    82    17    15    1
    83    77    76    1
    84    55    54    1
    85    83    82    1
    86    40    39    2
    87    38    39    1
    88    38    37    1
    89    81    82    1
    90    54    53    2
    91    11    12    1
    92    53    52    1
    93    15    12    1
    94    15    16    1
    95    52    51    1
    96    12    13    1
    97    33    32    1
    98    33    34    2
    99    36    34    1
   100    51    50    1
   101   138   139    1
   102   138   137    1
   103    32    31    1
   104    34    35    1
   105    13    14    2
   106    31    30    1
   107   139   140    2
   108    30    27    1
   109    48    49    2
   110    48    47    1
   111   137   133   am
   112    50    47    1
   113   136   135    1
   114    28    27    1
   115    28    29    2
   116    27    26    1
   117    47    46    1
   118    25    23    1
   119   133   134    2
   120   133   132    1
   121    24    23    1
   122   131   132    1
   123    23    22    1
   124   132   135    1
   125    22    19    1
   126    19    20    1
   127    19    18    1
   128    20    21    2
