@<TRIPOS>MOLECULE
tmp/5jwbB05.pdb
 142 134 0 0 0
SMALL
GASTEIGER

@<TRIPOS>ATOM
      1  N         34.4730    2.7250    9.4170 N.3    45  CYS45      -0.1235
      2  CA        35.1450    3.5480    8.4120 C.3    45  CYS45       0.1677
      3  C         36.3780    2.8620    7.8640 C.2    45  CYS45       0.2270
      4  O         36.8840    3.2020    6.8030 O.2    45  CYS45      -0.2867
      5  CB        35.5470    4.8900    8.9940 C.3    45  CYS45       0.0956
      6  SG        34.1840    5.8820    9.5260 S.3    45  CYS45      -0.0801
      7  N         37.4890    4.8480    4.3450 N.3    50  THR50      -0.1218
      8  CA        37.3310    6.2740    4.6440 C.3    50  THR50       0.1862
      9  C         38.3960    6.7930    5.6140 C.2    50  THR50       0.2287
     10  O         38.9430    7.8780    5.4260 O.2    50  THR50      -0.2866
     11  CB        35.9520    6.5660    5.2370 C.3    50  THR50       0.1770
     12  OG1       34.9470    6.1500    4.3090 O.3    50  THR50      -0.2211
     13  CG2       35.7980    8.0430    5.5220 C.3    50  THR50       0.0375
     14  N         28.5760    2.4560    5.3970 N.3   180  GLU180     -0.1245
     15  CA        29.8850    2.7370    4.8470 C.3   180  GLU180      0.1567
     16  C         30.0800    2.0080    3.5200 C.2   180  GLU180      0.2260
     17  O         30.5340    2.6160    2.5610 O.2   180  GLU180     -0.2867
     18  CB        30.9680    2.3670    5.8510 C.3   180  GLU180      0.0388
     19  CG        31.1110    3.3890    6.9360 C.3   180  GLU180      0.1160
     20  CD        31.8000    4.6590    6.4660 C.2   180  GLU180      0.3649
     21  OE1       31.6970    5.6870    7.1710 O.co2 180  GLU180     -0.2457
     22  OE2       32.4690    4.6300    5.4110 O.co2 180  GLU180     -0.2457
     23  N         28.1540    3.8180    0.7650 N.3   183  ASP183     -0.1239
     24  CA        28.8780    4.9870    0.2770 C.3   183  ASP183      0.1674
     25  C         29.9870    4.5940   -0.6880 C.2   183  ASP183      0.2266
     26  O         30.1340    5.1870   -1.7550 O.2   183  ASP183     -0.2867
     27  CB        29.4620    5.7920    1.4330 C.3   183  ASP183      0.1410
     28  CG        28.4270    6.6370    2.1290 C.2   183  ASP183      0.3668
     29  OD1       27.2610    6.6510    1.6780 O.co2 183  ASP183     -0.2456
     30  OD2       28.7920    7.2990    3.1180 O.co2 183  ASP183     -0.2456
     31  N         28.5290    3.3640   -3.9440 N.3   186  ASN186     -0.1225
     32  CA        27.8840    4.3950   -4.7540 C.3   186  ASN186      0.1785
     33  C         28.8270    5.4560   -5.2740 C.2   186  ASN186      0.2597
     34  O         28.4450    6.2660   -6.1290 O.2   186  ASN186     -0.2718
     35  CB        26.7740    5.0660   -3.9670 C.3   186  ASN186      0.1169
     36  CG        25.5830    4.1770   -3.8130 C.2   186  ASN186      0.2627
     37  OD1       25.1880    3.4910   -4.7550 O.2   186  ASN186     -0.2716
     38  ND2       25.0150    4.1460   -2.6150 N.am  186  ASN186     -0.0877
     39  N         30.0550    5.4630   -4.7650 N.am  187  LYS187     -0.1980
     40  CA        31.0320    6.4420   -5.2230 C.3   187  LYS187      0.1596
     41  C         32.1670    5.7460   -5.9750 C.2   187  LYS187      0.2287
     42  O         32.0410    5.4610   -7.1670 O.2   187  LYS187     -0.2864
     43  CB        31.5790    7.2550   -4.0560 C.3   187  LYS187      0.0298
     44  CG        32.0240    8.6280   -4.4400 C.3   187  LYS187      0.0038
     45  CD        33.0090    9.1860   -3.4300 C.3   187  LYS187      0.0206
     46  CE        33.0000   10.7060   -3.4310 C.3   187  LYS187      0.1093
     47  NZ        31.6250   11.2310   -3.1290 N.3   187  LYS187     -0.1314
     48  N         26.4280    6.8320   11.9060 N.3   434  TYR434     -0.1241
     49  CA        26.4320    7.1870   10.4920 C.3   434  TYR434      0.1605
     50  C         25.5350    6.2230    9.7130 C.2   434  TYR434      0.2264
     51  O         25.6830    5.0160    9.8340 O.2   434  TYR434     -0.2867
     52  CB        27.8440    7.1770    9.9160 C.3   434  TYR434      0.0534
     53  CG        27.8610    7.6590    8.4930 C.ar  434  TYR434     -0.0201
     54  CD1       27.4610    8.9450    8.1880 C.ar  434  TYR434     -0.0009
     55  CD2       28.2460    6.8280    7.4560 C.ar  434  TYR434     -0.0009
     56  CE1       27.4570    9.4040    6.8870 C.ar  434  TYR434      0.0417
     57  CE2       28.2430    7.2700    6.1580 C.ar  434  TYR434      0.0417
     58  CZ        27.8480    8.5620    5.8730 C.ar  434  TYR434      0.1957
     59  OH        27.8300    9.0200    4.5810 O.3   434  TYR434     -0.2866
     60  N         25.3060    8.2740    2.9890 N.3   437  ASN437     -0.1225
     61  CA        24.9590    9.4330    2.1770 C.3   437  ASN437      0.1785
     62  C         24.9450   10.7410    2.9720 C.2   437  ASN437      0.2597
     63  O         24.0870   11.6000    2.7420 O.2   437  ASN437     -0.2718
     64  CB        23.6010    9.2210    1.4840 C.3   437  ASN437      0.1169
     65  CG        23.3870   10.1800    0.3140 C.2   437  ASN437      0.2627
     66  OD1       24.3430   10.6080   -0.3430 O.2   437  ASN437     -0.2716
     67  ND2       22.1390   10.5460    0.0750 N.am  437  ASN437     -0.0877
     68  N         25.9090   10.8580    3.8900 N.am  438  HIS438     -0.1975
     69  CA        26.1740   12.0510    4.7040 C.3   438  HIS438      0.1656
     70  C         25.2270   12.2400    5.8630 C.2   438  HIS438      0.2291
     71  O         25.3650   13.2100    6.5950 O.2   438  HIS438     -0.2864
     72  CB        26.1480   13.3280    3.8630 C.3   438  HIS438      0.0771
     73  CG        27.1890   13.3660    2.7940 C.ar  438  HIS438      0.0820
     74  ND1       26.9310   12.9940    1.4890 N.ar  438  HIS438     -0.2267
     75  CD2       28.4980   13.7090    2.8390 C.ar  438  HIS438      0.1154
     76  CE1       28.0350   13.1170    0.7750 C.ar  438  HIS438      0.1986
     77  NE2       29.0000   13.5460    1.5700 N.ar  438  HIS438     -0.2212
     78  N         23.8510   11.6920    9.4510 N.3   440  VAL440     -0.1245
     79  CA        24.1460   11.2380   10.7940 C.3   440  VAL440      0.1561
     80  C         22.8860   11.2730   11.6410 C.2   440  VAL440      0.2260
     81  O         22.0720   12.1860   11.5140 O.2   440  VAL440     -0.2867
     82  CB        25.2310   12.0960   11.4370 C.3   440  VAL440      0.0252
     83  CG1       25.4350   11.7140   12.9010 C.3   440  VAL440      0.0019
     84  CG2       26.5210   11.9760   10.6380 C.3   440  VAL440      0.0019
     85  N         26.8010   15.7290    9.5740 N.3   456  SER456     -0.1217
     86  CA        28.1300   15.1470    9.5240 C.3   456  SER456      0.1889
     87  C         29.0920   15.9930   10.3340 C.2   456  SER456      0.2288
     88  O         29.9840   15.4870   11.0080 O.2   456  SER456     -0.2866
     89  CB        28.6120   15.0340    8.0770 C.3   456  SER456      0.2089
     90  OG        28.6270   16.3090    7.4480 O.3   456  SER456     -0.2183
     91  N         28.9320   15.1310   13.8900 N.3   459  TRP459     -0.1227
     92  CA        29.6030   13.8520   14.0970 C.3   459  TRP459      0.1737
     93  C         31.1130   14.0490   14.2100 C.2   459  TRP459      0.2595
     94  O         31.7800   13.4560   15.0590 O.2   459  TRP459     -0.2718
     95  CB        29.2510   12.9140   12.9490 C.3   459  TRP459      0.0564
     96  CG        29.7870   11.5100   13.0130 C.ar  459  TRP459      0.0003
     97  CD1       29.1230   10.3910   13.4370 C.ar  459  TRP459      0.0946
     98  CD2       31.0730   11.0640   12.5760 C.ar  459  TRP459      0.0152
     99  NE1       29.9240    9.2830   13.3110 N.ar  459  TRP459     -0.2442
    100  CE2       31.1250    9.6680   12.7820 C.ar  459  TRP459      0.0810
    101  CE3       32.1890   11.7100   12.0390 C.ar  459  TRP459      0.0012
    102  CZ2       32.2430    8.9130   12.4660 C.ar  459  TRP459      0.0191
    103  CZ3       33.2910   10.9620   11.7310 C.ar  459  TRP459      0.0001
    104  CH2       33.3130    9.5740   11.9410 C.ar  459  TRP459      0.0015
    105  N         31.6450   14.9100   13.3550 N.am  460  LYS460     -0.1980
    106  CA        33.0760   15.1420   13.3210 C.3   460  LYS460      0.1596
    107  C         33.5380   15.9010   14.5550 C.2   460  LYS460      0.2287
    108  O         34.5900   15.5890   15.1150 O.2   460  LYS460     -0.2864
    109  CB        33.4640   15.8910   12.0440 C.3   460  LYS460      0.0298
    110  CG        33.4940   14.9940   10.8100 C.3   460  LYS460      0.0038
    111  CD        33.8790   15.7740    9.5600 C.3   460  LYS460      0.0206
    112  CE        34.0460   14.8610    8.3690 C.3   460  LYS460      0.1093
    113  NZ        33.7470   15.5910    7.1080 N.3   460  LYS460     -0.1314
    114  N         40.1410   12.6420    6.4640 N.3   480  PHE480     -0.1241
    115  CA        38.9340   13.1490    5.8050 C.3   480  PHE480      0.1605
    116  C         39.2480   14.0560    4.6010 C.2   480  PHE480      0.2264
    117  O         38.5720   13.9850    3.5680 O.2   480  PHE480     -0.2867
    118  CB        38.0320   13.8780    6.8040 C.3   480  PHE480      0.0534
    119  CG        37.0990   12.9530    7.5560 C.ar  480  PHE480     -0.0203
    120  CD1       36.1680   12.1700    6.8600 C.ar  480  PHE480     -0.0042
    121  CD2       37.1590   12.8530    8.9510 C.ar  480  PHE480     -0.0042
    122  CE1       35.3180   11.3100    7.5290 C.ar  480  PHE480     -0.0003
    123  CE2       36.3100   11.9950    9.6350 C.ar  480  PHE480     -0.0003
    124  CZ        35.3830   11.2200    8.9210 C.ar  480  PHE480     -0.0000
    125  N         40.2290   11.6750    1.8570 N.3   483  THR483     -0.1218
    126  CA        39.0690   11.0100    1.3040 C.3   483  THR483      0.1862
    127  C         38.2770   11.9840    0.4420 C.2   483  THR483      0.2287
    128  O         37.8240   11.6290   -0.6470 O.2   483  THR483     -0.2866
    129  CB        38.2040   10.4220    2.4170 C.3   483  THR483      0.1770
    130  OG1       38.9710    9.4250    3.0990 O.3   483  THR483     -0.2211
    131  CG2       36.9630    9.7580    1.8530 C.3   483  THR483      0.0375
    132  N         38.5150    7.1350   -1.6890 N.3   488  ARG488     -0.1245
    133  CA        38.9050    5.9150   -1.0140 C.3   488  ARG488      0.1563
    134  C         39.8770    5.1050   -1.8690 C.2   488  ARG488      0.2260
    135  O         39.8070    5.1620   -3.0910 O.2   488  ARG488     -0.2867
    136  CB        37.6540    5.1070   -0.6760 C.3   488  ARG488      0.0307
    137  CG        36.7550    5.8310    0.3220 C.3   488  ARG488      0.0489
    138  CD        35.4060    5.1520    0.4910 C.3   488  ARG488      0.2205
    139  NE        34.5650    5.9230    1.3950 N.pl3 488  ARG488     -0.0865
    140  CZ        33.5870    6.7250    0.9980 C.cat 488  ARG488      0.5346
    141  NH1       33.3100    6.8400   -0.2940 N.pl3 488  ARG488      0.1354
    142  NH2       32.8810    7.3970    1.8970 N.pl3 488  ARG488      0.1354
@<TRIPOS>BOND
     1    42    41    2
     2    34    33    2
     3    41    40    1
     4    33    39   am
     5    33    32    1
     6    40    39    1
     7    40    43    1
     8    37    36    2
     9    32    35    1
    10    32    31    1
    11    44    43    1
    12    44    45    1
    13    35    36    1
    14    36    38   am
    15    46    45    1
    16    46    47    1
    17   135   134    2
    18   134   133    1
    19    26    25    2
    20   132   133    1
    21   133   136    1
    22    25    24    1
    23   136   137    1
    24   128   127    2
    25    66    65    2
    26   141   140    1
    27    67    65   am
    28    24    23    1
    29    24    27    1
    30    65    64    1
    31   137   138    1
    32   127   126    1
    33   138   139    1
    34    76    74   ar
    35    76    77   ar
    36   140   139    2
    37   140   142    1
    38   126   125    1
    39   126   129    1
    40    27    28    1
    41    64    61    1
    42    74    73   ar
    43    77    75   ar
    44    29    28   ar
    45   131   129    1
    46    28    30   ar
    47    61    62    1
    48    61    60    1
    49   129   130    1
    50    17    16    2
    51    63    62    2
    52    73    75   ar
    53    73    72    1
    54    62    68   am
    55    16    15    1
    56   117   116    2
    57    72    69    1
    58    68    69    1
    59    12    11    1
    60     7     8    1
    61    59    58    1
    62   116   115    1
    63     8    11    1
    64     8     9    1
    65    69    70    1
    66    15    14    1
    67    15    18    1
    68    11    13    1
    69    22    20   ar
    70    10     9    2
    71   115   114    1
    72   115   118    1
    73    18    19    1
    74    70    71    2
    75    58    57   ar
    76    58    56   ar
    77    57    55   ar
    78    20    19    1
    79    20    21   ar
    80     4     3    2
    81   118   119    1
    82   120   122   ar
    83   120   119   ar
    84    56    54   ar
    85   113   112    1
    86    90    89    1
    87    55    53   ar
    88   122   124   ar
    89   119   121   ar
    90     3     2    1
    91    89    86    1
    92    54    53   ar
    93   112   111    1
    94     2     5    1
    95     2     1    1
    96    53    52    1
    97   124   123   ar
    98   121   123   ar
    99     5     6    1
   100    78    79    1
   101    86    85    1
   102    86    87    1
   103   111   110    1
   104    50    51    2
   105    50    49    1
   106    52    49    1
   107    87    88    2
   108    49    48    1
   109    84    82    1
   110    79    82    1
   111    79    80    1
   112   110   109    1
   113    82    83    1
   114    81    80    2
   115   103   104   ar
   116   103   101   ar
   117   104   102   ar
   118   101    98   ar
   119   109   106    1
   120   102   100   ar
   121    98   100   ar
   122    98    96   ar
   123   100    99   ar
   124    95    96    1
   125    95    92    1
   126    96    97   ar
   127    99    97   ar
   128   106   105    1
   129   106   107    1
   130   105    93   am
   131    91    92    1
   132    92    93    1
   133    93    94    2
   134   107   108    2
