@<TRIPOS>MOLECULE
tmp/5jwcA02.pdb
 153 149 0 0 0
SMALL
GASTEIGER

@<TRIPOS>ATOM
      1  N         57.4800   -0.6410   10.7320 N.3    12  TRP12      -0.1241
      2  CA        58.0500    0.5890   10.1840 C.3    12  TRP12       0.1605
      3  C         57.8910    0.6610    8.6660 C.2    12  TRP12       0.2264
      4  O         57.5420    1.7040    8.1260 O.2    12  TRP12      -0.2867
      5  CB        59.5220    0.7380   10.5900 C.3    12  TRP12       0.0550
      6  CG        59.6610    1.3250   11.9920 C.ar   12  TRP12       0.0003
      7  CD1       59.8520    0.6390   13.1430 C.ar   12  TRP12       0.0946
      8  CD2       59.5660    2.7070   12.3530 C.ar   12  TRP12       0.0152
      9  NE1       59.9010    1.5020   14.2100 N.ar   12  TRP12      -0.2442
     10  CE2       59.7320    2.7790   13.7550 C.ar   12  TRP12       0.0810
     11  CE3       59.3780    3.8960   11.6350 C.ar   12  TRP12       0.0012
     12  CZ2       59.7230    3.9910   14.4490 C.ar   12  TRP12       0.0191
     13  CZ3       59.3600    5.1020   12.3290 C.ar   12  TRP12       0.0001
     14  CH2       59.5220    5.1350   13.7190 C.ar   12  TRP12       0.0015
     15  N         56.1830    1.8010   17.8180 N.3    39  PHE39      -0.1241
     16  CA        57.2920    2.7470   17.7360 C.3    39  PHE39       0.1605
     17  C         58.4950    2.1690   18.5030 C.2    39  PHE39       0.2264
     18  O         58.7740    2.5570   19.6430 O.2    39  PHE39      -0.2867
     19  CB        56.8670    4.1250   18.2820 C.3    39  PHE39       0.0534
     20  CG        57.7660    5.2650   17.8430 C.ar   39  PHE39      -0.0203
     21  CD1       57.5230    5.9570   16.6660 C.ar   39  PHE39      -0.0042
     22  CD2       58.8620    5.6380   18.6220 C.ar   39  PHE39      -0.0042
     23  CE1       58.3680    6.9990   16.2640 C.ar   39  PHE39      -0.0003
     24  CE2       59.6990    6.6790   18.2290 C.ar   39  PHE39      -0.0003
     25  CZ        59.4510    7.3550   17.0410 C.ar   39  PHE39      -0.0000
     26  N         61.8130    2.3790   18.7420 N.3    41  PRO41      -0.2116
     27  CA        62.9130    3.0120   19.4910 C.3    41  PRO41       0.1372
     28  C         62.6080    3.3660   20.9570 C.2    41  PRO41       0.2244
     29  O         63.5490    3.5690   21.7270 O.2    41  PRO41      -0.2868
     30  CB        63.1750    4.3010   18.7080 C.3    41  PRO41       0.0268
     31  CG        62.7310    3.9970   17.3230 C.3    41  PRO41       0.0207
     32  CD        61.5120    3.1080   17.4930 C.3    41  PRO41       0.0892
     33  N         64.7960    1.3080   11.6390 N.3   398  ALA398     -0.1231
     34  CA        63.5180    1.9590   11.4140 C.3   398  ALA398      0.1694
     35  C         63.6970    3.0970   10.4230 C.2   398  ALA398      0.2591
     36  O         62.8370    3.3200    9.5670 O.2   398  ALA398     -0.2718
     37  CB        62.9230    2.4730   12.7230 C.3   398  ALA398      0.0304
     38  N         64.8240    3.8040   10.5310 N.am  399  GLN399     -0.1979
     39  CA        65.1320    4.8940    9.6060 C.3   399  GLN399      0.1601
     40  C         65.0940    4.4060    8.1660 C.2   399  GLN399      0.2287
     41  O         64.4550    5.0200    7.3200 O.2   399  GLN399     -0.2864
     42  CB        66.5050    5.5130    9.9000 C.3   399  GLN399      0.0394
     43  CG        66.5480    6.3400   11.1710 C.3   399  GLN399      0.0908
     44  CD        67.9530    6.8260   11.5040 C.2   399  GLN399      0.2608
     45  OE1       68.9360    6.1830   11.1470 O.2   399  GLN399     -0.2717
     46  NE2       68.0480    7.9670   12.1700 N.am  399  GLN399     -0.0878
     47  N         61.5470    3.2120    7.0360 N.3   402  LYS402     -0.1231
     48  CA        60.6890    4.3610    6.7700 C.3   402  LYS402      0.1693
     49  C         61.0340    5.0320    5.4410 C.2   402  LYS402      0.2591
     50  O         60.1420    5.3770    4.6520 O.2   402  LYS402     -0.2718
     51  CB        60.7870    5.3750    7.9080 C.3   402  LYS402      0.0285
     52  CG        59.8200    6.5280    7.7160 C.3   402  LYS402      0.0035
     53  CD        59.9440    7.5470    8.8310 C.3   402  LYS402      0.0206
     54  CE        58.8410    8.6050    8.7530 C.3   402  LYS402      0.1093
     55  NZ        59.0170    9.6440    9.8200 N.3   402  LYS402     -0.1314
     56  N         62.3200    5.2210    5.1780 N.am  403  GLN403     -0.1979
     57  CA        62.7030    5.8510    3.9090 C.3   403  GLN403      0.1601
     58  C         62.3380    4.9720    2.7020 C.2   403  GLN403      0.2287
     59  O         61.9500    5.4950    1.6530 O.2   403  GLN403     -0.2864
     60  CB        64.2040    6.1770    3.8880 C.3   403  GLN403      0.0394
     61  CG        64.6260    7.2380    4.8880 C.3   403  GLN403      0.0908
     62  CD        66.1220    7.4980    4.8800 C.2   403  GLN403      0.2608
     63  OE1       66.7730    7.4210    3.8420 O.2   403  GLN403     -0.2717
     64  NE2       66.6710    7.8170    6.0470 N.am  403  GLN403     -0.0878
     65  N         70.7330    9.6990    8.9670 N.3   432  LYS432     -0.1231
     66  CA        70.3360   10.8990    9.7050 C.3   432  LYS432      0.1693
     67  C         70.9720   10.9480   11.0940 C.2   432  LYS432      0.2593
     68  O         70.8180   11.9180   11.8190 O.2   432  LYS432     -0.2718
     69  CB        68.8160   10.9600    9.8400 C.3   432  LYS432      0.0285
     70  CG        68.0440   10.7180    8.5350 C.3   432  LYS432      0.0035
     71  CD        67.9240   11.9900    7.7220 C.3   432  LYS432      0.0206
     72  CE        67.0690   11.7800    6.4730 C.3   432  LYS432      0.1093
     73  NZ        65.7080   11.2470    6.8050 N.3   432  LYS432     -0.1314
     74  N         71.6660    9.8880   11.4730 N.am  433  GLY433     -0.1942
     75  CA        72.2720    9.8370   12.7870 C.3   433  GLY433      0.2014
     76  C         71.5740    8.9030   13.7600 C.2   433  GLY433      0.2640
     77  O         70.4980    8.3660   13.4780 O.2   433  GLY433     -0.2714
     78  N         72.2080    8.6980   14.9080 N.am  434  SER434     -0.1935
     79  CA        71.6980    7.8110   15.9400 C.3   434  SER434      0.2055
     80  C         71.7690    8.4810   17.2980 C.2   434  SER434      0.2642
     81  O         72.6390    9.3290   17.5340 O.2   434  SER434     -0.2714
     82  CB        72.4890    6.5100   15.9790 C.3   434  SER434      0.2130
     83  OG        72.5910    5.9360   14.6880 O.3   434  SER434     -0.2179
     84  N         70.8730    8.0540   18.1850 N.am  435  LEU435     -0.1977
     85  CA        70.7140    8.6160   19.5100 C.3   435  LEU435      0.1596
     86  C         70.6230    7.4840   20.5110 C.2   435  LEU435      0.2287
     87  O         70.0120    6.4550   20.2240 O.2   435  LEU435     -0.2864
     88  CB        69.4140    9.4340   19.6010 C.3   435  LEU435      0.0297
     89  CG        69.5010   10.9320   19.7740 C.3   435  LEU435      0.0022
     90  CD1       69.9720   11.4300   18.4080 C.3   435  LEU435      0.0001
     91  CD2       68.1450   11.5130   20.0960 C.3   435  LEU435      0.0001
     92  N         75.8180   11.8920   15.0210 N.3   447  LEU447     -0.1245
     93  CA        75.0950   12.4900   13.9020 C.3   447  LEU447      0.1561
     94  C         76.0480   12.8580   12.7670 C.2   447  LEU447      0.2260
     95  O         77.2620   12.8680   12.9630 O.2   447  LEU447     -0.2867
     96  CB        74.3380   13.7290   14.3730 C.3   447  LEU447      0.0270
     97  CG        73.3970   13.4780   15.5520 C.3   447  LEU447      0.0019
     98  CD1       72.9400   14.7920   16.1250 C.3   447  LEU447      0.0001
     99  CD2       72.1850   12.6450   15.1160 C.3   447  LEU447      0.0001
    100  N         67.6330   17.6290   23.9810 N.3   461  PHE461     -0.1241
    101  CA        67.8570   17.3040   22.5830 C.3   461  PHE461      0.1605
    102  C         67.1200   16.0340   22.1800 C.2   461  PHE461      0.2264
    103  O         66.4760   15.9690   21.1260 O.2   461  PHE461     -0.2867
    104  CB        69.3480   17.1340   22.3190 C.3   461  PHE461      0.0534
    105  CG        69.6560   16.7470   20.9150 C.ar  461  PHE461     -0.0203
    106  CD1       69.5500   17.6790   19.9040 C.ar  461  PHE461     -0.0042
    107  CD2       70.0400   15.4550   20.6030 C.ar  461  PHE461     -0.0042
    108  CE1       69.8240   17.3430   18.6030 C.ar  461  PHE461     -0.0003
    109  CE2       70.3320   15.1130   19.3000 C.ar  461  PHE461     -0.0003
    110  CZ        70.2190   16.0580   18.2980 C.ar  461  PHE461     -0.0000
    111  N         63.3520   16.7950   21.8380 N.3   464  VAL464     -0.1231
    112  CA        63.1080   17.5570   20.6190 C.3   464  VAL464      0.1692
    113  C         63.1630   16.6490   19.4000 C.2   464  VAL464      0.2592
    114  O         62.3320   16.7670   18.4870 O.2   464  VAL464     -0.2718
    115  CB        64.1270   18.7110   20.4470 C.3   464  VAL464      0.0266
    116  CG1       64.0470   19.2900   19.0480 C.3   464  VAL464      0.0020
    117  CG2       63.8620   19.7950   21.4780 C.3   464  VAL464      0.0020
    118  N         64.1350   15.7370   19.3770 N.am  465  VAL465     -0.1966
    119  CA        64.2310   14.8400   18.2370 C.3   465  VAL465      0.1727
    120  C         63.0350   13.9060   18.2310 C.2   465  VAL465      0.2616
    121  O         62.2980   13.8450   17.2630 O.2   465  VAL465     -0.2715
    122  CB        65.5270   14.0110   18.2410 C.3   465  VAL465      0.0290
    123  CG1       65.4300   12.8990   17.2020 C.3   465  VAL465      0.0023
    124  CG2       66.7270   14.9090   17.9750 C.3   465  VAL465      0.0023
    125  N         62.8310   13.1810   19.3200 N.am  466  TYR466     -0.1974
    126  CA        61.7800   12.1670   19.2930 C.3   466  TYR466      0.1639
    127  C         60.3700   12.7140   19.1270 C.2   466  TYR466      0.2290
    128  O         59.5500   12.0590   18.4820 O.2   466  TYR466     -0.2864
    129  CB        61.8610   11.2740   20.5370 C.3   466  TYR466      0.0560
    130  CG        62.7640   10.1150   20.2250 C.ar  466  TYR466     -0.0198
    131  CD1       62.4060    9.2060   19.2510 C.ar  466  TYR466     -0.0009
    132  CD2       63.9970    9.9710   20.8360 C.ar  466  TYR466     -0.0009
    133  CE1       63.2290    8.1520   18.9140 C.ar  466  TYR466      0.0417
    134  CE2       64.8380    8.9100   20.5100 C.ar  466  TYR466      0.0417
    135  CZ        64.4470    8.0080   19.5430 C.ar  466  TYR466      0.1957
    136  OH        65.2700    6.9520   19.2000 O.3   466  TYR466     -0.2866
    137  N         59.3890   14.9350   17.2170 N.3   468  GLN468     -0.1231
    138  CA        59.1840   15.1340   15.7810 C.3   468  GLN468      0.1698
    139  C         59.1520   13.8170   14.9970 C.2   468  GLN468      0.2592
    140  O         58.6340   13.7790   13.8830 O.2   468  GLN468     -0.2718
    141  CB        60.2600   16.0380   15.2020 C.3   468  GLN468      0.0381
    142  CG        60.2820   17.4210   15.8140 C.3   468  GLN468      0.0905
    143  CD        61.4860   18.2070   15.3370 C.2   468  GLN468      0.2608
    144  OE1       62.4720   18.3510   16.0590 O.2   468  GLN468     -0.2717
    145  NE2       61.4140   18.7110   14.1150 N.am  468  GLN468     -0.0878
    146  N         59.7220   12.7530   15.5590 N.am  469  LEU469     -0.1980
    147  CA        59.6870   11.4580   14.8790 C.3   469  LEU469      0.1596
    148  C         58.3720   10.6940   15.1160 C.2   469  LEU469      0.2287
    149  O         57.9830    9.8510   14.2990 O.2   469  LEU469     -0.2864
    150  CB        60.8900   10.6010   15.2940 C.3   469  LEU469      0.0297
    151  CG        62.2480   11.2440   14.9450 C.3   469  LEU469      0.0022
    152  CD1       63.4090   10.3550   15.3830 C.3   469  LEU469      0.0001
    153  CD2       62.3390   11.5490   13.4370 C.3   469  LEU469      0.0001
@<TRIPOS>BOND
     1    59    58    2
     2    58    57    1
     3    63    62    2
     4    60    57    1
     5    60    61    1
     6    57    56    1
     7    50    49    2
     8    62    61    1
     9    62    64   am
    10    56    49   am
    11    49    48    1
    12    72    73    1
    13    72    71    1
    14    48    47    1
    15    48    51    1
    16    41    40    2
    17    52    51    1
    18    52    53    1
    19    71    70    1
    20     4     3    2
    21    40    39    1
    22    70    69    1
    23     3     2    1
    24    54    53    1
    25    54    55    1
    26    65    66    1
    27    36    35    2
    28    39    42    1
    29    39    38    1
    30    66    69    1
    31    66    67    1
    32    42    43    1
    33     2     5    1
    34     2     1    1
    35    35    38   am
    36    35    34    1
    37     5     6    1
    38    67    74   am
    39    67    68    2
    40    45    44    2
    41    43    44    1
    42    34    33    1
    43    34    37    1
    44    74    75    1
    45    44    46   am
    46    11    13   ar
    47    11     8   ar
    48     6     8   ar
    49     6     7   ar
    50    13    14   ar
    51     8    10   ar
    52    94    95    2
    53    94    93    1
    54    75    76    1
    55     7     9   ar
    56   153   151    1
    57    77    76    2
    58    14    12   ar
    59    10     9   ar
    60    10    12   ar
    61    76    78   am
    62   140   139    2
    63    93    96    1
    64    93    92    1
    65   145   143   am
    66   149   148    2
    67    96    97    1
    68    83    82    1
    69   147   148    1
    70   147   150    1
    71   147   146    1
    72    78    79    1
    73   151   150    1
    74   151   152    1
    75   139   146   am
    76   139   138    1
    77    99    97    1
    78   141   138    1
    79   141   142    1
    80   143   142    1
    81   143   144    2
    82    97    98    1
    83   138   137    1
    84    79    82    1
    85    79    80    1
    86    23    21   ar
    87    23    25   ar
    88    21    20   ar
    89    25    24   ar
    90   123   122    1
    91   121   120    2
    92    80    81    2
    93    80    84   am
    94    31    32    1
    95    31    30    1
    96    32    26    1
    97    16    15    1
    98    16    19    1
    99    16    17    1
   100    20    19    1
   101    20    22   ar
   102   124   122    1
   103    84    85    1
   104    24    22   ar
   105   120   119    1
   106   120   125   am
   107   119   122    1
   108   119   118    1
   109   110   108   ar
   110   110   109   ar
   111    90    89    1
   112   128   127    2
   113   114   113    2
   114    17    18    2
   115   108   106   ar
   116    30    27    1
   117    26    27    1
   118   133   131   ar
   119   133   135   ar
   120   116   115    1
   121   127   126    1
   122   136   135    1
   123   131   130   ar
   124   126   125    1
   125   126   129    1
   126   109   107   ar
   127   118   113   am
   128   113   112    1
   129    27    28    1
   130    85    88    1
   131    85    86    1
   132   135   134   ar
   133    88    89    1
   134    89    91    1
   135   106   105   ar
   136    87    86    2
   137   130   129    1
   138   130   132   ar
   139   115   112    1
   140   115   117    1
   141   134   132   ar
   142   107   105   ar
   143   112   111    1
   144   105   104    1
   145    28    29    2
   146   103   102    2
   147   102   101    1
   148   104   101    1
   149   101   100    1
