@<TRIPOS>MOLECULE
tmp/5jwcA04.pdb
 102 94 0 0 0
SMALL
GASTEIGER

@<TRIPOS>ATOM
      1  N         59.5920    1.8060   27.9950 N.3    46  LEU46      -0.1245
      2  CA        58.4430    1.0610   28.4670 C.3    46  LEU46       0.1561
      3  C         58.8320    0.0530   29.5440 C.2    46  LEU46       0.2260
      4  O         58.0610   -0.1740   30.4840 O.2    46  LEU46      -0.2867
      5  CB        57.7800    0.3570   27.2800 C.3    46  LEU46       0.0270
      6  CG        56.2840    0.1630   27.1660 C.3    46  LEU46       0.0019
      7  CD1       55.4960    1.4340   27.4880 C.3    46  LEU46       0.0001
      8  CD2       55.9910   -0.3390   25.7370 C.3    46  LEU46       0.0001
      9  N         58.9890    2.0210   32.6760 N.3    49  GLY49      -0.1225
     10  CA        57.8040    2.8330   32.8740 C.3    49  GLY49       0.1811
     11  C         58.0280    4.3210   32.6580 C.2    49  GLY49       0.2280
     12  O         57.1930    5.1320   33.0380 O.2    49  GLY49      -0.2866
     13  N         57.9210    5.8600   29.7980 N.3    51  LEU51      -0.1231
     14  CA        56.8600    6.2520   28.8750 C.3    51  LEU51       0.1693
     15  C         55.7990    5.1550   28.8690 C.2    51  LEU51       0.2593
     16  O         56.0890    4.0310   29.2510 O.2    51  LEU51      -0.2718
     17  CB        57.4120    6.4620   27.4680 C.3    51  LEU51       0.0284
     18  CG        58.4560    7.5590   27.3050 C.3    51  LEU51       0.0019
     19  CD1       59.0070    7.5160   25.8780 C.3    51  LEU51       0.0001
     20  CD2       57.8420    8.9100   27.6010 C.3    51  LEU51       0.0001
     21  N         54.5890    5.4700   28.4180 N.am   52  SER52      -0.1938
     22  CA        53.5000    4.4960   28.4070 C.3    52  SER52       0.2055
     23  C         53.2110    3.9410   27.0050 C.2    52  SER52       0.2642
     24  O         53.7610    4.3990   25.9930 O.2    52  SER52      -0.2714
     25  CB        52.2230    5.1230   28.9700 C.3    52  SER52       0.2130
     26  OG        51.8050    6.2090   28.1560 O.3    52  SER52      -0.2179
     27  N         52.3340    2.9450   26.9540 N.am   53  VAL53      -0.1977
     28  CA        52.0080    2.3010   25.7050 C.3    53  VAL53       0.1596
     29  C         51.3840    3.2710   24.7000 C.2    53  VAL53       0.2287
     30  O         51.5760    3.1110   23.4990 O.2    53  VAL53      -0.2864
     31  CB        51.0840    1.0920   25.9500 C.3    53  VAL53       0.0276
     32  CG1       50.5400    0.5200   24.6370 C.3    53  VAL53       0.0022
     33  CG2       51.8660    0.0200   26.6730 C.3    53  VAL53       0.0022
     34  N         56.6220   -5.0760   28.4210 N.3   136  LEU136     -0.1245
     35  CA        55.7360   -5.0910   29.5800 C.3   136  LEU136      0.1561
     36  C         55.9550   -6.3200   30.4860 C.2   136  LEU136      0.2260
     37  O         55.7980   -6.2410   31.6960 O.2   136  LEU136     -0.2867
     38  CB        54.2780   -5.0140   29.1150 C.3   136  LEU136      0.0270
     39  CG        54.0380   -3.7210   28.3210 C.3   136  LEU136      0.0019
     40  CD1       52.6540   -3.6870   27.8070 C.3   136  LEU136      0.0001
     41  CD2       54.2560   -2.4840   29.1700 C.3   136  LEU136      0.0001
     42  N         59.0780   -5.5410   32.4810 N.3   139  ARG139     -0.1231
     43  CA        58.6950   -4.6390   33.5590 C.3   139  ARG139      0.1694
     44  C         57.9560   -5.3860   34.6710 C.2   139  ARG139      0.2591
     45  O         58.2770   -5.2300   35.8520 O.2   139  ARG139     -0.2718
     46  CB        57.8130   -3.5150   33.0220 C.3   139  ARG139      0.0321
     47  CG        57.3730   -2.5190   34.0860 C.3   139  ARG139      0.0489
     48  CD        56.4750   -1.4290   33.5110 C.3   139  ARG139      0.2205
     49  NE        55.8750   -0.6330   34.5780 N.pl3 139  ARG139     -0.0865
     50  CZ        54.7410   -0.9410   35.2000 C.cat 139  ARG139      0.5346
     51  NH1       54.0650   -2.0370   34.8530 N.pl3 139  ARG139      0.1354
     52  NH2       54.2850   -0.1490   36.1760 N.pl3 139  ARG139      0.1354
     53  N         56.9660   -6.1940   34.2920 N.am  140  LYS140     -0.1980
     54  CA        56.1860   -6.9160   35.2950 C.3   140  LYS140      0.1596
     55  C         57.0560   -7.9110   36.1020 C.2   140  LYS140      0.2287
     56  O         56.9010   -8.0280   37.3230 O.2   140  LYS140     -0.2864
     57  CB        55.0060   -7.6460   34.6450 C.3   140  LYS140      0.0298
     58  CG        54.2490   -8.5600   35.6330 C.3   140  LYS140      0.0038
     59  CD        52.9320   -9.0690   35.0640 C.3   140  LYS140      0.0206
     60  CE        52.1950   -9.9880   36.0680 C.3   140  LYS140      0.1093
     61  NZ        52.4110   -9.6300   37.4950 N.3   140  LYS140     -0.1314
     62  N         53.5080   12.1470   29.5920 N.3   482  ASP482     -0.1239
     63  CA        54.2810   11.1540   30.3200 C.3   482  ASP482      0.1674
     64  C         55.4980   11.7560   31.0170 C.2   482  ASP482      0.2266
     65  O         55.8410   11.3520   32.1280 O.2   482  ASP482     -0.2867
     66  CB        54.7310   10.0260   29.3840 C.3   482  ASP482      0.1410
     67  CG        53.6530    8.9650   29.1960 C.2   482  ASP482      0.3668
     68  OD1       52.5670    9.0920   29.8200 O.co2 482  ASP482     -0.2456
     69  OD2       53.8970    7.9960   28.4400 O.co2 482  ASP482     -0.2456
     70  N         54.1360   13.6060   33.9160 N.3   485  LYS485     -0.1245
     71  CA        53.6720   12.6300   34.8900 C.3   485  LYS485      0.1561
     72  C         54.8290   12.0620   35.7010 C.2   485  LYS485      0.2260
     73  O         54.7660   11.9610   36.9260 O.2   485  LYS485     -0.2867
     74  CB        52.9100   11.4990   34.1840 C.3   485  LYS485      0.0271
     75  CG        52.2940   10.4460   35.1300 C.3   485  LYS485      0.0035
     76  CD        53.2530    9.2790   35.4440 C.3   485  LYS485      0.0206
     77  CE        52.6760    8.3620   36.5430 C.3   485  LYS485      0.1093
     78  NZ        51.4540    7.6330   36.0660 N.3   485  LYS485     -0.1314
     79  N         55.2340    4.4530   37.5460 N.3   492  PRO492     -0.2116
     80  CA        54.2070    3.6400   38.2120 C.3   492  PRO492      0.1372
     81  C         54.7170    2.2530   38.6110 C.2   492  PRO492      0.2244
     82  O         55.6240    1.7100   37.9690 O.2   492  PRO492     -0.2868
     83  CB        53.1090    3.5340   37.1430 C.3   492  PRO492      0.0268
     84  CG        53.8600    3.6250   35.8450 C.3   492  PRO492      0.0207
     85  CD        54.9590    4.6240   36.1050 C.3   492  PRO492      0.0892
     86  N         52.1710   -0.1050   39.2090 N.3   494  ILE494     -0.1231
     87  CA        51.0080   -0.9420   38.9260 C.3   494  ILE494      0.1692
     88  C         51.3450   -2.0100   37.8940 C.2   494  ILE494      0.2591
     89  O         51.9450   -1.7270   36.8510 O.2   494  ILE494     -0.2718
     90  CB        49.7860   -0.0970   38.4390 C.3   494  ILE494      0.0266
     91  CG1       48.6230   -0.9930   38.0180 C.3   494  ILE494      0.0019
     92  CG2       50.1720    0.7970   37.3060 C.3   494  ILE494      0.0020
     93  CD1       48.0130   -1.7350   39.1970 C.3   494  ILE494      0.0001
     94  N         51.0290   -3.2500   38.2360 N.am  495  LYS495     -0.1980
     95  CA        51.2360   -4.4030   37.3630 C.3   495  LYS495      0.1596
     96  C         50.1640   -5.4700   37.6150 C.2   495  LYS495      0.2287
     97  O         49.9420   -6.3360   36.7600 O.2   495  LYS495     -0.2864
     98  CB        52.6360   -4.9740   37.5650 C.3   495  LYS495      0.0298
     99  CG        52.8570   -5.3940   38.9940 C.3   495  LYS495      0.0038
    100  CD        53.7760   -6.5690   39.1450 C.3   495  LYS495      0.0206
    101  CE        54.0530   -6.7510   40.6410 C.3   495  LYS495      0.1093
    102  NZ        52.8460   -6.3590   41.3780 N.3   495  LYS495     -0.1314
@<TRIPOS>BOND
     1    30    29    2
     2    32    31    1
     3    29    28    1
     4    28    31    1
     5    28    27    1
     6     8     6    1
     7    19    18    1
     8    31    33    1
     9    24    23    2
    10    27    23   am
    11    23    22    1
    12     6     5    1
    13     6     7    1
    14     5     2    1
    15    18    17    1
    16    18    20    1
    17    17    14    1
    18    40    39    1
    19     1     2    1
    20    26    25    1
    21    39    38    1
    22    39    41    1
    23    22    21    1
    24    22    25    1
    25    21    15   am
    26    34    35    1
    27    69    67   ar
    28     2     3    1
    29    15    14    1
    30    15    16    2
    31    14    13    1
    32    38    35    1
    33    67    66    1
    34    67    68   ar
    35    66    63    1
    36     3     4    2
    37    35    36    1
    38    62    63    1
    39    63    64    1
    40    36    37    2
    41    64    65    2
    42    42    43    1
    43    11    10    1
    44    11    12    2
    45     9    10    1
    46    46    43    1
    47    46    47    1
    48    48    47    1
    49    48    49    1
    50    43    44    1
    51    70    71    1
    52    74    71    1
    53    74    75    1
    54    53    44   am
    55    53    54    1
    56    49    50    2
    57    57    54    1
    58    57    58    1
    59    44    45    2
    60    51    50    1
    61    71    72    1
    62    59    58    1
    63    59    60    1
    64    75    76    1
    65    50    52    1
    66    54    55    1
    67    76    77    1
    68    72    73    2
    69    84    85    1
    70    84    83    1
    71    78    77    1
    72    60    61    1
    73    55    56    2
    74    85    79    1
    75    97    96    2
    76    89    88    2
    77    83    80    1
    78    92    90    1
    79    95    98    1
    80    95    96    1
    81    95    94    1
    82    79    80    1
    83    98    99    1
    84    88    94   am
    85    88    87    1
    86    82    81    2
    87    91    90    1
    88    91    93    1
    89    80    81    1
    90    90    87    1
    91    87    86    1
    92    99   100    1
    93   100   101    1
    94   101   102    1
