@<TRIPOS>MOLECULE
tmp/5jwcA01.pdb
 89 85 0 0 0
SMALL
GASTEIGER

@<TRIPOS>ATOM
      1  N         41.8110   12.0270    3.9510 N.3    67  LYS67      -0.1245
      2  CA        41.0250   13.2500    3.8480 C.3    67  LYS67       0.1561
      3  C         40.2270   13.3360    2.5440 C.2    67  LYS67       0.2260
      4  O         39.1690   13.9790    2.4880 O.2    67  LYS67      -0.2867
      5  CB        41.9580   14.4460    3.9980 C.3    67  LYS67       0.0271
      6  CG        43.3700   14.1570    3.5090 C.3    67  LYS67       0.0035
      7  CD        44.4030   15.0810    4.1390 C.3    67  LYS67       0.0206
      8  CE        44.4740   14.8490    5.6470 C.3    67  LYS67       0.1093
      9  NZ        45.6920   15.4360    6.2710 N.3    67  LYS67      -0.1314
     10  N         61.5470    3.2120    7.0360 N.3   402  LYS402     -0.1245
     11  CA        60.6890    4.3610    6.7700 C.3   402  LYS402      0.1561
     12  C         61.0340    5.0320    5.4410 C.2   402  LYS402      0.2260
     13  O         60.1420    5.3770    4.6520 O.2   402  LYS402     -0.2867
     14  CB        60.7870    5.3750    7.9080 C.3   402  LYS402      0.0271
     15  CG        59.8200    6.5280    7.7160 C.3   402  LYS402      0.0035
     16  CD        59.9440    7.5470    8.8310 C.3   402  LYS402      0.0206
     17  CE        58.8410    8.6050    8.7530 C.3   402  LYS402      0.1093
     18  NZ        59.0170    9.6440    9.8200 N.3   402  LYS402     -0.1314
     19  N         63.3520   16.7950   21.8380 N.3   464  VAL464     -0.1245
     20  CA        63.1080   17.5570   20.6190 C.3   464  VAL464      0.1561
     21  C         63.1630   16.6490   19.4000 C.2   464  VAL464      0.2260
     22  O         62.3320   16.7670   18.4870 O.2   464  VAL464     -0.2867
     23  CB        64.1270   18.7110   20.4470 C.3   464  VAL464      0.0252
     24  CG1       64.0470   19.2900   19.0480 C.3   464  VAL464      0.0019
     25  CG2       63.8620   19.7950   21.4780 C.3   464  VAL464      0.0019
     26  N         60.0600   13.8940   19.6610 N.3   467  ILE467     -0.1231
     27  CA        58.6700   14.3540   19.4920 C.3   467  ILE467      0.1692
     28  C         58.3600   14.6200   18.0030 C.2   467  ILE467      0.2591
     29  O         57.2100   14.4660   17.5600 O.2   467  ILE467     -0.2718
     30  CB        58.3350   15.5870   20.3850 C.3   467  ILE467      0.0266
     31  CG1       56.8040   15.7340   20.4730 C.3   467  ILE467      0.0019
     32  CG2       58.9920   16.8590   19.8850 C.3   467  ILE467      0.0020
     33  CD1       56.3150   16.6280   21.5740 C.3   467  ILE467      0.0001
     34  N         59.3890   14.9350   17.2170 N.am  468  GLN468     -0.1979
     35  CA        59.1840   15.1340   15.7810 C.3   468  GLN468      0.1601
     36  C         59.1520   13.8170   14.9970 C.2   468  GLN468      0.2287
     37  O         58.6340   13.7790   13.8830 O.2   468  GLN468     -0.2864
     38  CB        60.2600   16.0380   15.2020 C.3   468  GLN468      0.0394
     39  CG        60.2820   17.4210   15.8140 C.3   468  GLN468      0.0908
     40  CD        61.4860   18.2070   15.3370 C.2   468  GLN468      0.2608
     41  OE1       62.4720   18.3510   16.0590 O.2   468  GLN468     -0.2717
     42  NE2       61.4140   18.7110   14.1150 N.am  468  GLN468     -0.0878
     43  N         57.6710   11.0020   16.2060 N.3   470  LEU470     -0.1231
     44  CA        56.3900   10.3520   16.4710 C.3   470  LEU470      0.1693
     45  C         55.4000   10.6220   15.3100 C.2   470  LEU470      0.2592
     46  O         55.4550   11.6670   14.6860 O.2   470  LEU470     -0.2718
     47  CB        55.8350   10.8290   17.8160 C.3   470  LEU470      0.0284
     48  CG        56.5880   10.3060   19.0380 C.3   470  LEU470      0.0019
     49  CD1       56.0940   11.0060   20.3070 C.3   470  LEU470      0.0001
     50  CD2       56.4530    8.7630   19.1610 C.3   470  LEU470      0.0001
     51  N         54.5210    9.6670   15.0160 N.am  471  LEU471     -0.1966
     52  CA        53.7400    9.7150   13.7660 C.3   471  LEU471      0.1728
     53  C         52.3150   10.2590   13.9030 C.2   471  LEU471      0.2617
     54  O         51.5430   10.2190   12.9380 O.2   471  LEU471     -0.2715
     55  CB        53.6940    8.3210   13.1490 C.3   471  LEU471      0.0311
     56  CG        55.1110    7.8410   12.7950 C.3   471  LEU471      0.0022
     57  CD1       55.0660    6.4160   12.3290 C.3   471  LEU471      0.0001
     58  CD2       55.7090    8.7360   11.6980 C.3   471  LEU471      0.0001
     59  N         51.9560   10.7590   15.0860 N.am  472  SER472     -0.1936
     60  CA        50.6470   11.3850   15.2650 C.3   472  SER472      0.2055
     61  C         50.6900   12.3970   16.3990 C.2   472  SER472      0.2643
     62  O         51.5460   12.3100   17.2820 O.2   472  SER472     -0.2714
     63  CB        49.5670   10.3420   15.5530 C.3   472  SER472      0.2130
     64  OG        49.7480    9.7950   16.8430 O.3   472  SER472     -0.2179
     65  N         49.7570   13.3430   16.3760 N.am  473  TRP473     -0.1973
     66  CA        49.6140   14.2980   17.4700 C.3   473  TRP473      0.1640
     67  C         49.1820   13.6230   18.7700 C.2   473  TRP473      0.2290
     68  O         49.5780   14.0580   19.8420 O.2   473  TRP473     -0.2864
     69  CB        48.6220   15.4000   17.0800 C.3   473  TRP473      0.0576
     70  CG        49.1790   16.2860   16.0120 C.ar  473  TRP473      0.0006
     71  CD1       48.8000   16.3360   14.6950 C.ar  473  TRP473      0.0946
     72  CD2       50.2640   17.2100   16.1530 C.ar  473  TRP473      0.0152
     73  NE1       49.5690   17.2550   14.0220 N.ar  473  TRP473     -0.2442
     74  CE2       50.4720   17.8090   14.8970 C.ar  473  TRP473      0.0810
     75  CE3       51.0630   17.6070   17.2310 C.ar  473  TRP473      0.0012
     76  CZ2       51.4520   18.7730   14.6830 C.ar  473  TRP473      0.0191
     77  CZ3       52.0360   18.5660   17.0180 C.ar  473  TRP473      0.0001
     78  CH2       52.2250   19.1350   15.7520 C.ar  473  TRP473      0.0015
     79  N         52.2840   12.4050   20.3910 N.3   476  ARG476     -0.1245
     80  CA        53.0590   13.5460   20.8660 C.3   476  ARG476      0.1563
     81  C         52.4560   14.1010   22.1480 C.2   476  ARG476      0.2260
     82  O         53.1770   14.5070   23.0680 O.2   476  ARG476     -0.2867
     83  CB        53.1180   14.6440   19.7950 C.3   476  ARG476      0.0307
     84  CG        53.9540   14.2490   18.5970 C.3   476  ARG476      0.0489
     85  CD        53.9290   15.2990   17.4860 C.3   476  ARG476      0.2205
     86  NE        54.6550   14.8020   16.3170 N.pl3 476  ARG476     -0.0865
     87  CZ        54.5020   15.2500   15.0730 C.cat 476  ARG476      0.5346
     88  NH1       53.6550   16.2350   14.8090 N.pl3 476  ARG476      0.1354
     89  NH2       55.2210   14.7180   14.0920 N.pl3 476  ARG476      0.1354
@<TRIPOS>BOND
     1     4     3    2
     2     3     2    1
     3     6     5    1
     4     6     7    1
     5     2     1    1
     6     2     5    1
     7     7     8    1
     8    13    12    2
     9    12    11    1
    10     8     9    1
    11    11    10    1
    12    11    14    1
    13    15    14    1
    14    15    16    1
    15    17    16    1
    16    17    18    1
    17    58    56    1
    18    57    56    1
    19    56    55    1
    20    54    53    2
    21    55    52    1
    22    52    53    1
    23    52    51    1
    24    37    36    2
    25    53    59   am
    26    73    71   ar
    27    73    74   ar
    28    89    87    1
    29    42    40   am
    30    76    74   ar
    31    76    78   ar
    32    46    45    2
    33    71    70   ar
    34    88    87    1
    35    74    72   ar
    36    36    35    1
    37    51    45   am
    38    87    86    2
    39    59    60    1
    40    38    35    1
    41    38    39    1
    42    60    63    1
    43    60    61    1
    44    45    44    1
    45    40    39    1
    46    40    41    2
    47    63    64    1
    48    78    77   ar
    49    35    34    1
    50    70    72   ar
    51    70    69    1
    52    72    75   ar
    53    43    44    1
    54    86    85    1
    55    65    61   am
    56    65    66    1
    57    61    62    2
    58    44    47    1
    59    77    75   ar
    60    69    66    1
    61    34    28   am
    62    66    67    1
    63    85    84    1
    64    29    28    2
    65    47    48    1
    66    28    27    1
    67    22    21    2
    68    84    83    1
    69    67    68    2
    70    48    50    1
    71    48    49    1
    72    24    23    1
    73    21    20    1
    74    27    26    1
    75    27    30    1
    76    83    80    1
    77    32    30    1
    78    30    31    1
    79    79    80    1
    80    23    20    1
    81    23    25    1
    82    31    33    1
    83    20    19    1
    84    80    81    1
    85    81    82    2
