@<TRIPOS>MOLECULE
tmp/5jwcA05.pdb
 143 135 0 0 0
SMALL
GASTEIGER

@<TRIPOS>ATOM
      1  N         62.0810    2.5380   27.1390 N.3    45  CYS45      -0.1235
      2  CA        61.3700    3.4240   28.0780 C.3    45  CYS45       0.1677
      3  C         60.1640    2.7570   28.7160 C.2    45  CYS45       0.2270
      4  O         59.7630    3.0890   29.8240 O.2    45  CYS45      -0.2867
      5  CB        60.9200    4.6870   27.3690 C.3    45  CYS45       0.0956
      6  SG        62.2800    5.7490   26.8980 S.3    45  CYS45      -0.0801
      7  N         59.1470    4.6950   32.0430 N.3    50  THR50      -0.1218
      8  CA        59.3950    6.1070   31.7380 C.3    50  THR50       0.1862
      9  C         58.3500    6.6760   30.7560 C.2    50  THR50       0.2287
     10  O         57.9550    7.8390   30.8540 O.2    50  THR50      -0.2866
     11  CB        60.8240    6.3140   31.1570 C.3    50  THR50       0.1770
     12  OG1       61.7990    6.0920   32.1830 O.3    50  THR50      -0.2211
     13  CG2       61.0010    7.7260   30.6190 C.3    50  THR50       0.0375
     14  N         67.7560    2.4990   31.7050 N.3   180  GLU180     -0.1245
     15  CA        66.4070    2.7660   32.2020 C.3   180  GLU180      0.1567
     16  C         66.1440    2.0680   33.5260 C.2   180  GLU180      0.2260
     17  O         65.5820    2.6680   34.4410 O.2   180  GLU180     -0.2867
     18  CB        65.3740    2.3270   31.1610 C.3   180  GLU180      0.0388
     19  CG        65.2320    3.3240   30.0060 C.3   180  GLU180      0.1160
     20  CD        64.5940    4.6280   30.4640 C.2   180  GLU180      0.3649
     21  OE1       64.7740    5.6550   29.7760 O.co2 180  GLU180     -0.2457
     22  OE2       63.8980    4.6200   31.5100 O.co2 180  GLU180     -0.2457
     23  N         68.1500    3.8660   36.2880 N.3   183  ASP183     -0.1239
     24  CA        67.4380    5.0570   36.7560 C.3   183  ASP183      0.1674
     25  C         66.2620    4.6830   37.6700 C.2   183  ASP183      0.2266
     26  O         66.0960    5.2470   38.7520 O.2   183  ASP183     -0.2867
     27  CB        66.9050    5.8850   35.5950 C.3   183  ASP183      0.1410
     28  CG        68.0080    6.5750   34.7860 C.2   183  ASP183      0.3668
     29  OD1       69.1920    6.5910   35.2020 O.co2 183  ASP183     -0.2456
     30  OD2       67.6620    7.1120   33.7140 O.co2 183  ASP183     -0.2456
     31  N         67.5870    3.4530   41.0060 N.3   186  ASN186     -0.1225
     32  CA        68.1400    4.5540   41.7830 C.3   186  ASN186      0.1785
     33  C         67.1260    5.5830   42.2410 C.2   186  ASN186      0.2597
     34  O         67.4230    6.3800   43.1160 O.2   186  ASN186     -0.2718
     35  CB        69.2290    5.2650   40.9860 C.3   186  ASN186      0.1169
     36  CG        70.5520    4.5460   41.0650 C.2   186  ASN186      0.2627
     37  OD1       70.8780    3.9620   42.0930 O.2   186  ASN186     -0.2716
     38  ND2       71.3110    4.5630   39.9790 N.am  186  ASN186     -0.0877
     39  N         65.9440    5.6040   41.6350 N.am  187  LYS187     -0.1980
     40  CA        64.9640    6.6040   42.0380 C.3   187  LYS187      0.1596
     41  C         63.7530    5.9920   42.7530 C.2   187  LYS187      0.2287
     42  O         63.7440    5.8940   43.9720 O.2   187  LYS187     -0.2864
     43  CB        64.4990    7.4190   40.8390 C.3   187  LYS187      0.0298
     44  CG        63.7240    8.6720   41.2430 C.3   187  LYS187      0.0038
     45  CD        63.2540    9.4590   40.0440 C.3   187  LYS187      0.0206
     46  CE        62.7700   10.8470   40.4450 C.3   187  LYS187      0.1093
     47  NZ        62.3530   11.6420   39.2510 N.3   187  LYS187     -0.1314
     48  N         77.5360    4.5160   37.6390 N.3   230  LEU230     -0.1245
     49  CA        76.2350    4.0920   38.1650 C.3   230  LEU230      0.1561
     50  C         76.3190    2.7120   38.8280 C.2   230  LEU230      0.2260
     51  O         75.3080    2.1730   39.2830 O.2   230  LEU230     -0.2867
     52  CB        75.1770    4.0510   37.0590 C.3   230  LEU230      0.0270
     53  CG        74.6290    5.4050   36.6140 C.3   230  LEU230      0.0019
     54  CD1       73.9950    5.3050   35.2340 C.3   230  LEU230      0.0001
     55  CD2       73.6360    5.9490   37.6570 C.3   230  LEU230      0.0001
     56  N         69.9810    6.8900   24.9820 N.3   437  TYR437     -0.1241
     57  CA        69.9400    7.2990   26.3820 C.3   437  TYR437      0.1605
     58  C         70.7890    6.3440   27.2230 C.2   437  TYR437      0.2264
     59  O         70.6230    5.1210   27.1350 O.2   437  TYR437     -0.2867
     60  CB        68.5020    7.3420   26.9140 C.3   437  TYR437      0.0534
     61  CG        68.4710    7.7570   28.3690 C.ar  437  TYR437     -0.0201
     62  CD1       68.7720    9.0630   28.7390 C.ar  437  TYR437     -0.0009
     63  CD2       68.1750    6.8420   29.3710 C.ar  437  TYR437     -0.0009
     64  CE1       68.7660    9.4560   30.0680 C.ar  437  TYR437      0.0417
     65  CE2       68.1780    7.2210   30.7160 C.ar  437  TYR437      0.0417
     66  CZ        68.4700    8.5320   31.0510 C.ar  437  TYR437      0.1957
     67  OH        68.4790    8.9420   32.3620 O.3   437  TYR437     -0.2866
     68  N         71.0810    8.4220   33.9520 N.3   440  ASN440     -0.1225
     69  CA        71.3610    9.5970   34.7700 C.3   440  ASN440      0.1785
     70  C         71.3940   10.8850   33.9590 C.2   440  ASN440      0.2597
     71  O         72.3420   11.6670   34.0680 O.2   440  ASN440     -0.2718
     72  CB        72.6880    9.4210   35.5210 C.3   440  ASN440      0.1169
     73  CG        72.8710   10.4580   36.6310 C.2   440  ASN440      0.2627
     74  OD1       71.9050   10.8590   37.2780 O.2   440  ASN440     -0.2716
     75  ND2       74.1030   10.9090   36.8290 N.am  440  ASN440     -0.0877
     76  N         70.3590   11.0640   33.1350 N.am  441  HIS441     -0.1975
     77  CA        70.1270   12.2640   32.3260 C.3   441  HIS441      0.1656
     78  C         71.0320   12.3580   31.1070 C.2   441  HIS441      0.2291
     79  O         70.9010   13.2900   30.3180 O.2   441  HIS441     -0.2864
     80  CB        70.2850   13.5400   33.1650 C.3   441  HIS441      0.0771
     81  CG        69.3820   13.5900   34.3550 C.ar  441  HIS441      0.0820
     82  ND1       69.6260   12.8730   35.5090 N.ar  441  HIS441     -0.2267
     83  CD2       68.2320   14.2660   34.5690 C.ar  441  HIS441      0.1154
     84  CE1       68.6650   13.1080   36.3800 C.ar  441  HIS441      0.1986
     85  NE2       67.8020   13.9460   35.8350 N.ar  441  HIS441     -0.2212
     86  N         69.4370   15.6120   27.2810 N.3   459  SER459     -0.1217
     87  CA        68.0990   15.0380   27.4180 C.3   459  SER459      0.1889
     88  C         67.0580   15.9030   26.7140 C.2   459  SER459      0.2288
     89  O         66.0590   15.3820   26.2260 O.2   459  SER459     -0.2866
     90  CB        67.7240   14.8470   28.8970 C.3   459  SER459      0.2089
     91  OG        67.5000   16.0980   29.5310 O.3   459  SER459     -0.2183
     92  N         67.2250   15.0240   23.0310 N.3   462  TRP462     -0.1227
     93  CA        66.5580   13.7490   22.8010 C.3   462  TRP462      0.1737
     94  C         65.0360   13.9720   22.6330 C.2   462  TRP462      0.2595
     95  O         64.4310   13.4740   21.6910 O.2   462  TRP462     -0.2718
     96  CB        66.8760   12.8180   23.9620 C.3   462  TRP462      0.0564
     97  CG        66.3760   11.4230   23.8890 C.ar  462  TRP462      0.0003
     98  CD1       67.0770   10.3230   23.4960 C.ar  462  TRP462      0.0946
     99  CD2       65.0780   10.9570   24.2890 C.ar  462  TRP462      0.0152
    100  NE1       66.2930    9.1990   23.6100 N.ar  462  TRP462     -0.2442
    101  CE2       65.0630    9.5550   24.0970 C.ar  462  TRP462      0.0810
    102  CE3       63.9280   11.5780   24.7820 C.ar  462  TRP462      0.0012
    103  CZ2       63.9400    8.7680   24.3800 C.ar  462  TRP462      0.0191
    104  CZ3       62.8100   10.7930   25.0750 C.ar  462  TRP462      0.0001
    105  CH2       62.8280    9.4030   24.8700 C.ar  462  TRP462      0.0015
    106  N         64.4350   14.7580   23.5220 N.am  463  LYS463     -0.1980
    107  CA        62.9850   15.0220   23.4600 C.3   463  LYS463      0.1596
    108  C         62.5760   15.7770   22.1890 C.2   463  LYS463      0.2287
    109  O         61.5810   15.4420   21.5360 O.2   463  LYS463     -0.2864
    110  CB        62.5580   15.8080   24.6950 C.3   463  LYS463      0.0298
    111  CG        62.8470   15.0500   25.9820 C.3   463  LYS463      0.0038
    112  CD        62.2620   15.7310   27.1960 C.3   463  LYS463      0.0206
    113  CE        62.6190   14.9110   28.4330 C.3   463  LYS463      0.1093
    114  NZ        62.1800   15.5620   29.6800 N.3   463  LYS463     -0.1314
    115  N         56.1580   12.7220   30.3820 N.3   483  PHE483     -0.1241
    116  CA        57.3080   13.3350   31.0420 C.3   483  PHE483      0.1605
    117  C         56.8630   14.2270   32.1990 C.2   483  PHE483      0.2264
    118  O         57.4990   14.2240   33.2500 O.2   483  PHE483     -0.2867
    119  CB        58.1760   14.0900   30.0300 C.3   483  PHE483      0.0534
    120  CG        59.1140   13.1810   29.2770 C.ar  483  PHE483     -0.0203
    121  CD1       60.0770   12.4510   29.9680 C.ar  483  PHE483     -0.0042
    122  CD2       59.0280   13.0350   27.8990 C.ar  483  PHE483     -0.0042
    123  CE1       60.9310   11.5940   29.3070 C.ar  483  PHE483     -0.0003
    124  CE2       59.8780   12.2020   27.2340 C.ar  483  PHE483     -0.0003
    125  CZ        60.8380   11.4710   27.9390 C.ar  483  PHE483     -0.0000
    126  N         55.8710   11.6600   34.9920 N.3   486  THR486     -0.1218
    127  CA        57.0380   11.0420   35.5950 C.3   486  THR486      0.1862
    128  C         57.7790   12.0330   36.4910 C.2   486  THR486      0.2287
    129  O         58.2210   11.6800   37.5800 O.2   486  THR486     -0.2866
    130  CB        57.9560   10.4890   34.5050 C.3   486  THR486      0.1770
    131  OG1       57.3330    9.3250   33.9530 O.3   486  THR486     -0.2211
    132  CG2       59.2830   10.0890   35.0590 C.3   486  THR486      0.0375
    133  N         57.5880    7.1230   38.2120 N.3   491  ARG491     -0.1245
    134  CA        57.1510    5.9760   37.4320 C.3   491  ARG491      0.1563
    135  C         56.1990    5.0790   38.2330 C.2   491  ARG491      0.2260
    136  O         56.3060    4.9800   39.4490 O.2   491  ARG491     -0.2867
    137  CB        58.3620    5.1880   36.9290 C.3   491  ARG491      0.0307
    138  CG        59.1410    5.9510   35.8530 C.3   491  ARG491      0.0489
    139  CD        60.4400    5.2500   35.5300 C.3   491  ARG491      0.2205
    140  NE        61.4520    5.6770   36.4600 N.pl3 491  ARG491     -0.0865
    141  CZ        62.5250    6.3800   36.1300 C.cat 491  ARG491      0.5346
    142  NH1       63.3710    6.7320   37.0780 N.pl3 491  ARG491      0.1354
    143  NH2       62.7610    6.6920   34.8600 N.pl3 491  ARG491      0.1354
@<TRIPOS>BOND
     1   109   108    2
     2    95    94    2
     3   108   107    1
     4    94    93    1
     5    94   106   am
     6    93    92    1
     7    93    96    1
     8   107   106    1
     9   107   110    1
    10    98   100   ar
    11    98    97   ar
    12   100   101   ar
    13    97    96    1
    14    97    99   ar
    15   101    99   ar
    16   101   103   ar
    17    99   102   ar
    18   103   105   ar
    19   110   111    1
    20   102   104   ar
    21   105   104   ar
    22    56    57    1
    23   111   112    1
    24    89    88    2
    25    57    60    1
    26    57    58    1
    27    88    87    1
    28     6     5    1
    29    60    61    1
    30    59    58    2
    31     1     2    1
    32   112   113    1
    33   124   122   ar
    34   124   125   ar
    35    86    87    1
    36     5     2    1
    37    87    90    1
    38   122   120   ar
    39   125   123   ar
    40     2     3    1
    41    61    62   ar
    42    61    63   ar
    43   113   114    1
    44     3     4    2
    45    62    64   ar
    46    90    91    1
    47   120   121   ar
    48   120   119    1
    49   123   121   ar
    50    63    65   ar
    51    21    20   ar
    52    19    20    1
    53    19    18    1
    54   119   116    1
    55    64    66   ar
    56    79    78    2
    57   115   116    1
    58    20    22   ar
    59    13    11    1
    60    65    66   ar
    61     9    10    2
    62     9     8    1
    63   116   117    1
    64    66    67    1
    65    78    77    1
    66    11     8    1
    67    11    12    1
    68    18    15    1
    69    14    15    1
    70     8     7    1
    71   117   118    2
    72    15    16    1
    73    77    76    1
    74    77    80    1
    75    76    70   am
    76    80    81    1
    77    16    17    2
    78    30    28   ar
    79    68    69    1
    80   131   130    1
    81    70    71    2
    82    70    69    1
    83    81    83   ar
    84    81    82   ar
    85   130   132    1
    86   130   127    1
    87    83    85   ar
    88    69    72    1
    89    28    29   ar
    90    28    27    1
    91   143   141    1
    92   126   127    1
    93    54    53    1
    94    82    84   ar
    95    72    73    1
    96   139   138    1
    97   139   140    1
    98   127   128    1
    99    27    24    1
   100    85    84   ar
   101   138   137    1
   102   141   140    2
   103   141   142    1
   104    23    24    1
   105   128   129    2
   106    53    52    1
   107    53    55    1
   108    73    75   am
   109    73    74    2
   110    24    25    1
   111   137   134    1
   112    52    49    1
   113   134   133    1
   114   134   135    1
   115    48    49    1
   116    25    26    2
   117    49    50    1
   118   135   136    2
   119    50    51    2
   120    47    46    1
   121    38    36   am
   122    45    46    1
   123    45    44    1
   124    43    44    1
   125    43    40    1
   126    35    36    1
   127    35    32    1
   128    31    32    1
   129    36    37    2
   130    39    40    1
   131    39    33   am
   132    32    33    1
   133    40    41    1
   134    33    34    2
   135    41    42    2
