@<TRIPOS>MOLECULE
tmp/5jweE00.pdb
 100 98 0 0 0
SMALL
GASTEIGER

@<TRIPOS>ATOM
      1  N        -30.0760   18.2460   17.3750 N.3    73  TRP73      -0.1241
      2  CA       -28.9480   19.1110   17.0370 C.3    73  TRP73       0.1605
      3  C        -29.0910   19.6780   15.6300 C.2    73  TRP73       0.2264
      4  O        -28.8960   20.8840   15.4010 O.2    73  TRP73      -0.2867
      5  CB       -27.6460   18.3300   17.1720 C.3    73  TRP73       0.0550
      6  CG       -26.3780   19.1420   16.9660 C.ar   73  TRP73       0.0003
      7  CD1      -25.5740   19.6600   17.9360 C.ar   73  TRP73       0.0946
      8  CD2      -25.7800   19.5170   15.7110 C.ar   73  TRP73       0.0152
      9  NE1      -24.5150   20.3290   17.3720 N.ar   73  TRP73      -0.2442
     10  CE2      -24.6160   20.2580   16.0090 C.ar   73  TRP73       0.0810
     11  CE3      -26.1140   19.2990   14.3700 C.ar   73  TRP73       0.0012
     12  CZ2      -23.7830   20.7800   15.0180 C.ar   73  TRP73       0.0191
     13  CZ3      -25.2920   19.8210   13.3870 C.ar   73  TRP73       0.0001
     14  CH2      -24.1360   20.5520   13.7160 C.ar   73  TRP73       0.0015
     15  N        -29.3940   23.5950   14.3870 N.3    77  SER77      -0.1217
     16  CA       -28.4090   24.1380   13.4580 C.3    77  SER77       0.1889
     17  C        -29.0730   24.6180   12.1720 C.2    77  SER77       0.2288
     18  O        -28.6960   25.6570   11.6230 O.2    77  SER77      -0.2866
     19  CB       -27.3330   23.0870   13.1810 C.3    77  SER77       0.2089
     20  OG       -26.6290   22.7400   14.3730 O.3    77  SER77      -0.2183
     21  N        -28.8110   28.3450   10.6620 N.3    81  LEU81      -0.1245
     22  CA       -28.2530   28.5780    9.3330 C.3    81  LEU81       0.1561
     23  C        -29.1840   29.4140    8.4670 C.2    81  LEU81       0.2260
     24  O        -28.7180   30.2470    7.6710 O.2    81  LEU81      -0.2867
     25  CB       -27.9550   27.2600    8.6410 C.3    81  LEU81       0.0270
     26  CG       -26.6380   26.7160    9.1570 C.3    81  LEU81       0.0019
     27  CD1      -26.6680   25.1710    9.1510 C.3    81  LEU81       0.0001
     28  CD2      -25.4730   27.3360    8.3740 C.3    81  LEU81       0.0001
     29  N        -28.1290   32.6560    9.5210 N.3    84  TYR84      -0.1241
     30  CA       -26.8320   33.0650    8.9960 C.3    84  TYR84       0.1605
     31  C        -26.9310   33.4920    7.5430 C.2    84  TYR84       0.2264
     32  O        -26.1760   34.3540    7.0910 O.2    84  TYR84      -0.2867
     33  CB       -25.8260   31.9210    9.1190 C.3    84  TYR84       0.0534
     34  CG       -25.5720   31.4370   10.5230 C.ar   84  TYR84      -0.0201
     35  CD1      -26.0050   32.1660   11.6280 C.ar   84  TYR84      -0.0009
     36  CD2      -24.8510   30.2780   10.7430 C.ar   84  TYR84      -0.0009
     37  CE1      -25.7620   31.7280   12.9030 C.ar   84  TYR84       0.0417
     38  CE2      -24.5960   29.8370   12.0090 C.ar   84  TYR84       0.0417
     39  CZ       -25.0530   30.5610   13.0890 C.ar   84  TYR84       0.1957
     40  OH       -24.7950   30.1050   14.3570 O.3    84  TYR84      -0.2866
     41  N        -28.6870   20.1130    5.4530 N.3    95  LEU95      -0.1245
     42  CA       -27.4960   20.1680    6.2730 C.3    95  LEU95       0.1561
     43  C        -26.9540   18.7480    6.3940 C.2    95  LEU95       0.2260
     44  O        -27.6940   17.8250    6.7490 O.2    95  LEU95      -0.2867
     45  CB       -27.8110   20.8080    7.6310 C.3    95  LEU95       0.0270
     46  CG       -26.8020   20.6260    8.7550 C.3    95  LEU95       0.0019
     47  CD1      -25.5020   21.3420    8.4020 C.3    95  LEU95       0.0001
     48  CD2      -27.3460   21.1400   10.0870 C.3    95  LEU95       0.0001
     49  N        -19.0140   19.5350    7.7910 N.3   116  PHE116     -0.1241
     50  CA       -20.4050   19.8870    7.5480 C.3   116  PHE116      0.1605
     51  C        -20.5640   20.6600    6.2450 C.2   116  PHE116      0.2264
     52  O        -19.6820   21.4530    5.8590 O.2   116  PHE116     -0.2867
     53  CB       -20.9550   20.7570    8.6510 C.3   116  PHE116      0.0534
     54  CG       -21.0180   20.0920    9.9650 C.ar  116  PHE116     -0.0203
     55  CD1      -19.9660   20.1890   10.8500 C.ar  116  PHE116     -0.0042
     56  CD2      -22.1500   19.3910   10.3370 C.ar  116  PHE116     -0.0042
     57  CE1      -20.0440   19.5880   12.0890 C.ar  116  PHE116     -0.0003
     58  CE2      -22.2370   18.7840   11.5700 C.ar  116  PHE116     -0.0003
     59  CZ       -21.1830   18.8760   12.4420 C.ar  116  PHE116     -0.0000
     60  N        -19.2130   23.7980    4.3230 N.3   123  TYR123     -0.1227
     61  CA       -19.4910   24.7720    5.3640 C.3   123  TYR123      0.1736
     62  C        -18.3380   24.8630    6.3560 C.2   123  TYR123      0.2595
     63  O        -17.6880   25.9020    6.4330 O.2   123  TYR123     -0.2718
     64  CB       -20.7960   24.4330    6.0720 C.3   123  TYR123      0.0548
     65  CG       -21.1800   25.4850    7.0770 C.ar  123  TYR123     -0.0200
     66  CD1      -21.6810   26.7150    6.6560 C.ar  123  TYR123     -0.0009
     67  CD2      -21.0340   25.2650    8.4400 C.ar  123  TYR123     -0.0009
     68  CE1      -22.0420   27.6940    7.5650 C.ar  123  TYR123      0.0417
     69  CE2      -21.3970   26.2490    9.3660 C.ar  123  TYR123      0.0417
     70  CZ       -21.8990   27.4580    8.9160 C.ar  123  TYR123      0.1957
     71  OH       -22.2520   28.4440    9.8110 O.3   123  TYR123     -0.2866
     72  N        -18.0540   23.8090    7.1230 N.am  124  ILE124     -0.1980
     73  CA       -16.9440   23.8930    8.0660 C.3   124  ILE124      0.1595
     74  C        -16.3560   22.5050    8.2810 C.2   124  ILE124      0.2287
     75  O        -17.0510   21.4930    8.1860 O.2   124  ILE124     -0.2864
     76  CB       -17.3950   24.5430    9.3950 C.3   124  ILE124      0.0276
     77  CG1      -16.1900   25.0310   10.2090 C.3   124  ILE124      0.0022
     78  CG2      -18.2360   23.5820   10.2000 C.3   124  ILE124      0.0022
     79  CD1      -16.5680   25.7720   11.5070 C.3   124  ILE124      0.0001
     80  N        -19.7310   30.3190   13.1800 N.3   143  THR143     -0.1218
     81  CA       -19.6780   29.0360   13.8690 C.3   143  THR143      0.1862
     82  C        -18.2600   28.7140   14.3170 C.2   143  THR143      0.2287
     83  O        -18.0610   28.1500   15.3950 O.2   143  THR143     -0.2866
     84  CB       -20.2270   27.9190   12.9750 C.3   143  THR143      0.1770
     85  OG1      -21.5480   28.2490   12.5300 O.3   143  THR143     -0.2211
     86  CG2      -20.2880   26.6090   13.7360 C.3   143  THR143      0.0375
     87  N        -17.3510   28.1060   18.1500 N.3   147  TRP147     -0.1241
     88  CA       -16.8670   26.7820   18.5170 C.3   147  TRP147      0.1605
     89  C        -15.4360   26.7610   19.0470 C.2   147  TRP147      0.2264
     90  O        -15.0370   25.7720   19.6800 O.2   147  TRP147     -0.2867
     91  CB       -16.9620   25.8670   17.2870 C.3   147  TRP147      0.0550
     92  CG       -18.3760   25.3750   16.9750 C.ar  147  TRP147      0.0003
     93  CD1      -19.5290   25.6990   17.6340 C.ar  147  TRP147      0.0946
     94  CD2      -18.7400   24.3850   16.0010 C.ar  147  TRP147      0.0152
     95  NE1      -20.5880   25.0010   17.1030 N.ar  147  TRP147     -0.2442
     96  CE2      -20.1310   24.1830   16.1070 C.ar  147  TRP147      0.0810
     97  CE3      -18.0240   23.6510   15.0490 C.ar  147  TRP147      0.0012
     98  CZ2      -20.8200   23.2890   15.2960 C.ar  147  TRP147      0.0191
     99  CZ3      -18.7120   22.7600   14.2380 C.ar  147  TRP147      0.0001
    100  CH2      -20.0970   22.5860   14.3710 C.ar  147  TRP147      0.0015
@<TRIPOS>BOND
     1    60    61    1
     2    61    64    1
     3    61    62    1
     4    41    42    1
     5    52    51    2
     6    64    65    1
     7    51    50    1
     8    42    43    1
     9    42    45    1
    10    62    63    2
    11    62    72   am
    12    43    44    2
    13    66    65   ar
    14    66    68   ar
    15    65    67   ar
    16    32    31    2
    17    72    73    1
    18    31    30    1
    19    50    49    1
    20    50    53    1
    21    68    70   ar
    22    45    46    1
    23    24    23    2
    24    73    74    1
    25    73    76    1
    26    75    74    2
    27    28    26    1
    28    47    46    1
    29    67    69   ar
    30    23    22    1
    31    25    26    1
    32    25    22    1
    33    53    54    1
    34    46    48    1
    35    70    69   ar
    36    70    71    1
    37    30    33    1
    38    30    29    1
    39    33    34    1
    40    27    26    1
    41    22    21    1
    42    76    78    1
    43    76    77    1
    44    54    56   ar
    45    54    55   ar
    46    77    79    1
    47    56    58   ar
    48    34    36   ar
    49    34    35   ar
    50    36    38   ar
    51    55    57   ar
    52    58    59   ar
    53    18    17    2
    54    35    37   ar
    55    38    39   ar
    56    57    59   ar
    57    17    16    1
    58    85    84    1
    59    37    39   ar
    60    84    86    1
    61    84    81    1
    62    39    40    1
    63    80    81    1
    64    19    16    1
    65    19    20    1
    66    13    14   ar
    67    13    11   ar
    68    16    15    1
    69    14    12   ar
    70    81    82    1
    71    99   100   ar
    72    99    97   ar
    73    82    83    2
    74    11     8   ar
    75   100    98   ar
    76    12    10   ar
    77    97    94   ar
    78    98    96   ar
    79     4     3    2
    80     3     2    1
    81     8    10   ar
    82     8     6   ar
    83    94    96   ar
    84    94    92   ar
    85    10     9   ar
    86    96    95   ar
    87     6     5    1
    88     6     7   ar
    89    92    91    1
    90    92    93   ar
    91     2     5    1
    92     2     1    1
    93    95    93   ar
    94    91    88    1
    95     9     7   ar
    96    87    88    1
    97    88    89    1
    98    89    90    2
