@<TRIPOS>MOLECULE
tmp/5jwgA01.pdb
 126 123 0 0 0
SMALL
GASTEIGER

@<TRIPOS>ATOM
      1  N          6.5990  -23.5030  -12.4470 N.3    48  GLY48      -0.1210
      2  CA         6.4210  -24.0550  -13.7830 C.3    48  GLY48       0.1956
      3  C          6.1270  -23.0840  -14.9190 C.2    48  GLY48       0.2612
      4  O          5.6450  -23.4910  -15.9720 O.2    48  GLY48      -0.2717
      5  N          6.3870  -21.8010  -14.6920 N.am   49  CYS49      -0.1970
      6  CA         6.3310  -20.7540  -15.7280 C.3    49  CYS49       0.1712
      7  C          7.5960  -19.9190  -15.7020 C.2    49  CYS49       0.2296
      8  O          8.4330  -20.0740  -14.8260 O.2    49  CYS49      -0.2864
      9  CB         5.1130  -19.7880  -15.5690 C.3    49  CYS49       0.0983
     10  SG         3.4390  -20.2070  -16.2090 S.3    49  CYS49      -0.0798
     11  N         -2.3160  -16.6770  -17.9700 N.3    65  HIS65      -0.1241
     12  CA        -2.6090  -18.0430  -17.5270 C.3    65  HIS65       0.1621
     13  C         -1.5700  -18.5670  -16.5110 C.2    65  HIS65       0.2264
     14  O         -1.8390  -19.5120  -15.7770 O.2    65  HIS65      -0.2867
     15  CB        -2.7530  -18.9940  -18.7350 C.3    65  HIS65       0.0745
     16  CG        -1.4570  -19.4680  -19.3140 C.ar   65  HIS65       0.0817
     17  ND1       -0.9270  -18.9420  -20.4740 N.ar   65  HIS65      -0.2268
     18  CD2       -0.6160  -20.4580  -18.9230 C.ar   65  HIS65       0.1154
     19  CE1        0.1990  -19.5760  -20.7640 C.ar   65  HIS65       0.1986
     20  NE2        0.4090  -20.4960  -19.8390 N.ar   65  HIS65      -0.2212
     21  N         -3.7650  -23.6250  -28.2660 N.3   198  TRP198     -0.1241
     22  CA        -2.9010  -24.3650  -29.1920 C.3   198  TRP198      0.1605
     23  C         -3.1550  -24.0080  -30.6590 C.2   198  TRP198      0.2264
     24  O         -2.9290  -24.8260  -31.5610 O.2   198  TRP198     -0.2867
     25  CB        -3.0400  -25.8830  -28.9850 C.3   198  TRP198      0.0550
     26  CG        -2.7160  -26.2880  -27.5550 C.ar  198  TRP198      0.0003
     27  CD1       -3.6060  -26.6600  -26.5780 C.ar  198  TRP198      0.0946
     28  CD2       -1.4180  -26.3110  -26.9380 C.ar  198  TRP198      0.0152
     29  NE1       -2.9380  -26.9310  -25.4040 N.ar  198  TRP198     -0.2442
     30  CE2       -1.5950  -26.7250  -25.6010 C.ar  198  TRP198      0.0810
     31  CE3       -0.1220  -26.0330  -27.4010 C.ar  198  TRP198      0.0012
     32  CZ2       -0.5230  -26.8690  -24.7110 C.ar  198  TRP198      0.0191
     33  CZ3        0.9540  -26.1780  -26.5040 C.ar  198  TRP198      0.0001
     34  CH2        0.7360  -26.5870  -25.1800 C.ar  198  TRP198      0.0015
     35  N         -6.1750  -27.6680  -20.9390 N.3   312  ASN312     -0.1240
     36  CA        -4.9350  -27.3300  -21.6120 C.3   312  ASN312      0.1653
     37  C         -4.1580  -28.5970  -21.9650 C.2   312  ASN312      0.2266
     38  O         -3.6480  -28.7340  -23.0760 O.2   312  ASN312     -0.2867
     39  CB        -4.0760  -26.3860  -20.7470 C.3   312  ASN312      0.1155
     40  CG        -2.8280  -25.9300  -21.4730 C.2   312  ASN312      0.2627
     41  OD1       -2.9020  -25.4780  -22.6220 O.2   312  ASN312     -0.2716
     42  ND2       -1.6640  -26.0690  -20.8210 N.am  312  ASN312     -0.0877
     43  N         -3.5930  -30.4430  -25.5700 N.3   316  ARG316     -0.1245
     44  CA        -2.1990  -30.6740  -25.9300 C.3   316  ARG316      0.1563
     45  C         -2.0360  -32.1320  -26.3630 C.2   316  ARG316      0.2260
     46  O         -1.3820  -32.4180  -27.3580 O.2   316  ARG316     -0.2867
     47  CB        -1.2280  -30.3440  -24.7810 C.3   316  ARG316      0.0307
     48  CG         0.2490  -30.4490  -25.2040 C.3   316  ARG316      0.0489
     49  CD         1.2470  -30.1160  -24.0750 C.3   316  ARG316      0.2205
     50  NE         1.0820  -31.0080  -22.9320 N.pl3 316  ARG316     -0.0865
     51  CZ         0.7610  -30.6030  -21.7110 C.cat 316  ARG316      0.5346
     52  NH1        0.5880  -29.3040  -21.4660 N.pl3 316  ARG316      0.1354
     53  NH2        0.6160  -31.4940  -20.7320 N.pl3 316  ARG316      0.1354
     54  N         10.0930  -23.6930  -28.2430 N.3   627  THR627     -0.1203
     55  CA         9.6310  -23.6130  -26.8680 C.3   627  THR627      0.1994
     56  C          8.7370  -24.7880  -26.5160 C.2   627  THR627      0.2619
     57  O          8.3220  -25.5320  -27.3950 O.2   627  THR627     -0.2717
     58  CB         8.8530  -22.2960  -26.6200 C.3   627  THR627      0.1784
     59  OG1        7.7410  -22.2180  -27.5200 O.3   627  THR627     -0.2211
     60  CG2        9.7460  -21.1250  -26.8810 C.3   627  THR627      0.0376
     61  N          8.4400  -24.9410  -25.2270 N.am  628  THR628     -0.1938
     62  CA         7.4630  -25.9300  -24.7570 C.3   628  THR628      0.2028
     63  C          6.8800  -25.4940  -23.3890 C.2   628  THR628      0.2643
     64  O          7.2590  -24.4360  -22.8530 O.2   628  THR628     -0.2714
     65  CB         8.1170  -27.3540  -24.6590 C.3   628  THR628      0.1808
     66  OG1        7.1440  -28.3380  -24.2700 O.3   628  THR628     -0.2208
     67  CG2        9.2480  -27.3540  -23.6500 C.3   628  THR628      0.0379
     68  N          5.9480  -26.2810  -22.8450 N.am  629  GLY629     -0.1939
     69  CA         5.3970  -26.0400  -21.5200 C.3   629  GLY629      0.2014
     70  C          6.4870  -25.6430  -20.5270 C.2   629  GLY629      0.2639
     71  O          7.5610  -26.2580  -20.5010 O.2   629  GLY629     -0.2714
     72  N          6.2320  -24.6070  -19.7270 N.am  630  GLY630     -0.1939
     73  CA         7.2760  -24.0400  -18.8910 C.3   630  GLY630      0.2014
     74  C          7.8430  -22.7450  -19.4750 C.2   630  GLY630      0.2639
     75  O          8.3120  -21.8710  -18.7220 O.2   630  GLY630     -0.2714
     76  N          7.8040  -22.6240  -20.8070 N.am  631  ASN631     -0.1958
     77  CA         8.2200  -21.3890  -21.4890 C.3   631  ASN631      0.1819
     78  C          7.1640  -20.2820  -21.5020 C.2   631  ASN631      0.2621
     79  O          7.4230  -19.1940  -22.0240 O.2   631  ASN631     -0.2715
     80  CB         8.6150  -21.6610  -22.9440 C.3   631  ASN631      0.1195
     81  CG        10.0710  -22.0300  -23.1000 C.2   631  ASN631      0.2630
     82  OD1       10.4010  -23.0400  -23.7250 O.2   631  ASN631     -0.2716
     83  ND2       10.9540  -21.1940  -22.5690 N.am  631  ASN631     -0.0877
     84  N          5.9730  -20.5550  -20.9700 N.am  632  ALA632     -0.1977
     85  CA         4.9730  -19.4970  -20.8220 C.3   632  ALA632      0.1597
     86  C          5.5570  -18.3530  -20.0040 C.2   632  ALA632      0.2287
     87  O          6.1870  -18.5820  -18.9680 O.2   632  ALA632     -0.2864
     88  CB         3.7140  -20.0120  -20.1530 C.3   632  ALA632      0.0319
     89  N          6.2750  -14.8020  -24.6540 N.3   647  ASN647     -0.1225
     90  CA         5.8520  -16.0820  -25.1890 C.3   647  ASN647      0.1785
     91  C          4.6910  -16.6680  -24.3840 C.2   647  ASN647      0.2597
     92  O          4.7030  -16.5770  -23.1500 O.2   647  ASN647     -0.2718
     93  CB         7.0320  -17.0580  -25.1970 C.3   647  ASN647      0.1169
     94  CG         6.6290  -18.4520  -25.6610 C.2   647  ASN647      0.2627
     95  OD1        6.4050  -18.6840  -26.8500 O.2   647  ASN647     -0.2716
     96  ND2        6.5400  -19.3790  -24.7270 N.am  647  ASN647     -0.0877
     97  N          3.6940  -17.2680  -25.0400 N.am  648  PHE648     -0.1962
     98  CA         2.6460  -17.8980  -24.2400 C.3   648  PHE648      0.1771
     99  C          2.0700  -19.2180  -24.7480 C.2   648  PHE648      0.2620
    100  O          1.3860  -19.8950  -23.9800 O.2   648  PHE648     -0.2715
    101  CB         1.4740  -16.9190  -23.9700 C.3   648  PHE648      0.0574
    102  CG         0.6430  -16.5220  -25.1770 C.ar  648  PHE648     -0.0200
    103  CD1        0.9990  -15.4190  -25.9570 C.ar  648  PHE648     -0.0042
    104  CD2       -0.5630  -17.1630  -25.4470 C.ar  648  PHE648     -0.0042
    105  CE1        0.2130  -15.0060  -27.0230 C.ar  648  PHE648     -0.0003
    106  CE2       -1.3660  -16.7580  -26.5130 C.ar  648  PHE648     -0.0003
    107  CZ        -0.9790  -15.6690  -27.3060 C.ar  648  PHE648     -0.0000
    108  N          2.3620  -19.6100  -25.9900 N.am  649  ASP649     -0.1957
    109  CA         1.8040  -20.8580  -26.5340 C.3   649  ASP649      0.1840
    110  C          2.6110  -21.3830  -27.7350 C.2   649  ASP649      0.2621
    111  O          3.6280  -20.7980  -28.1210 O.2   649  ASP649     -0.2715
    112  CB         0.3340  -20.6490  -26.9460 C.3   649  ASP649      0.1450
    113  CG        -0.5260  -21.9110  -26.7600 C.2   649  ASP649      0.3671
    114  OD1        0.0210  -22.9940  -26.4680 O.co2 649  ASP649     -0.2456
    115  OD2       -1.7580  -21.8200  -26.9060 O.co2 649  ASP649     -0.2456
    116  N          2.1530  -22.4960  -28.3050 N.am  650  ARG650     -0.1977
    117  CA         2.6500  -22.9880  -29.5830 C.3   650  ARG650      0.1597
    118  C          1.4960  -23.1610  -30.5680 C.2   650  ARG650      0.2287
    119  O          0.3320  -23.2950  -30.1760 O.2   650  ARG650     -0.2864
    120  CB         3.3810  -24.3160  -29.4110 C.3   650  ARG650      0.0334
    121  CG         4.8480  -24.2280  -29.0080 C.3   650  ARG650      0.0492
    122  CD         5.3480  -25.6370  -28.6490 C.3   650  ARG650      0.2205
    123  NE         4.7910  -26.0570  -27.3660 N.pl3 650  ARG650     -0.0865
    124  CZ         4.7520  -27.3040  -26.9060 C.cat 650  ARG650      0.5346
    125  NH1        5.2300  -28.2940  -27.6460 N.pl3 650  ARG650      0.1354
    126  NH2        4.2330  -27.5580  -25.6950 N.pl3 650  ARG650      0.1354
@<TRIPOS>BOND
     1    24    23    2
     2    23    22    1
     3   118   119    2
     4   118   117    1
     5   117   120    1
     6   117   116    1
     7   120   121    1
     8    22    25    1
     9    22    21    1
    10   121   122    1
    11    25    26    1
    12   122   123    1
    13   116   110   am
    14    54    55    1
    15   111   110    2
    16   110   109    1
    17   125   124    1
    18    26    28   ar
    19    26    27   ar
    20    59    58    1
    21    31    28   ar
    22    31    33   ar
    23    57    56    2
    24   123   124    2
    25    46    45    2
    26   107   105   ar
    27   107   106   ar
    28   105   103   ar
    29   112   113    1
    30   112   109    1
    31    28    30   ar
    32   115   113   ar
    33   124   126    1
    34    60    58    1
    35    55    58    1
    36    55    56    1
    37    95    94    2
    38   113   114   ar
    39    27    29   ar
    40   109   108    1
    41    56    61   am
    42   106   104   ar
    43    33    34   ar
    44    45    44    1
    45   108    99   am
    46   103   102   ar
    47    44    43    1
    48    44    47    1
    49    94    93    1
    50    94    96   am
    51    30    29   ar
    52    30    32   ar
    53   104   102   ar
    54    61    62    1
    55    48    47    1
    56    48    49    1
    57    93    90    1
    58    90    89    1
    59    90    91    1
    60    34    32   ar
    61   102   101    1
    62    97    91   am
    63    97    98    1
    64    62    65    1
    65    62    63    1
    66    99    98    1
    67    99   100    2
    68    65    66    1
    69    65    67    1
    70    91    92    2
    71    98   101    1
    72    49    50    1
    73    82    81    2
    74    63    64    2
    75    63    68   am
    76    81    80    1
    77    81    83   am
    78    38    37    2
    79    80    77    1
    80    50    51    2
    81    68    69    1
    82    41    40    2
    83    79    78    2
    84    37    36    1
    85    51    52    1
    86    51    53    1
    87    36    35    1
    88    36    39    1
    89    69    70    1
    90    78    77    1
    91    78    84   am
    92    77    76    1
    93    40    42   am
    94    40    39    1
    95    84    85    1
    96    85    88    1
    97    85    86    1
    98    76    74   am
    99    19    17   ar
   100    19    20   ar
   101    70    71    2
   102    70    72   am
   103    17    16   ar
   104    86    87    2
   105    20    18   ar
   106    72    73    1
   107    74    73    1
   108    74    75    2
   109    16    18   ar
   110    16    15    1
   111    15    12    1
   112    11    12    1
   113    12    13    1
   114    13    14    2
   115    10     9    1
   116     4     3    2
   117     6     7    1
   118     6     9    1
   119     6     5    1
   120     7     8    2
   121     3     5   am
   122     3     2    1
   123     2     1    1
