@<TRIPOS>MOLECULE
tmp/5jwgA00.pdb
 135 127 0 0 0
SMALL
GASTEIGER

@<TRIPOS>ATOM
      1  N         -2.3160  -16.6770  -17.9700 N.3    65  HIS65      -0.1241
      2  CA        -2.6090  -18.0430  -17.5270 C.3    65  HIS65       0.1621
      3  C         -1.5700  -18.5670  -16.5110 C.2    65  HIS65       0.2264
      4  O         -1.8390  -19.5120  -15.7770 O.2    65  HIS65      -0.2867
      5  CB        -2.7530  -18.9940  -18.7350 C.3    65  HIS65       0.0745
      6  CG        -1.4570  -19.4680  -19.3140 C.ar   65  HIS65       0.0817
      7  ND1       -0.9270  -18.9420  -20.4740 N.ar   65  HIS65      -0.2268
      8  CD2       -0.6160  -20.4580  -18.9230 C.ar   65  HIS65       0.1154
      9  CE1        0.1990  -19.5760  -20.7640 C.ar   65  HIS65       0.1986
     10  NE2        0.4090  -20.4960  -19.8390 N.ar   65  HIS65      -0.2212
     11  N         -7.5710  -14.4510  -21.8750 N.3   190  LYS190     -0.1245
     12  CA        -7.8150  -15.7380  -22.5230 C.3   190  LYS190      0.1561
     13  C         -8.9700  -15.6920  -23.5050 C.2   190  LYS190      0.2260
     14  O         -9.8720  -16.5270  -23.4530 O.2   190  LYS190     -0.2867
     15  CB        -8.0550  -16.8340  -21.4830 C.3   190  LYS190      0.0271
     16  CG        -9.0860  -16.5270  -20.4410 C.3   190  LYS190      0.0035
     17  CD        -9.0800  -17.6020  -19.3530 C.3   190  LYS190      0.0206
     18  CE        -8.9200  -18.9940  -19.9330 C.3   190  LYS190      0.1093
     19  NZ        -9.3470  -20.0380  -18.9530 N.3   190  LYS190     -0.1314
     20  N        -10.5480  -18.9640  -25.2960 N.3   193  SER193     -0.1202
     21  CA        -9.8270  -19.8640  -24.3790 C.3   193  SER193      0.2020
     22  C         -9.6700  -21.3420  -24.8070 C.2   193  SER193      0.2618
     23  O         -8.5660  -21.8600  -24.8040 O.2   193  SER193     -0.2717
     24  CB       -10.4940  -19.8340  -22.9970 C.3   193  SER193      0.2103
     25  OG       -11.6070  -20.6960  -22.9450 O.3   193  SER193     -0.2182
     26  N        -10.7600  -22.0230  -25.1470 N.am  194  ASP194     -0.1973
     27  CA       -10.6680  -23.4390  -25.5030 C.3   194  ASP194      0.1709
     28  C        -10.3580  -23.6300  -26.9880 C.2   194  ASP194      0.2293
     29  O         -9.3710  -24.2600  -27.3580 O.2   194  ASP194     -0.2864
     30  CB       -11.9650  -24.1730  -25.1420 C.3   194  ASP194      0.1436
     31  CG       -12.1380  -24.3610  -23.6380 C.2   194  ASP194      0.3671
     32  OD1      -11.3760  -23.7490  -22.8480 O.co2 194  ASP194     -0.2456
     33  OD2      -13.0510  -25.1230  -23.2460 O.co2 194  ASP194     -0.2456
     34  N         -6.9800  -22.0700  -28.0760 N.3   197  ASN197     -0.1225
     35  CA        -5.8310  -22.6590  -27.3800 C.3   197  ASN197      0.1785
     36  C         -5.1030  -23.6200  -28.3250 C.2   197  ASN197      0.2597
     37  O         -5.7580  -24.3110  -29.1080 O.2   197  ASN197     -0.2718
     38  CB        -6.3040  -23.3820  -26.1160 C.3   197  ASN197      0.1169
     39  CG        -5.1690  -23.7730  -25.1900 C.2   197  ASN197      0.2627
     40  OD1       -4.0290  -23.3690  -25.3830 O.2   197  ASN197     -0.2716
     41  ND2       -5.4870  -24.5630  -24.1640 N.am  197  ASN197     -0.0877
     42  N         -3.7650  -23.6250  -28.2660 N.am  198  TRP198     -0.1976
     43  CA        -2.9010  -24.3650  -29.1920 C.3   198  TRP198      0.1640
     44  C         -3.1550  -24.0080  -30.6590 C.2   198  TRP198      0.2290
     45  O         -2.9290  -24.8260  -31.5610 O.2   198  TRP198     -0.2864
     46  CB        -3.0400  -25.8830  -28.9850 C.3   198  TRP198      0.0576
     47  CG        -2.7160  -26.2880  -27.5550 C.ar  198  TRP198      0.0006
     48  CD1       -3.6060  -26.6600  -26.5780 C.ar  198  TRP198      0.0946
     49  CD2       -1.4180  -26.3110  -26.9380 C.ar  198  TRP198      0.0152
     50  NE1       -2.9380  -26.9310  -25.4040 N.ar  198  TRP198     -0.2442
     51  CE2       -1.5950  -26.7250  -25.6010 C.ar  198  TRP198      0.0810
     52  CE3       -0.1220  -26.0330  -27.4010 C.ar  198  TRP198      0.0012
     53  CZ2       -0.5230  -26.8690  -24.7110 C.ar  198  TRP198      0.0191
     54  CZ3        0.9540  -26.1780  -26.5040 C.ar  198  TRP198      0.0001
     55  CH2        0.7360  -26.5870  -25.1800 C.ar  198  TRP198      0.0015
     56  N         -3.7570  -16.2950  -33.5450 N.3   202  ARG202     -0.1245
     57  CA        -4.1430  -16.1060  -32.1520 C.3   202  ARG202      0.1563
     58  C         -4.3990  -14.6020  -31.8950 C.2   202  ARG202      0.2260
     59  O         -3.8260  -13.7480  -32.5760 O.2   202  ARG202     -0.2867
     60  CB        -3.0480  -16.6640  -31.2290 C.3   202  ARG202      0.0307
     61  CG        -3.4670  -16.8340  -29.7670 C.3   202  ARG202      0.0489
     62  CD        -4.6000  -17.8770  -29.5730 C.3   202  ARG202      0.2205
     63  NE        -4.5610  -18.4380  -28.2180 N.pl3 202  ARG202     -0.0865
     64  CZ        -3.7270  -19.4100  -27.8450 C.cat 202  ARG202      0.5346
     65  NH1       -2.8810  -19.9390  -28.7310 N.pl3 202  ARG202      0.1354
     66  NH2       -3.7340  -19.8690  -26.5990 N.pl3 202  ARG202      0.1354
     67  N         -2.4680  -12.3790  -23.4870 N.3   206  ASP206     -0.1239
     68  CA        -2.1140  -13.2740  -22.3860 C.3   206  ASP206      0.1674
     69  C         -0.9690  -12.7420  -21.5180 C.2   206  ASP206      0.2266
     70  O          0.1760  -13.1590  -21.6760 O.2   206  ASP206     -0.2867
     71  CB        -1.7620  -14.6720  -22.9480 C.3   206  ASP206      0.1410
     72  CG        -1.7400  -15.7560  -21.8740 C.2   206  ASP206      0.3668
     73  OD1       -1.7560  -15.4200  -20.6750 O.co2 206  ASP206     -0.2456
     74  OD2       -1.6840  -16.9480  -22.2270 O.co2 206  ASP206     -0.2456
     75  N         -9.2010  -24.9220  -16.5270 N.3   308  ALA308     -0.1245
     76  CA        -8.2640  -24.3920  -17.5180 C.3   308  ALA308      0.1562
     77  C         -7.0340  -25.3010  -17.6480 C.2   308  ALA308      0.2260
     78  O         -6.5390  -25.5520  -18.7400 O.2   308  ALA308     -0.2867
     79  CB        -7.8360  -22.9370  -17.1510 C.3   308  ALA308      0.0290
     80  N         -8.2220  -28.7430  -19.3840 N.3   311  GLN311     -0.1231
     81  CA        -8.4510  -28.5170  -20.8110 C.3   311  GLN311      0.1698
     82  C         -7.1340  -28.3430  -21.5680 C.2   311  GLN311      0.2592
     83  O         -7.0020  -28.7890  -22.7090 O.2   311  GLN311     -0.2718
     84  CB        -9.3400  -27.2770  -21.0250 C.3   311  GLN311      0.0381
     85  CG        -9.8680  -27.0920  -22.4740 C.3   311  GLN311      0.0905
     86  CD        -8.8530  -26.4270  -23.4220 C.2   311  GLN311      0.2608
     87  OE1       -7.9200  -25.7500  -22.9860 O.2   311  GLN311     -0.2717
     88  NE2       -9.0360  -26.6330  -24.7180 N.am  311  GLN311     -0.0878
     89  N         -6.1750  -27.6680  -20.9390 N.am  312  ASN312     -0.1974
     90  CA        -4.9350  -27.3300  -21.6120 C.3   312  ASN312      0.1688
     91  C         -4.1580  -28.5970  -21.9650 C.2   312  ASN312      0.2292
     92  O         -3.6480  -28.7340  -23.0760 O.2   312  ASN312     -0.2864
     93  CB        -4.0760  -26.3860  -20.7470 C.3   312  ASN312      0.1181
     94  CG        -2.8280  -25.9300  -21.4730 C.2   312  ASN312      0.2629
     95  OD1       -2.9020  -25.4780  -22.6220 O.2   312  ASN312     -0.2716
     96  ND2       -1.6640  -26.0690  -20.8210 N.am  312  ASN312     -0.0877
     97  N         -3.5930  -30.4430  -25.5700 N.3   316  ARG316     -0.1245
     98  CA        -2.1990  -30.6740  -25.9300 C.3   316  ARG316      0.1563
     99  C         -2.0360  -32.1320  -26.3630 C.2   316  ARG316      0.2260
    100  O         -1.3820  -32.4180  -27.3580 O.2   316  ARG316     -0.2867
    101  CB        -1.2280  -30.3440  -24.7810 C.3   316  ARG316      0.0307
    102  CG         0.2490  -30.4490  -25.2040 C.3   316  ARG316      0.0489
    103  CD         1.2470  -30.1160  -24.0750 C.3   316  ARG316      0.2205
    104  NE         1.0820  -31.0080  -22.9320 N.pl3 316  ARG316     -0.0865
    105  CZ         0.7610  -30.6030  -21.7110 C.cat 316  ARG316      0.5346
    106  NH1        0.5880  -29.3040  -21.4660 N.pl3 316  ARG316      0.1354
    107  NH2        0.6160  -31.4940  -20.7320 N.pl3 316  ARG316      0.1354
    108  N          5.9480  -26.2810  -22.8450 N.3   629  GLY629     -0.1225
    109  CA         5.3970  -26.0400  -21.5200 C.3   629  GLY629      0.1811
    110  C          6.4870  -25.6430  -20.5270 C.2   629  GLY629      0.2280
    111  O          7.5610  -26.2580  -20.5010 O.2   629  GLY629     -0.2866
    112  N          5.9730  -20.5550  -20.9700 N.3   632  ALA632     -0.1245
    113  CA         4.9730  -19.4970  -20.8220 C.3   632  ALA632      0.1562
    114  C          5.5570  -18.3530  -20.0040 C.2   632  ALA632      0.2260
    115  O          6.1870  -18.5820  -18.9680 O.2   632  ALA632     -0.2867
    116  CB         3.7140  -20.0120  -20.1530 C.3   632  ALA632      0.0290
    117  N          3.6940  -17.2680  -25.0400 N.3   648  PHE648     -0.1227
    118  CA         2.6460  -17.8980  -24.2400 C.3   648  PHE648      0.1736
    119  C          2.0700  -19.2180  -24.7480 C.2   648  PHE648      0.2595
    120  O          1.3860  -19.8950  -23.9800 O.2   648  PHE648     -0.2718
    121  CB         1.4740  -16.9190  -23.9700 C.3   648  PHE648      0.0547
    122  CG         0.6430  -16.5220  -25.1770 C.ar  648  PHE648     -0.0202
    123  CD1        0.9990  -15.4190  -25.9570 C.ar  648  PHE648     -0.0042
    124  CD2       -0.5630  -17.1630  -25.4470 C.ar  648  PHE648     -0.0042
    125  CE1        0.2130  -15.0060  -27.0230 C.ar  648  PHE648     -0.0003
    126  CE2       -1.3660  -16.7580  -26.5130 C.ar  648  PHE648     -0.0003
    127  CZ        -0.9790  -15.6690  -27.3060 C.ar  648  PHE648     -0.0000
    128  N          2.3620  -19.6100  -25.9900 N.am  649  ASP649     -0.1974
    129  CA         1.8040  -20.8580  -26.5340 C.3   649  ASP649      0.1709
    130  C          2.6110  -21.3830  -27.7350 C.2   649  ASP649      0.2293
    131  O          3.6280  -20.7980  -28.1210 O.2   649  ASP649     -0.2864
    132  CB         0.3340  -20.6490  -26.9460 C.3   649  ASP649      0.1436
    133  CG        -0.5260  -21.9110  -26.7600 C.2   649  ASP649      0.3671
    134  OD1        0.0210  -22.9940  -26.4680 O.co2 649  ASP649     -0.2456
    135  OD2       -1.7580  -21.8200  -26.9060 O.co2 649  ASP649     -0.2456
@<TRIPOS>BOND
     1    56    57    1
     2    59    58    2
     3    57    58    1
     4    57    60    1
     5    45    44    2
     6    60    61    1
     7    44    43    1
     8    61    62    1
     9    62    63    1
    10    43    46    1
    11    43    42    1
    12    37    36    2
    13    46    47    1
    14    65    64    1
    15    36    42   am
    16    36    35    1
    17    63    64    2
    18   131   130    2
    19    34    35    1
    20    64    66    1
    21   130   129    1
    22    47    49   ar
    23    47    48   ar
    24    52    49   ar
    25    52    54   ar
    26    35    38    1
    27    29    28    2
    28   100    99    2
    29   127   125   ar
    30   127   126   ar
    31   125   123   ar
    32    28    27    1
    33   132   133    1
    34   132   129    1
    35    49    51   ar
    36   135   133   ar
    37   133   134   ar
    38    48    50   ar
    39   129   128    1
    40   126   124   ar
    41    54    55   ar
    42    99    98    1
    43    38    39    1
    44   128   119   am
    45   123   122   ar
    46    98    97    1
    47    98   101    1
    48    51    50   ar
    49    51    53   ar
    50    27    26    1
    51    27    30    1
    52   124   122   ar
    53    40    39    2
    54    20    21    1
    55   102   101    1
    56   102   103    1
    57    39    41   am
    58    55    53   ar
    59   122   121    1
    60    26    22   am
    61    30    31    1
    62   117   118    1
    63    22    23    2
    64    22    21    1
    65   119   118    1
    66   119   120    2
    67    88    86   am
    68    21    24    1
    69   118   121    1
    70   103   104    1
    71    31    33   ar
    72    31    32   ar
    73    13    14    2
    74    13    12    1
    75    67    68    1
    76    86    87    2
    77    86    85    1
    78    92    91    2
    79    24    25    1
    80    71    68    1
    81    71    72    1
    82   104   105    2
    83   108   109    1
    84    83    82    2
    85    95    94    2
    86    12    11    1
    87    12    15    1
    88    85    84    1
    89    68    69    1
    90    74    72   ar
    91    91    90    1
    92    72    73   ar
    93   105   106    1
    94   105   107    1
    95    70    69    2
    96    90    89    1
    97    90    93    1
    98    82    89   am
    99    82    81    1
   100   109   110    1
   101    15    16    1
   102    94    96   am
   103    94    93    1
   104    84    81    1
   105   112   113    1
   106   113   116    1
   107   113   114    1
   108    81    80    1
   109     9     7   ar
   110     9    10   ar
   111   110   111    2
   112     7     6   ar
   113    16    17    1
   114   114   115    2
   115    18    17    1
   116    18    19    1
   117    10     8   ar
   118     6     8   ar
   119     6     5    1
   120    78    77    2
   121     5     2    1
   122     1     2    1
   123    77    76    1
   124     2     3    1
   125    76    79    1
   126    76    75    1
   127     3     4    2
