@<TRIPOS>MOLECULE
tmp/5jwiB01.pdb
 107 104 0 0 0
SMALL
GASTEIGER

@<TRIPOS>ATOM
      1  N        -31.5240  -28.6640  -63.3060 N.3    47  GLY47      -0.1210
      2  CA       -30.9910  -27.7620  -62.2970 C.3    47  GLY47       0.1956
      3  C        -29.4800  -27.6620  -62.1990 C.2    47  GLY47       0.2612
      4  O        -28.9570  -27.0710  -61.2530 O.2    47  GLY47      -0.2717
      5  N        -28.7860  -28.2330  -63.1790 N.am   48  CYS48      -0.1970
      6  CA       -27.3300  -28.1860  -63.2740 C.3    48  CYS48       0.1712
      7  C        -26.9100  -27.6570  -64.6370 C.2    48  CYS48       0.2296
      8  O        -27.7290  -27.5560  -65.5620 O.2    48  CYS48      -0.2864
      9  CB       -26.7060  -29.5910  -63.0650 C.3    48  CYS48       0.0983
     10  SG       -26.1500  -30.0740  -61.4090 S.3    48  CYS48      -0.0798
     11  N        -21.6940  -34.3870  -58.2800 N.3    64  HIS64      -0.1241
     12  CA       -22.9480  -34.2990  -57.5430 C.3    64  HIS64       0.1621
     13  C        -24.1410  -34.0400  -58.4660 C.2    64  HIS64       0.2264
     14  O        -25.2620  -34.3310  -58.0850 O.2    64  HIS64      -0.2867
     15  CB       -22.8750  -33.2440  -56.4100 C.3    64  HIS64       0.0745
     16  CG       -22.8610  -31.8100  -56.8610 C.ar   64  HIS64       0.0817
     17  ND1      -21.6920  -31.1160  -57.1020 N.ar   64  HIS64      -0.2268
     18  CD2      -23.8710  -30.9160  -57.0210 C.ar   64  HIS64       0.1154
     19  CE1      -21.9830  -29.8640  -57.4310 C.ar   64  HIS64       0.1986
     20  NE2      -23.2980  -29.7180  -57.3890 N.ar   64  HIS64      -0.2212
     21  N        -19.2740  -25.8380  -49.3620 N.3   197  TRP197     -0.1241
     22  CA       -19.2060  -24.3740  -49.3000 C.3   197  TRP197      0.1605
     23  C        -17.8570  -23.8820  -48.7450 C.2   197  TRP197      0.2264
     24  O        -17.7700  -22.7770  -48.2260 O.2   197  TRP197     -0.2867
     25  CB       -20.3570  -23.7980  -48.4380 C.3   197  TRP197      0.0550
     26  CG       -21.7260  -24.2490  -48.8750 C.ar  197  TRP197      0.0003
     27  CD1      -22.4750  -25.2530  -48.3300 C.ar  197  TRP197      0.0946
     28  CD2      -22.4990  -23.7130  -49.9560 C.ar  197  TRP197      0.0152
     29  NE1      -23.6690  -25.3690  -48.9990 N.ar  197  TRP197     -0.2442
     30  CE2      -23.7040  -24.4430  -50.0080 C.ar  197  TRP197      0.0810
     31  CE3      -22.2840  -22.6930  -50.8850 C.ar  197  TRP197      0.0012
     32  CZ2      -24.6900  -24.1890  -50.9590 C.ar  197  TRP197      0.0191
     33  CZ3      -23.2620  -22.4430  -51.8370 C.ar  197  TRP197      0.0001
     34  CH2      -24.4520  -23.1890  -51.8640 C.ar  197  TRP197      0.0015
     35  N        -26.5730  -29.2710  -47.3220 N.3   309  ASN309     -0.1240
     36  CA       -26.2110  -28.3790  -48.4080 C.3   309  ASN309      0.1653
     37  C        -26.9810  -27.0680  -48.2700 C.2   309  ASN309      0.2266
     38  O        -26.3950  -25.9800  -48.3370 O.2   309  ASN309     -0.2867
     39  CB       -26.4780  -29.0160  -49.7780 C.3   309  ASN309      0.1155
     40  CG       -25.8550  -28.2130  -50.9300 C.2   309  ASN309      0.2627
     41  OD1      -24.6790  -27.8360  -50.8800 O.2   309  ASN309     -0.2716
     42  ND2      -26.6510  -27.9340  -51.9600 N.am  309  ASN309     -0.0877
     43  N        -21.3610  -16.6800  -59.3040 N.3   607  THR607     -0.1203
     44  CA       -22.2060  -17.8470  -59.5420 C.3   607  THR607      0.1994
     45  C        -23.2390  -18.0370  -58.4390 C.2   607  THR607      0.2619
     46  O        -23.1730  -17.4050  -57.3860 O.2   607  THR607     -0.2717
     47  CB       -21.3660  -19.1480  -59.6620 C.3   607  THR607      0.1784
     48  OG1      -20.5650  -19.3170  -58.4790 O.3   607  THR607     -0.2211
     49  CG2      -20.4700  -19.0620  -60.8660 C.3   607  THR607      0.0376
     50  N        -24.2010  -18.9130  -58.6890 N.am  608  THR608     -0.1938
     51  CA       -25.1230  -19.3170  -57.6380 C.3   608  THR608      0.2028
     52  C        -25.6200  -20.7280  -57.9080 C.2   608  THR608      0.2643
     53  O        -25.1990  -21.3600  -58.8740 O.2   608  THR608     -0.2714
     54  CB       -26.3170  -18.3520  -57.5150 C.3   608  THR608      0.1808
     55  OG1      -27.0510  -18.6500  -56.3200 O.3   608  THR608     -0.2208
     56  CG2      -27.2260  -18.4560  -58.7260 C.3   608  THR608      0.0379
     57  N        -26.5000  -21.2120  -57.0410 N.am  609  GLY609     -0.1939
     58  CA       -27.0830  -22.5300  -57.1980 C.3   609  GLY609      0.2014
     59  C        -27.6420  -22.6870  -58.5880 C.2   609  GLY609      0.2639
     60  O        -28.4560  -21.8730  -59.0180 O.2   609  GLY609     -0.2714
     61  N        -27.1890  -23.7220  -59.2930 N.am  610  GLY610     -0.1954
     62  CA       -27.6030  -23.9630  -60.6680 C.3   610  GLY610      0.1869
     63  C        -26.3900  -23.9090  -61.5800 C.2   610  GLY610      0.2309
     64  O        -26.4060  -24.4480  -62.6980 O.2   610  GLY610     -0.2863
     65  N        -23.5060  -25.3360  -60.7870 N.3   612  ALA612     -0.1245
     66  CA       -22.7580  -26.6020  -60.7050 C.3   612  ALA612      0.1562
     67  C        -22.5600  -27.1410  -62.1080 C.2   612  ALA612      0.2260
     68  O        -23.5160  -27.1820  -62.8830 O.2   612  ALA612     -0.2867
     69  CB       -23.4810  -27.6070  -59.8770 C.3   612  ALA612      0.0290
     70  N        -17.0200  -25.4130  -62.7950 N.3   627  ASN627     -0.1225
     71  CA       -17.5040  -24.8510  -61.5420 C.3   627  ASN627      0.1785
     72  C        -18.2790  -25.9100  -60.7610 C.2   627  ASN627      0.2597
     73  O        -18.9750  -26.7100  -61.3650 O.2   627  ASN627     -0.2718
     74  CB       -18.3840  -23.6340  -61.8130 C.3   627  ASN627      0.1169
     75  CG       -18.8460  -22.9630  -60.5420 C.2   627  ASN627      0.2627
     76  OD1      -18.0630  -22.3040  -59.8570 O.2   627  ASN627     -0.2716
     77  ND2      -20.1150  -23.1350  -60.2130 N.am  627  ASN627     -0.0877
     78  N        -18.1370  -25.9560  -59.4360 N.am  628  PHE628     -0.1962
     79  CA       -19.0280  -26.8180  -58.6630 C.3   628  PHE628      0.1771
     80  C        -19.5390  -26.2460  -57.3460 C.2   628  PHE628      0.2620
     81  O        -20.4050  -26.8600  -56.7230 O.2   628  PHE628     -0.2715
     82  CB       -18.3720  -28.2080  -58.3880 C.3   628  PHE628      0.0574
     83  CG       -17.0950  -28.1920  -57.5570 C.ar  628  PHE628     -0.0200
     84  CD1      -15.8590  -27.9530  -58.1470 C.ar  628  PHE628     -0.0042
     85  CD2      -17.1290  -28.5420  -56.2070 C.ar  628  PHE628     -0.0042
     86  CE1      -14.6760  -28.0110  -57.3970 C.ar  628  PHE628     -0.0003
     87  CE2      -15.9640  -28.5950  -55.4380 C.ar  628  PHE628     -0.0003
     88  CZ       -14.7190  -28.3220  -56.0410 C.ar  628  PHE628     -0.0000
     89  N        -19.0390  -25.0830  -56.9270 N.am  629  ASP629     -0.1957
     90  CA       -19.4630  -24.5120  -55.6440 C.3   629  ASP629      0.1840
     91  C        -19.0670  -23.0460  -55.5220 C.2   629  ASP629      0.2621
     92  O        -18.4060  -22.4910  -56.4020 O.2   629  ASP629     -0.2715
     93  CB       -18.8500  -25.2970  -54.4760 C.3   629  ASP629      0.1450
     94  CG       -19.7310  -25.3160  -53.2310 C.2   629  ASP629      0.3671
     95  OD1      -20.8230  -24.6900  -53.2130 O.co2 629  ASP629     -0.2456
     96  OD2      -19.3080  -25.9540  -52.2440 O.co2 629  ASP629     -0.2456
     97  N        -19.4700  -22.4500  -54.4000 N.am  630  ARG630     -0.1977
     98  CA       -19.1290  -21.0850  -54.0110 C.3   630  ARG630      0.1597
     99  C        -18.7700  -21.1690  -52.5320 C.2   630  ARG630      0.2287
    100  O        -19.3240  -22.0160  -51.8370 O.2   630  ARG630     -0.2864
    101  CB       -20.3330  -20.1560  -54.2420 C.3   630  ARG630      0.0334
    102  CG       -20.1230  -18.6630  -54.0910 C.3   630  ARG630      0.0492
    103  CD       -21.4950  -18.0090  -53.8510 C.3   630  ARG630      0.2205
    104  NE       -22.5030  -18.9200  -54.3460 N.pl3 630  ARG630     -0.0865
    105  CZ       -23.7650  -18.9990  -53.9440 C.cat 630  ARG630      0.5346
    106  NH1      -24.2660  -18.1980  -53.0240 N.pl3 630  ARG630      0.1354
    107  NH2      -24.5230  -19.9120  -54.4960 N.pl3 630  ARG630      0.1354
@<TRIPOS>BOND
     1     8     7    2
     2     7     6    1
     3     1     2    1
     4     6     5    1
     5     6     9    1
     6     5     3   am
     7     9    10    1
     8    68    67    2
     9    70    71    1
    10    64    63    2
    11     2     3    1
    12     3     4    2
    13    67    66    1
    14    74    71    1
    15    74    75    1
    16    63    62    1
    17    71    72    1
    18    73    72    2
    19    49    47    1
    20    65    66    1
    21    72    78   am
    22    66    69    1
    23    62    61    1
    24    75    77   am
    25    75    76    2
    26    47    44    1
    27    47    48    1
    28    44    43    1
    29    44    45    1
    30    78    79    1
    31    61    59   am
    32    60    59    2
    33    53    52    2
    34    56    54    1
    35    50    45   am
    36    50    51    1
    37    79    82    1
    38    79    80    1
    39    59    58    1
    40    13    14    2
    41    13    12    1
    42    45    46    2
    43    82    83    1
    44    11    12    1
    45    84    83   ar
    46    84    86   ar
    47    52    51    1
    48    52    57   am
    49    51    54    1
    50    83    85   ar
    51    12    15    1
    52    54    55    1
    53    19    20   ar
    54    19    17   ar
    55    86    88   ar
    56    20    18   ar
    57    80    89   am
    58    80    81    2
    59    58    57    1
    60    17    16   ar
    61    18    16   ar
    62    89    90    1
    63    16    15    1
    64    92    91    2
    65    85    87   ar
    66    88    87   ar
    67    90    91    1
    68    90    93    1
    69    91    97   am
    70   107   105    1
    71    93    94    1
    72    97    98    1
    73   104   105    2
    74   104   103    1
    75   101   102    1
    76   101    98    1
    77   102   103    1
    78    98    99    1
    79   105   106    1
    80    94    95   ar
    81    94    96   ar
    82    99   100    2
    83    42    40   am
    84    34    33   ar
    85    34    32   ar
    86    33    31   ar
    87    32    30   ar
    88    40    41    2
    89    40    39    1
    90    31    28   ar
    91    30    28   ar
    92    30    29   ar
    93    28    26   ar
    94    39    36    1
    95    21    22    1
    96    22    23    1
    97    22    25    1
    98    29    27   ar
    99    26    25    1
   100    26    27   ar
   101    23    24    2
   102    36    37    1
   103    36    35    1
   104    38    37    2
