@<TRIPOS>MOLECULE
tmp/5jwlA01.pdb
 131 126 0 0 0
SMALL
GASTEIGER

@<TRIPOS>ATOM
      1  N        -12.2260   29.8250   -1.5410 N.3    92  PHE92      -0.1241
      2  CA       -13.0850   28.9300   -0.7690 C.3    92  PHE92       0.1605
      3  C        -12.6160   27.4650   -0.7840 C.2    92  PHE92       0.2264
      4  O        -13.2880   26.5620   -1.3840 O.2    92  PHE92      -0.2867
      5  CB       -14.4780   28.9130   -1.4020 C.3    92  PHE92       0.0534
      6  CG       -15.2670   30.1390   -1.1620 C.ar   92  PHE92      -0.0203
      7  CD1      -15.0570   31.2690   -1.9350 C.ar   92  PHE92      -0.0042
      8  CD2      -16.2470   30.1580   -0.1570 C.ar   92  PHE92      -0.0042
      9  CE1      -15.7820   32.4050   -1.7010 C.ar   92  PHE92      -0.0003
     10  CE2      -16.9770   31.2870    0.0700 C.ar   92  PHE92      -0.0003
     11  CZ       -16.7430   32.4120   -0.7010 C.ar   92  PHE92      -0.0000
     12  N        -12.5000   23.9000    0.7960 N.3    94  TYR94      -0.1241
     13  CA       -13.5570   23.1530    1.4430 C.3    94  TYR94       0.1605
     14  C        -13.0060   22.1310    2.4260 C.2    94  TYR94       0.2264
     15  O        -11.9360   21.6210    2.2330 O.2    94  TYR94      -0.2867
     16  CB       -14.4330   22.5210    0.3420 C.3    94  TYR94       0.0534
     17  CG       -14.7560   21.0430    0.4580 C.ar   94  TYR94      -0.0201
     18  CD1      -15.9180   20.6210    1.0740 C.ar   94  TYR94      -0.0009
     19  CD2      -13.9220   20.0780   -0.0810 C.ar   94  TYR94      -0.0009
     20  CE1      -16.2240   19.2920    1.1860 C.ar   94  TYR94       0.0417
     21  CE2      -14.2300   18.7440    0.0340 C.ar   94  TYR94       0.0417
     22  CZ       -15.3840   18.3710    0.6740 C.ar   94  TYR94       0.1957
     23  OH       -15.7260   17.0620    0.7930 O.3    94  TYR94      -0.2866
     24  N        -24.0200   26.3190   -1.9170 N.3   139  GLN139     -0.1245
     25  CA       -23.7620   25.0900   -2.6340 C.3   139  GLN139      0.1566
     26  C        -24.5810   24.0390   -1.9500 C.2   139  GLN139      0.2260
     27  O        -24.3030   23.6530   -0.8080 O.2   139  GLN139     -0.2867
     28  CB       -22.2770   24.7020   -2.5490 C.3   139  GLN139      0.0367
     29  CG       -21.3030   25.8160   -2.8830 C.3   139  GLN139      0.0905
     30  CD       -19.8110   25.4280   -2.7440 C.2   139  GLN139      0.2608
     31  OE1      -19.4480   24.3520   -2.2990 O.2   139  GLN139     -0.2717
     32  NE2      -18.9630   26.3280   -3.1350 N.am  139  GLN139     -0.0878
     33  N        -25.6300   19.5200   -7.8340 N.3   178  LEU178     -0.1245
     34  CA       -25.3400   20.5590   -6.8460 C.3   178  LEU178      0.1561
     35  C        -25.6990   21.9060   -7.4590 C.2   178  LEU178      0.2260
     36  O        -25.3740   22.1880   -8.6190 O.2   178  LEU178     -0.2867
     37  CB       -23.8440   20.5740   -6.4880 C.3   178  LEU178      0.0270
     38  CG       -23.4770   21.4610   -5.3030 C.3   178  LEU178      0.0019
     39  CD1      -23.9430   20.7790   -4.0170 C.3   178  LEU178      0.0001
     40  CD2      -21.9910   21.7260   -5.2200 C.3   178  LEU178      0.0001
     41  N        -25.0040   25.8420   -7.4140 N.3   180  LEU180     -0.1245
     42  CA       -23.9540   26.7220   -6.9020 C.3   180  LEU180      0.1561
     43  C        -24.2680   28.1440   -7.2540 C.2   180  LEU180      0.2260
     44  O        -24.4810   28.4550   -8.4330 O.2   180  LEU180     -0.2867
     45  CB       -22.5590   26.3750   -7.4440 C.3   180  LEU180      0.0270
     46  CG       -22.0620   24.9700   -7.1610 C.3   180  LEU180      0.0019
     47  CD1      -22.1910   24.1410   -8.4100 C.3   180  LEU180      0.0001
     48  CD2      -20.5980   24.9130   -6.6710 C.3   180  LEU180      0.0001
     49  N        -13.0810   28.5450   -6.3860 N.3   188  THR188     -0.1204
     50  CA       -13.0120   27.2210   -5.7980 C.3   188  THR188      0.1979
     51  C        -11.6670   26.7330   -6.3230 C.2   188  THR188      0.2459
     52  O        -11.5230   26.4890   -7.5470 O.2   188  THR188     -0.2732
     53  CB       -14.0990   26.2870   -6.3410 C.3   188  THR188      0.1783
     54  OG1      -15.3950   26.7920   -6.0250 O.3   188  THR188     -0.2211
     55  CG2      -13.9620   24.9500   -5.8110 C.3   188  THR188      0.0376
     56  N        -10.6800   26.5880   -5.4380 N.am  189  PRO189     -0.2728
     57  CA        -9.3280   26.2130   -5.8870 C.3   189  PRO189      0.1401
     58  C         -9.2130   24.7860   -6.3460 C.2   189  PRO189      0.2269
     59  O        -10.1560   24.0050   -6.1520 O.2   189  PRO189     -0.2865
     60  CB        -8.4310   26.4220   -4.6470 C.3   189  PRO189      0.0296
     61  CG        -9.3190   26.9500   -3.5880 C.3   189  PRO189      0.0237
     62  CD       -10.7470   26.7230   -3.9760 C.3   189  PRO189      0.0939
     63  N         -8.9060   21.1990   -7.4270 N.3   191  HIS191     -0.1297
     64  CA        -9.1810   19.9260   -6.8230 C.3   191  HIS191      0.1306
     65  C         -9.6910   18.9310   -7.8780 C.3   191  HIS191      0.2013
     66  O         -9.9890   19.3280   -9.0680 O.3   191  HIS191     -0.2188
     67  CB       -10.2220   20.1080   -5.7650 C.3   191  HIS191      0.0691
     68  CG       -11.5390   20.4660   -6.3140 C.ar  191  HIS191      0.0814
     69  ND1      -11.8130   21.7250   -6.7790 N.ar  191  HIS191     -0.2268
     70  CD2      -12.6160   19.7160   -6.6050 C.ar  191  HIS191      0.1154
     71  CE1      -13.0040   21.7350   -7.3450 C.ar  191  HIS191      0.1986
     72  NE2      -13.5300   20.5400   -7.2010 N.ar  191  HIS191     -0.2212
     73  N        -12.3380   15.3250   -8.4840 N.3   193  GLU193     -0.1245
     74  CA       -13.4260   14.5160   -8.0600 C.3   193  GLU193      0.1567
     75  C        -13.2180   13.1120   -8.6120 C.2   193  GLU193      0.2260
     76  O        -12.5650   12.8900   -9.6290 O.2   193  GLU193     -0.2867
     77  CB       -14.7320   15.1040   -8.6300 C.3   193  GLU193      0.0388
     78  CG       -15.6280   15.7830   -7.6150 C.3   193  GLU193      0.1160
     79  CD       -15.3440   17.2490   -7.4250 C.2   193  GLU193      0.3649
     80  OE1      -15.3110   18.0300   -8.4670 O.co2 193  GLU193     -0.2457
     81  OE2      -15.2950   17.5840   -6.2000 O.co2 193  GLU193     -0.2457
     82  N         -8.5630   16.6130    1.5300 N.3   229  ASP229     -0.1225
     83  CA        -8.3320   15.5690    0.5670 C.3   229  ASP229      0.1805
     84  C         -8.8150   16.0110   -0.7940 C.2   229  ASP229      0.2598
     85  O         -9.8610   16.5730   -0.9160 O.2   229  ASP229     -0.2718
     86  CB        -9.0630   14.3120    0.9960 C.3   229  ASP229      0.1424
     87  CG        -8.8390   13.1550    0.0890 C.2   229  ASP229      0.3668
     88  OD1       -7.7940   13.0350   -0.5300 O.co2 229  ASP229     -0.2456
     89  OD2       -9.7200   12.3280    0.0120 O.co2 229  ASP229     -0.2456
     90  N         -8.0180   15.7420   -1.8150 N.am  230  ARG230     -0.1966
     91  CA        -8.3530   15.9530   -3.2180 C.3   230  ARG230      0.1729
     92  C         -8.1930   17.3730   -3.6860 C.2   230  ARG230      0.2616
     93  O         -8.4350   17.6690   -4.8160 O.2   230  ARG230     -0.2715
     94  CB        -9.7480   15.4670   -3.5560 C.3   230  ARG230      0.0348
     95  CG        -9.9130   13.9790   -3.6210 C.3   230  ARG230      0.0492
     96  CD       -11.3340   13.6170   -3.9700 C.3   230  ARG230      0.2205
     97  NE       -12.2480   14.0040   -2.9230 N.pl3 230  ARG230     -0.0865
     98  CZ       -13.1310   14.9850   -3.0060 C.cat 230  ARG230      0.5346
     99  NH1      -13.2430   15.7120   -4.0960 N.pl3 230  ARG230      0.1354
    100  NH2      -13.9110   15.2430   -1.9850 N.pl3 230  ARG230      0.1354
    101  N         -7.7960   18.2390   -2.7910 N.am  231  GLN231     -0.1977
    102  CA        -7.4760   19.6030   -3.1120 C.3   231  GLN231      0.1601
    103  C         -5.9720   19.7920   -3.2080 C.2   231  GLN231      0.2287
    104  O         -5.2270   19.0660   -2.5330 O.2   231  GLN231     -0.2864
    105  CB        -7.9710   20.5030   -2.0220 C.3   231  GLN231      0.0394
    106  CG        -9.4150   20.2570   -1.6920 C.3   231  GLN231      0.0908
    107  CD        -9.9640   21.2870   -0.7220 C.2   231  GLN231      0.2608
    108  OE1       -9.5610   22.4340   -0.7400 O.2   231  GLN231     -0.2717
    109  NE2      -10.8940   20.8790    0.1130 N.am  231  GLN231     -0.0878
    110  N        -24.4800   21.3290  -11.3990 N.3   286  ASN286     -0.1240
    111  CA       -23.6600   20.2330  -11.9220 C.3   286  ASN286      0.1653
    112  C        -24.4050   18.9360  -11.8420 C.2   286  ASN286      0.2266
    113  O        -25.4790   18.8650  -11.2530 O.2   286  ASN286     -0.2867
    114  CB       -22.2860   20.1740  -11.2580 C.3   286  ASN286      0.1155
    115  CG       -22.3180   19.6500   -9.8300 C.2   286  ASN286      0.2627
    116  OD1      -23.3000   19.0550   -9.3760 O.2   286  ASN286     -0.2716
    117  ND2      -21.1950   19.8640   -9.1010 N.am  286  ASN286     -0.0877
    118  N        -23.2400   15.0280  -11.2780 N.3   288  TRP288     -0.1241
    119  CA       -22.2040   14.0550  -10.9390 C.3   288  TRP288      0.1605
    120  C        -22.7070   12.6170  -11.2350 C.2   288  TRP288      0.2264
    121  O        -23.8470   12.2820  -10.8830 O.2   288  TRP288     -0.2867
    122  CB       -21.8010   14.2380   -9.4710 C.3   288  TRP288      0.0550
    123  CG       -20.7400   15.3030   -9.2190 C.ar  288  TRP288      0.0003
    124  CD1      -19.7550   15.6520  -10.0510 C.ar  288  TRP288      0.0946
    125  CD2      -20.5370   16.0800   -8.0420 C.ar  288  TRP288      0.0152
    126  NE1      -18.9700   16.6230   -9.5140 N.ar  288  TRP288     -0.2442
    127  CE2      -19.4170   16.9140   -8.2790 C.ar  288  TRP288      0.0810
    128  CE3      -21.2250   16.2060   -6.8320 C.ar  288  TRP288      0.0012
    129  CZ2      -18.9310   17.8290   -7.3460 C.ar  288  TRP288      0.0191
    130  CZ3      -20.7430   17.1310   -5.8830 C.ar  288  TRP288      0.0001
    131  CH2      -19.5990   17.9190   -6.1480 C.ar  288  TRP288      0.0015
@<TRIPOS>BOND
     1   111   112    1
     2   111   110    1
     3   111   114    1
     4   112   113    2
     5   118   119    1
     6   114   115    1
     7   120   119    1
     8   120   121    2
     9   119   122    1
    10   124   126   ar
    11   124   123   ar
    12   115   116    2
    13   115   117   am
    14    76    75    2
    15   126   127   ar
    16   122   123    1
    17   123   125   ar
    18    66    65    1
    19    77    74    1
    20    77    78    1
    21    36    35    2
    22    75    74    1
    23    73    74    1
    24    80    79   ar
    25    44    43    2
    26    47    46    1
    27   127   125   ar
    28   127   129   ar
    29   125   128   ar
    30    65    64    1
    31    33    34    1
    32    78    79    1
    33    52    51    2
    34    35    34    1
    35    45    46    1
    36    45    42    1
    37    63    64    1
    38    79    81   ar
    39    41    42    1
    40   129   131   ar
    41    71    72   ar
    42    71    69   ar
    43    43    42    1
    44    72    70   ar
    45    46    48    1
    46    34    37    1
    47   128   130   ar
    48    64    67    1
    49    69    68   ar
    50    70    68   ar
    51    37    38    1
    52    49    50    1
    53    58    59    2
    54    58    57    1
    55    53    54    1
    56    53    55    1
    57    53    50    1
    58    51    50    1
    59    51    56   am
    60    68    67    1
    61   131   130   ar
    62    57    56    1
    63    57    60    1
    64    56    62    1
    65    38    40    1
    66    38    39    1
    67    93    92    2
    68    60    61    1
    69    99    98    1
    70    62    61    1
    71    96    95    1
    72    96    97    1
    73    92    91    1
    74    92   101   am
    75    95    94    1
    76    94    91    1
    77    91    90    1
    78   103   102    1
    79   103   104    2
    80    32    30   am
    81   102   101    1
    82   102   105    1
    83    98    97    2
    84    98   100    1
    85    29    30    1
    86    29    28    1
    87    30    31    2
    88    25    28    1
    89    25    26    1
    90    25    24    1
    91   105   106    1
    92    26    27    2
    93     7     9   ar
    94     7     6   ar
    95    90    84   am
    96     9    11   ar
    97   106   107    1
    98     1     2    1
    99     5     6    1
   100     5     2    1
   101     4     3    2
   102     6     8   ar
   103    85    84    2
   104    84    83    1
   105     3     2    1
   106   108   107    2
   107   107   109   am
   108    11    10   ar
   109    88    87   ar
   110     8    10   ar
   111    19    21   ar
   112    19    17   ar
   113    89    87   ar
   114    21    22   ar
   115    87    86    1
   116    16    17    1
   117    16    13    1
   118    17    18   ar
   119    83    86    1
   120    83    82    1
   121    22    23    1
   122    22    20   ar
   123    12    13    1
   124    18    20   ar
   125    13    14    1
   126    15    14    2
