@<TRIPOS>MOLECULE
tmp/5jwmB00.pdb
 168 167 0 0 0
SMALL
GASTEIGER

@<TRIPOS>ATOM
      1  N        -14.5380   -4.9700  -13.5930 N.3    25  TRP25      -0.1228
      2  CA       -15.9490   -5.3290  -13.6310 C.3    25  TRP25       0.1722
      3  C        -16.3780   -6.0900  -14.8790 C.2    25  TRP25       0.2437
      4  O        -17.2650   -6.9480  -14.7460 O.2    25  TRP25      -0.2733
      5  CB       -16.8430   -4.0820  -13.4370 C.3    25  TRP25       0.0563
      6  CG       -16.7610   -3.0220  -14.4970 C.ar   25  TRP25       0.0003
      7  CD1      -16.0140   -1.8780  -14.4590 C.ar   25  TRP25       0.0946
      8  CD2      -17.4560   -2.9970  -15.7470 C.ar   25  TRP25       0.0152
      9  NE1      -16.1880   -1.1580  -15.6110 N.ar   25  TRP25      -0.2442
     10  CE2      -17.0720   -1.8170  -16.4150 C.ar   25  TRP25       0.0810
     11  CE3      -18.3590   -3.8590  -16.3690 C.ar   25  TRP25       0.0012
     12  CZ2      -17.5580   -1.4790  -17.6660 C.ar   25  TRP25       0.0191
     13  CZ3      -18.8430   -3.5200  -17.6100 C.ar   25  TRP25       0.0001
     14  CH2      -18.4320   -2.3440  -18.2510 C.ar   25  TRP25       0.0015
     15  N        -15.8270   -5.8670  -16.0740 N.am   26  PRO26      -0.2718
     16  CA       -16.2620   -6.6900  -17.2190 C.3    26  PRO26       0.1535
     17  C        -16.0290   -8.1820  -17.0140 C.2    26  PRO26       0.2598
     18  O        -16.6860   -8.9920  -17.6670 O.2    26  PRO26      -0.2715
     19  CB       -15.4130   -6.1540  -18.3780 C.3    26  PRO26       0.0310
     20  CG       -15.0240   -4.7520  -17.9530 C.3    26  PRO26       0.0237
     21  CD       -14.8260   -4.8540  -16.4720 C.3    26  PRO26       0.0939
     22  N        -15.0960   -8.5580  -16.1470 N.am   27  PHE27      -0.1974
     23  CA       -14.6640   -9.9340  -15.9960 C.3    27  PHE27       0.1639
     24  C        -15.3700  -10.6500  -14.8530 C.2    27  PHE27       0.2290
     25  O        -15.1050  -11.8350  -14.6210 O.2    27  PHE27      -0.2864
     26  CB       -13.1230   -9.9460  -15.8330 C.3    27  PHE27       0.0560
     27  CG       -12.4540   -9.1680  -16.9120 C.ar   27  PHE27      -0.0200
     28  CD1      -12.3720   -9.6940  -18.1810 C.ar   27  PHE27      -0.0042
     29  CD2      -12.0450   -7.8640  -16.7080 C.ar   27  PHE27      -0.0042
     30  CE1      -11.8490   -8.9590  -19.2070 C.ar   27  PHE27      -0.0003
     31  CE2      -11.5310   -7.1350  -17.7320 C.ar   27  PHE27      -0.0003
     32  CZ       -11.4380   -7.6740  -18.9770 C.ar   27  PHE27      -0.0000
     33  N        -18.5310  -11.7030  -14.4450 N.3    29  LYS29      -0.1231
     34  CA       -19.5510  -12.6790  -14.7880 C.3    29  LYS29       0.1678
     35  C        -19.3660  -13.1340  -16.2260 C.2    29  LYS29       0.2434
     36  O        -18.6760  -12.4720  -16.9990 O.2    29  LYS29      -0.2733
     37  CB       -20.9560  -12.0730  -14.6020 C.3    29  LYS29       0.0284
     38  CG       -21.3210  -11.8050  -13.1360 C.3    29  LYS29       0.0035
     39  CD       -22.7080  -11.1890  -12.9960 C.3    29  LYS29       0.0206
     40  CE       -23.0680  -10.8830  -11.5310 C.3    29  LYS29       0.1093
     41  NZ       -24.4080  -10.1990  -11.3710 N.3    29  LYS29      -0.1314
     42  N        -19.9760  -14.2570  -16.6220 N.am   30  PRO30      -0.2718
     43  CA       -19.8910  -14.6780  -18.0230 C.3    30  PRO30       0.1535
     44  C        -20.3100  -13.5730  -18.9720 C.2    30  PRO30       0.2598
     45  O        -21.2540  -12.8190  -18.7050 O.2    30  PRO30      -0.2715
     46  CB       -20.8470  -15.8700  -18.0920 C.3    30  PRO30       0.0310
     47  CG       -20.7940  -16.4300  -16.7210 C.3    30  PRO30       0.0237
     48  CD       -20.7060  -15.2470  -15.8120 C.3    30  PRO30       0.0939
     49  N        -19.6020  -13.4840  -20.1010 N.am   31  VAL31      -0.1964
     50  CA       -20.0230  -12.5760  -21.1690 C.3    31  VAL31       0.1727
     51  C        -21.4590  -12.8990  -21.5580 C.2    31  VAL31       0.2616
     52  O        -21.8010  -14.0510  -21.8560 O.2    31  VAL31      -0.2715
     53  CB       -19.0740  -12.6790  -22.3770 C.3    31  VAL31       0.0290
     54  CG1      -19.6450  -11.9100  -23.5760 C.3    31  VAL31       0.0023
     55  CG2      -17.6860  -12.1650  -22.0240 C.3    31  VAL31       0.0023
     56  N        -22.3110  -11.8800  -21.5320 N.am   32  ASP32      -0.1971
     57  CA       -23.7420  -12.0030  -21.8300 C.3    32  ASP32       0.1709
     58  C        -23.9390  -11.6500  -23.3020 C.2    32  ASP32       0.2293
     59  O        -24.1210  -10.4900  -23.6700 O.2    32  ASP32      -0.2864
     60  CB       -24.5380  -11.0980  -20.8970 C.3    32  ASP32       0.1436
     61  CG       -26.0510  -11.2200  -21.0800 C.2    32  ASP32       0.3671
     62  OD1      -26.7800  -10.7720  -20.1580 O.co2  32  ASP32      -0.2456
     63  OD2      -26.5090  -11.7340  -22.1350 O.co2  32  ASP32      -0.2456
     64  N        -27.2430   -9.6640  -24.2950 N.3    35  ALA35      -0.1231
     65  CA       -27.2750   -8.2520  -23.9250 C.3    35  ALA35       0.1694
     66  C        -26.2910   -7.4240  -24.7530 C.2    35  ALA35       0.2592
     67  O        -26.5740   -6.2680  -25.1010 O.2    35  ALA35      -0.2718
     68  CB       -26.9750   -8.1110  -22.4370 C.3    35  ALA35       0.0304
     69  N        -25.1310   -7.9830  -25.0700 N.am   36  LEU36      -0.1966
     70  CA       -24.1030   -7.2350  -25.7840 C.3    36  LEU36       0.1728
     71  C        -24.1880   -7.4090  -27.2960 C.2    36  LEU36       0.2617
     72  O        -23.4150   -6.7790  -28.0230 O.2    36  LEU36      -0.2715
     73  CB       -22.7060   -7.6650  -25.2950 C.3    36  LEU36       0.0311
     74  CG       -22.3570   -7.4480  -23.8230 C.3    36  LEU36       0.0022
     75  CD1      -20.9850   -8.0050  -23.5040 C.3    36  LEU36       0.0001
     76  CD2      -22.3810   -5.9850  -23.5000 C.3    36  LEU36       0.0001
     77  N        -25.0770   -8.2720  -27.7770 N.am   37  GLY37      -0.1940
     78  CA       -25.2520   -8.4820  -29.2000 C.3    37  GLY37       0.2014
     79  C        -24.1360   -9.2520  -29.8620 C.2    37  GLY37       0.2638
     80  O        -23.9580   -9.1580  -31.0830 O.2    37  GLY37      -0.2714
     81  N        -23.3920  -10.0360  -29.0940 N.am   38  LEU38      -0.1977
     82  CA       -22.1990  -10.7050  -29.6030 C.3    38  LEU38       0.1596
     83  C        -22.6690  -12.1300  -29.8950 C.2    38  LEU38       0.2287
     84  O        -22.5260  -13.0480  -29.0900 O.2    38  LEU38      -0.2864
     85  CB       -21.0900  -10.6590  -28.5600 C.3    38  LEU38       0.0297
     86  CG       -20.7760   -9.2900  -27.9640 C.3    38  LEU38       0.0022
     87  CD1      -19.6530   -9.4250  -26.9180 C.3    38  LEU38       0.0001
     88  CD2      -20.3890   -8.3030  -29.0430 C.3    38  LEU38       0.0001
     89  N        -19.7070  -14.5420  -30.5750 N.3    41  TYR41      -0.1241
     90  CA       -18.7260  -14.7430  -29.5090 C.3    41  TYR41       0.1605
     91  C        -18.4130  -16.2150  -29.3410 C.2    41  TYR41       0.2264
     92  O        -17.2490  -16.5890  -29.1900 O.2    41  TYR41      -0.2867
     93  CB       -19.2390  -14.1560  -28.1950 C.3    41  TYR41       0.0534
     94  CG       -18.1930  -14.1190  -27.0870 C.ar   41  TYR41      -0.0201
     95  CD1      -17.2570  -13.0910  -27.0180 C.ar   41  TYR41      -0.0009
     96  CD2      -18.1480  -15.1060  -26.1220 C.ar   41  TYR41      -0.0009
     97  CE1      -16.3020  -13.0590  -26.0230 C.ar   41  TYR41       0.0417
     98  CE2      -17.2110  -15.0810  -25.1110 C.ar   41  TYR41       0.0417
     99  CZ       -16.2910  -14.0660  -25.0650 C.ar   41  TYR41       0.1957
    100  OH       -15.3630  -14.0870  -24.0510 O.3    41  TYR41      -0.2866
    101  N         -9.3250  -16.4820  -19.4190 N.3    76  MET76      -0.1245
    102  CA       -10.2510  -15.3600  -19.3730 C.3    76  MET76       0.1570
    103  C         -9.6590  -14.1380  -20.0840 C.2    76  MET76       0.2261
    104  O        -10.3340  -13.4770  -20.8890 O.2    76  MET76      -0.2867
    105  CB       -10.5870  -15.0640  -17.9100 C.3    76  MET76       0.0387
    106  CG       -11.3990  -13.8310  -17.6950 C.3    76  MET76       0.0595
    107  SD       -11.7020  -13.5620  -15.9370 S.3    76  MET76      -0.1393
    108  CE       -10.1560  -12.8210  -15.4280 C.3    76  MET76       0.0692
    109  N        -10.4540  -12.3030  -24.0620 N.3    80  CYS80      -0.1235
    110  CA       -10.6810  -10.8820  -24.2780 C.3    80  CYS80       0.1677
    111  C         -9.7490  -10.3440  -25.3670 C.2    80  CYS80       0.2270
    112  O        -10.1780   -9.5990  -26.2660 O.2    80  CYS80      -0.2867
    113  CB       -10.4890  -10.1430  -22.9550 C.3    80  CYS80       0.0956
    114  SG       -10.8920   -8.3940  -23.0650 S.3    80  CYS80      -0.0801
    115  N        -10.8670  -11.8120  -28.8970 N.3    83  TYR83      -0.1227
    116  CA       -12.1150  -11.3450  -29.4930 C.3    83  TYR83       0.1736
    117  C        -12.0310   -9.8890  -29.9350 C.2    83  TYR83       0.2595
    118  O        -12.6590   -9.5060  -30.9290 O.2    83  TYR83      -0.2718
    119  CB       -13.2590  -11.5240  -28.4930 C.3    83  TYR83       0.0548
    120  CG       -14.5970  -11.2100  -29.0760 C.ar   83  TYR83      -0.0200
    121  CD1      -15.2050  -12.0840  -29.9590 C.ar   83  TYR83      -0.0009
    122  CD2      -15.2370  -10.0150  -28.8000 C.ar   83  TYR83      -0.0009
    123  CE1      -16.4230  -11.8000  -30.5120 C.ar   83  TYR83       0.0417
    124  CE2      -16.4640   -9.7170  -29.3860 C.ar   83  TYR83       0.0417
    125  CZ       -17.0390  -10.6110  -30.2250 C.ar   83  TYR83       0.1957
    126  OH       -18.2530  -10.3050  -30.7930 O.3    83  TYR83      -0.2866
    127  N        -11.2720   -9.0720  -29.2150 N.am   84  ASN84      -0.1974
    128  CA       -11.3810   -7.6350  -29.3800 C.3    84  ASN84       0.1688
    129  C        -10.1790   -7.0490  -30.1010 C.2    84  ASN84       0.2292
    130  O         -9.0690   -7.5820  -30.0050 O.2    84  ASN84      -0.2864
    131  CB       -11.4980   -6.9330  -28.0320 C.3    84  ASN84       0.1181
    132  CG       -12.8020   -7.1950  -27.3590 C.2    84  ASN84       0.2629
    133  OD1      -13.8130   -6.5740  -27.6870 O.2    84  ASN84      -0.2716
    134  ND2      -12.7950   -8.1020  -26.3900 N.am   84  ASN84      -0.0877
    135  N         -9.2160   -1.5670  -28.0040 N.3    88  HIS88      -0.1226
    136  CA       -10.5030   -1.4850  -27.3190 C.3    88  HIS88       0.1752
    137  C        -10.2840   -1.2220  -25.8330 C.2    88  HIS88       0.2596
    138  O         -9.3310   -1.7270  -25.2280 O.2    88  HIS88      -0.2718
    139  CB       -11.2650   -2.8060  -27.5240 C.3    88  HIS88       0.0759
    140  CG       -12.7170   -2.7830  -27.1410 C.ar   88  HIS88       0.0818
    141  ND1      -13.1860   -2.2360  -25.9660 N.ar   88  HIS88      -0.2268
    142  CD2      -13.8030   -3.2890  -27.7730 C.ar   88  HIS88       0.1154
    143  CE1      -14.4930   -2.3840  -25.8960 C.ar   88  HIS88       0.1986
    144  NE2      -14.8960   -3.0220  -26.9830 N.ar   88  HIS88      -0.2212
    145  N        -11.1850   -0.4470  -25.2330 N.am   89  GLU89      -0.1965
    146  CA       -11.0540   -0.1670  -23.8080 C.3    89  GLU89       0.1733
    147  C        -11.0740   -1.4500  -22.9730 C.2    89  GLU89       0.2616
    148  O        -10.3740   -1.5480  -21.9610 O.2    89  GLU89      -0.2715
    149  CB       -12.1540    0.7940  -23.3590 C.3    89  GLU89       0.0429
    150  CG       -11.9210    1.3570  -21.9800 C.3    89  GLU89       0.1163
    151  CD       -12.9380    2.4170  -21.6100 C.2    89  GLU89       0.3649
    152  OE1      -13.1100    2.6860  -20.4010 O.co2  89  GLU89      -0.2457
    153  OE2      -13.5590    2.9860  -22.5350 O.co2  89  GLU89      -0.2457
    154  N        -11.8680   -2.4430  -23.3610 N.am   90  VAL90      -0.1977
    155  CA       -11.9540   -3.6360  -22.5140 C.3    90  VAL90       0.1596
    156  C        -10.6220   -4.3690  -22.4870 C.2    90  VAL90       0.2287
    157  O        -10.3010   -5.0390  -21.5030 O.2    90  VAL90      -0.2864
    158  CB       -13.1210   -4.5570  -22.9580 C.3    90  VAL90       0.0276
    159  CG1      -12.8550   -5.2330  -24.2990 C.3    90  VAL90       0.0022
    160  CG2      -13.4350   -5.5880  -21.8900 C.3    90  VAL90       0.0022
    161  N         -8.5320   -2.6520  -19.9550 N.3    93  MET93      -0.1245
    162  CA        -8.9710   -3.0600  -18.6250 C.3    93  MET93       0.1570
    163  C         -8.4600   -4.4590  -18.2930 C.2    93  MET93       0.2261
    164  O         -7.9810   -4.7140  -17.1800 O.2    93  MET93      -0.2867
    165  CB       -10.4890   -3.0090  -18.5680 C.3    93  MET93       0.0387
    166  CG       -11.0440   -1.6260  -18.7440 C.3    93  MET93       0.0595
    167  SD       -12.8020   -1.6300  -19.0830 S.3    93  MET93      -0.1393
    168  CE       -13.4760   -1.7980  -17.4770 C.3    93  MET93       0.0692
@<TRIPOS>BOND
     1    80    79    2
     2   118   117    2
     3   126   125    1
     4    89    90    1
     5   123   125   ar
     6   123   121   ar
     7   125   124   ar
     8   129   130    2
     9   129   128    1
    10   121   120   ar
    11   117   116    1
    12   117   127   am
    13    83    82    1
    14    83    84    2
    15    79    78    1
    16    79    81   am
    17    82    81    1
    18    82    85    1
    19    90    91    1
    20    90    93    1
    21   116   115    1
    22   116   119    1
    23   124   122   ar
    24   128   127    1
    25   128   131    1
    26    91    92    2
    27    78    77    1
    28   120   122   ar
    29   120   119    1
    30    88    86    1
    31    85    86    1
    32    93    94    1
    33   131   132    1
    34    72    71    2
    35   135   136    1
    36    86    87    1
    37    77    71   am
    38   142   140   ar
    39   142   144   ar
    40   133   132    2
    41   139   136    1
    42   139   140    1
    43   132   134   am
    44   136   137    1
    45    71    70    1
    46   140   141   ar
    47    94    95   ar
    48    94    96   ar
    49    95    97   ar
    50   144   143   ar
    51   112   111    2
    52    96    98   ar
    53    97    99   ar
    54   141   143   ar
    55   137   145   am
    56   137   138    2
    57    70    73    1
    58    70    69    1
    59   111   110    1
    60    73    74    1
    61   145   146    1
    62    98    99   ar
    63    67    66    2
    64    69    66   am
    65    99   100    1
    66    66    65    1
    67   159   158    1
    68    64    65    1
    69   110   109    1
    70   110   113    1
    71    65    68    1
    72    74    75    1
    73    74    76    1
    74   146   149    1
    75   146   147    1
    76    59    58    2
    77    54    53    1
    78   154   147   am
    79   154   155    1
    80   149   150    1
    81    58    57    1
    82   114   113    1
    83   147   148    2
    84   158   155    1
    85   158   160    1
    86   153   151   ar
    87   155   156    1
    88   156   157    2
    89    53    55    1
    90    53    50    1
    91    63    61   ar
    92   150   151    1
    93    52    51    2
    94    57    56    1
    95    57    60    1
    96   151   152   ar
    97    51    56   am
    98    51    50    1
    99    50    49    1
   100    61    60    1
   101    61    62   ar
   102   104   103    2
   103    49    44   am
   104   103   102    1
   105   161   162    1
   106   101   102    1
   107   102   105    1
   108    30    32   ar
   109    30    28   ar
   110   167   166    1
   111   167   168    1
   112    32    31   ar
   113    44    45    2
   114    44    43    1
   115   166   165    1
   116   162   165    1
   117   162   163    1
   118    19    20    1
   119    19    16    1
   120   163   164    2
   121    14    12   ar
   122    14    13   ar
   123    28    27   ar
   124    46    43    1
   125    46    47    1
   126    43    42    1
   127    20    21    1
   128   105   106    1
   129    31    29   ar
   130   106   107    1
   131    18    17    2
   132    12    10   ar
   133    13    11   ar
   134    16    17    1
   135    16    15    1
   136    17    22   am
   137    36    35    2
   138    27    29   ar
   139    27    26    1
   140    47    48    1
   141    42    35   am
   142    42    48    1
   143    21    15    1
   144    10     8   ar
   145    10     9   ar
   146    11     8   ar
   147    35    34    1
   148    22    23    1
   149    15     3   am
   150    23    26    1
   151    23    24    1
   152   107   108    1
   153     8     6   ar
   154     9     7   ar
   155     3     4    2
   156     3     2    1
   157    24    25    2
   158    34    37    1
   159    34    33    1
   160    37    38    1
   161     6     7   ar
   162     6     5    1
   163     2     1    1
   164     2     5    1
   165    38    39    1
   166    39    40    1
   167    40    41    1
