@<TRIPOS>MOLECULE
tmp/5jwqA00.pdb
 106 100 0 0 0
SMALL
GASTEIGER

@<TRIPOS>ATOM
      1  N        -40.2180  -41.1780  -15.4140 N.3    31  SER31      -0.1202
      2  CA       -41.0390  -40.9980  -14.2200 C.3    31  SER31       0.2020
      3  C        -42.4450  -41.5450  -14.4290 C.2    31  SER31       0.2619
      4  O        -43.1210  -41.1830  -15.3940 O.2    31  SER31      -0.2717
      5  CB       -41.1130  -39.5210  -13.8360 C.3    31  SER31       0.2103
      6  OG       -39.8400  -39.0140  -13.4880 O.3    31  SER31      -0.2182
      7  N        -42.8810  -42.4130  -13.5210 N.am   32  GLY32      -0.1942
      8  CA       -44.2190  -42.9700  -13.5900 C.3    32  GLY32       0.2014
      9  C        -44.3160  -44.4050  -14.0790 C.2    32  GLY32       0.2640
     10  O        -45.3660  -44.8150  -14.5770 O.2    32  GLY32      -0.2714
     11  N        -43.2380  -45.1730  -13.9330 N.am   33  THR33      -0.1936
     12  CA       -43.2210  -46.5550  -14.4100 C.3    33  THR33       0.2028
     13  C        -42.9850  -47.5940  -13.3170 C.2    33  THR33       0.2643
     14  O        -42.7260  -48.7610  -13.6150 O.2    33  THR33      -0.2714
     15  CB       -42.1350  -46.7570  -15.4750 C.3    33  THR33       0.1808
     16  OG1      -42.2780  -48.0520  -16.0760 O.3    33  THR33      -0.2208
     17  CG2      -40.7420  -46.6010  -14.8850 C.3    33  THR33       0.0379
     18  N        -43.0960  -47.1840  -12.0590 N.am   34  GLY34      -0.1939
     19  CA       -43.0190  -48.1220  -10.9520 C.3    34  GLY34       0.2014
     20  C        -41.6340  -48.6730  -10.6550 C.2    34  GLY34       0.2639
     21  O        -41.4850  -49.8700  -10.4120 O.2    34  GLY34      -0.2714
     22  N        -40.6190  -47.8110  -10.6800 N.am   35  LYS35      -0.1963
     23  CA       -39.2770  -48.2050  -10.2570 C.3    35  LYS35       0.1728
     24  C        -39.2410  -48.4440   -8.7450 C.2    35  LYS35       0.2617
     25  O        -38.8140  -49.5110   -8.2740 O.2    35  LYS35      -0.2715
     26  CB       -38.2490  -47.1340  -10.6460 C.3    35  LYS35       0.0311
     27  CG       -38.4900  -46.4600  -11.9960 C.3    35  LYS35       0.0038
     28  CD       -37.3990  -45.4330  -12.2990 C.3    35  LYS35       0.0206
     29  CE       -37.8910  -44.0040  -12.1040 C.3    35  LYS35       0.1093
     30  NZ       -38.6080  -43.4740  -13.2930 N.3    35  LYS35      -0.1314
     31  N        -39.6700  -47.4300   -7.9950 N.am   36  THR36      -0.1937
     32  CA       -39.7680  -47.5090   -6.5390 C.3    36  THR36       0.2028
     33  C        -40.5780  -48.7360   -6.1370 C.2    36  THR36       0.2642
     34  O        -40.2230  -49.4550   -5.2000 O.2    36  THR36      -0.2714
     35  CB       -40.4220  -46.2420   -5.9450 C.3    36  THR36       0.1808
     36  OG1      -39.7130  -45.0760   -6.3830 O.3    36  THR36      -0.2208
     37  CG2      -40.4480  -46.2990   -4.4260 C.3    36  THR36       0.0379
     38  N        -41.6660  -48.9620   -6.8690 N.am   37  LEU37      -0.1977
     39  CA       -42.5460  -50.1000   -6.6410 C.3    37  LEU37       0.1596
     40  C        -41.7710  -51.3980   -6.8530 C.2    37  LEU37       0.2287
     41  O        -41.9370  -52.3550   -6.0960 O.2    37  LEU37      -0.2864
     42  CB       -43.7690  -50.0260   -7.5610 C.3    37  LEU37       0.0297
     43  CG       -45.0090  -50.8660   -7.2250 C.3    37  LEU37       0.0022
     44  CD1      -46.2480  -50.2250   -7.8300 C.3    37  LEU37       0.0001
     45  CD2      -44.8840  -52.3070   -7.6940 C.3    37  LEU37       0.0001
     46  N        -39.1710  -39.8480   -1.5260 N.3    61  GLU61      -0.1245
     47  CA       -40.3950  -40.0410   -0.7650 C.3    61  GLU61       0.1567
     48  C        -40.2380  -39.9450    0.7480 C.2    61  GLU61       0.2260
     49  O        -39.1450  -40.0970    1.2900 O.2    61  GLU61      -0.2867
     50  CB       -40.9990  -41.3950   -1.1340 C.3    61  GLU61       0.0388
     51  CG       -41.4450  -41.4620   -2.5820 C.3    61  GLU61       0.1160
     52  CD       -42.0620  -42.7890   -2.9410 C.2    61  GLU61       0.3649
     53  OE1      -42.1870  -43.6350   -2.0400 O.co2  61  GLU61      -0.2457
     54  OE2      -42.4160  -42.9910   -4.1200 O.co2  61  GLU61      -0.2457
     55  N        -48.2150  -45.7160    0.2520 N.3    69  ASN69      -0.1240
     56  CA       -48.0130  -46.2560   -1.0900 C.3    69  ASN69       0.1653
     57  C        -48.2410  -47.7670   -1.1170 C.2    69  ASN69       0.2266
     58  O        -49.1890  -48.2480   -1.7330 O.2    69  ASN69      -0.2867
     59  CB       -46.6120  -45.9090   -1.6110 C.3    69  ASN69       0.1155
     60  CG       -46.3200  -46.5080   -2.9840 C.2    69  ASN69       0.2627
     61  OD1      -47.2150  -46.9800   -3.6790 O.2    69  ASN69      -0.2716
     62  ND2      -45.0600  -46.4650   -3.3860 N.am   69  ASN69      -0.0877
     63  N        -51.4530  -50.0320   -0.6660 N.3    72  SER72      -0.1202
     64  CA       -52.4660  -50.0780   -1.7190 C.3    72  SER72       0.2020
     65  C        -52.6790  -51.4880   -2.2680 C.2    72  SER72       0.2618
     66  O        -53.7940  -51.8670   -2.6310 O.2    72  SER72      -0.2717
     67  CB       -52.0670  -49.1350   -2.8580 C.3    72  SER72       0.2103
     68  OG       -53.0760  -49.0480   -3.8470 O.3    72  SER72      -0.2182
     69  N        -51.5980  -52.2560   -2.3240 N.am   73  PHE73      -0.1975
     70  CA       -51.6210  -53.6020   -2.8870 C.3    73  PHE73       0.1639
     71  C        -51.8940  -54.6710   -1.8320 C.2    73  PHE73       0.2290
     72  O        -51.8330  -55.8670   -2.1210 O.2    73  PHE73      -0.2864
     73  CB       -50.3190  -53.8820   -3.6380 C.3    73  PHE73       0.0560
     74  CG       -50.1450  -53.0320   -4.8650 C.ar   73  PHE73      -0.0200
     75  CD1      -51.1790  -52.2110   -5.2990 C.ar   73  PHE73      -0.0042
     76  CD2      -48.9630  -53.0520   -5.5860 C.ar   73  PHE73      -0.0042
     77  CE1      -51.0380  -51.4290   -6.4180 C.ar   73  PHE73      -0.0003
     78  CE2      -48.8160  -52.2660   -6.7130 C.ar   73  PHE73      -0.0003
     79  CZ       -49.8530  -51.4490   -7.1240 C.ar   73  PHE73      -0.0000
     80  N        -33.9650  -45.7330   -3.6290 N.3   128  ASP128     -0.1239
     81  CA       -34.9050  -45.0460   -4.5120 C.3   128  ASP128      0.1674
     82  C        -34.4630  -43.6580   -4.9790 C.2   128  ASP128      0.2266
     83  O        -34.3850  -42.7210   -4.1850 O.2   128  ASP128     -0.2867
     84  CB       -36.2650  -44.9130   -3.8230 C.3   128  ASP128      0.1410
     85  CG       -37.3350  -44.3530   -4.7450 C.2   128  ASP128      0.3668
     86  OD1      -37.2200  -44.5210   -5.9780 O.co2 128  ASP128     -0.2456
     87  OD2      -38.2930  -43.7350   -4.2350 O.co2 128  ASP128     -0.2456
     88  N        -46.4530  -50.8450  -20.9140 N.3   196  ARG196     -0.1245
     89  CA       -45.4200  -50.8660  -19.8950 C.3   196  ARG196      0.1563
     90  C        -44.5220  -52.0550  -20.1910 C.2   196  ARG196      0.2260
     91  O        -44.9950  -53.1920  -20.2510 O.2   196  ARG196     -0.2867
     92  CB       -46.0270  -50.9780  -18.4960 C.3   196  ARG196      0.0307
     93  CG       -47.3840  -50.2930  -18.3310 C.3   196  ARG196      0.0489
     94  CD       -47.2750  -48.9930  -17.5730 C.3   196  ARG196      0.2205
     95  NE       -47.1760  -49.1650  -16.1300 N.pl3 196  ARG196     -0.0865
     96  CZ       -48.2350  -49.2440  -15.3440 C.cat 196  ARG196      0.5346
     97  NH1      -48.1060  -49.3960  -14.0340 N.pl3 196  ARG196      0.1354
     98  NH2      -49.4360  -49.1520  -15.8880 N.pl3 196  ARG196      0.1354
     99  N        -49.1570  -54.3300  -13.8660 N.3   217  ILE217     -0.1245
    100  CA       -49.0530  -54.4130  -12.4170 C.3   217  ILE217      0.1561
    101  C        -50.3070  -55.0250  -11.8080 C.2   217  ILE217      0.2260
    102  O        -51.4140  -54.8640  -12.3220 O.2   217  ILE217     -0.2867
    103  CB       -48.7720  -53.0150  -11.7810 C.3   217  ILE217      0.0252
    104  CG1      -50.0500  -52.1870  -11.5890 C.3   217  ILE217      0.0019
    105  CG2      -47.7390  -52.2570  -12.5970 C.3   217  ILE217      0.0019
    106  CD1      -50.7210  -52.3610  -10.2270 C.3   217  ILE217      0.0001
@<TRIPOS>BOND
     1    88    89    1
     2    91    90    2
     3    90    89    1
     4    89    92    1
     5    92    93    1
     6    93    94    1
     7    94    95    1
     8    95    96    2
     9    16    15    1
    10    98    96    1
    11    15    17    1
    12    15    12    1
    13     1     2    1
    14     4     3    2
    15    96    97    1
    16    10     9    2
    17     3     2    1
    18     3     7   am
    19    12    11    1
    20    12    13    1
    21     2     5    1
    22     9    11   am
    23     9     8    1
    24    99   100    1
    25     5     6    1
    26    14    13    2
    27     8     7    1
    28    13    18   am
    29    30    29    1
    30   105   103    1
    31   100   101    1
    32   100   103    1
    33   102   101    2
    34    28    29    1
    35    28    27    1
    36    18    19    1
    37    27    26    1
    38   103   104    1
    39   104   106    1
    40    19    20    1
    41    22    20   am
    42    22    23    1
    43    20    21    2
    44    26    23    1
    45    23    24    1
    46    24    25    2
    47    24    31   am
    48    31    32    1
    49    44    43    1
    50    45    43    1
    51    42    43    1
    52    42    39    1
    53    79    78   ar
    54    79    77   ar
    55    38    39    1
    56    38    33   am
    57    40    39    1
    58    40    41    2
    59    78    76   ar
    60    32    33    1
    61    32    35    1
    62    77    75   ar
    63    36    35    1
    64    33    34    2
    65    86    85   ar
    66    35    37    1
    67    76    74   ar
    68    75    74   ar
    69    82    81    1
    70    82    83    2
    71    74    73    1
    72    85    87   ar
    73    85    84    1
    74    81    84    1
    75    81    80    1
    76    54    52   ar
    77    68    67    1
    78    61    60    2
    79    73    70    1
    80    62    60   am
    81    60    59    1
    82    52    51    1
    83    52    53   ar
    84    70    69    1
    85    70    71    1
    86    67    64    1
    87    66    65    2
    88    51    50    1
    89    69    65   am
    90    65    64    1
    91    72    71    2
    92    58    57    2
    93    64    63    1
    94    59    56    1
    95    46    47    1
    96    50    47    1
    97    57    56    1
    98    56    55    1
    99    47    48    1
   100    48    49    2
