@<TRIPOS>MOLECULE
tmp/5jxfA00.pdb
 121 114 0 0 0
SMALL
GASTEIGER

@<TRIPOS>ATOM
      1  N        136.3920  -10.9150  210.9540 N.3    68  HIS68      -0.1241
      2  CA       137.8230  -10.9350  210.6870 C.3    68  HIS68       0.1621
      3  C        138.6630  -10.6250  211.9560 C.2    68  HIS68       0.2264
      4  O        139.8510  -10.9080  211.9720 O.2    68  HIS68      -0.2867
      5  CB       138.1920   -9.9990  209.5290 C.3    68  HIS68       0.0745
      6  CG       138.1500   -8.5380  209.8590 C.ar   68  HIS68       0.0817
      7  ND1      137.0970   -7.7250  209.4910 N.ar   68  HIS68      -0.2268
      8  CD2      139.0510   -7.7330  210.4690 C.ar   68  HIS68       0.1154
      9  CE1      137.3410   -6.4860  209.8800 C.ar   68  HIS68       0.1986
     10  NE2      138.5180   -6.4650  210.4820 N.ar   68  HIS68      -0.2212
     11  N        132.8720  -13.0760  205.4150 N.3   188  LYS188     -0.1245
     12  CA       133.5960  -12.2180  204.4860 C.3   188  LYS188      0.1561
     13  C        133.0620  -12.3940  203.0610 C.2   188  LYS188      0.2260
     14  O        133.8220  -12.5860  202.1130 O.2   188  LYS188     -0.2867
     15  CB       135.0990  -12.4980  204.5570 C.3   188  LYS188      0.0271
     16  CG       135.4840  -13.9650  204.5990 C.3   188  LYS188      0.0035
     17  CD       136.9350  -14.1320  205.0420 C.3   188  LYS188      0.0206
     18  CE       137.8680  -13.2600  204.2160 C.3   188  LYS188      0.1093
     19  NZ       139.2960  -13.6430  204.3720 N.3   188  LYS188     -0.1314
     20  N        134.9340  -11.4990  199.8990 N.3   191  SER191     -0.1202
     21  CA       136.3660  -11.5460  200.2160 C.3   191  SER191      0.2020
     22  C        137.0890  -10.2700  199.8060 C.2   191  SER191      0.2618
     23  O        136.7200   -9.1660  200.2190 O.2   191  SER191     -0.2717
     24  CB       137.0310  -12.7500  199.5340 C.3   191  SER191      0.2103
     25  OG       136.8070  -13.9550  200.2470 O.3   191  SER191     -0.2182
     26  N        138.0920  -10.4270  198.9500 N.am  192  ASP192     -0.1973
     27  CA       138.9230   -9.3080  198.5600 C.3   192  ASP192      0.1709
     28  C        138.3080   -8.4340  197.4660 C.2   192  ASP192      0.2293
     29  O        138.6440   -7.2530  197.3560 O.2   192  ASP192     -0.2864
     30  CB       140.2910   -9.8210  198.1400 C.3   192  ASP192      0.1436
     31  CG       141.0190  -10.5100  199.2850 C.2   192  ASP192      0.3671
     32  OD1      140.4880  -10.5100  200.4270 O.co2 192  ASP192     -0.2456
     33  OD2      142.1210  -11.0470  199.0490 O.co2 192  ASP192     -0.2456
     34  N        136.2760   -6.1070  199.6440 N.3   195  ASN195     -0.1225
     35  CA       137.0120   -5.4430  200.7360 C.3   195  ASN195      0.1785
     36  C        137.2220   -3.9630  200.4240 C.2   195  ASN195      0.2597
     37  O        137.5570   -3.6090  199.2910 O.2   195  ASN195     -0.2718
     38  CB       138.3540   -6.1200  200.9610 C.3   195  ASN195      0.1169
     39  CG       138.9850   -5.7480  202.3170 C.2   195  ASN195      0.2627
     40  OD1      138.2860   -5.4020  203.2810 O.2   195  ASN195     -0.2716
     41  ND2      140.3010   -5.8100  202.3790 N.am  195  ASN195     -0.0877
     42  N        137.0050   -3.1090  201.4260 N.am  196  TRP196     -0.1976
     43  CA       137.0610   -1.6400  201.2760 C.3   196  TRP196      0.1640
     44  C        136.0310   -1.0790  200.2790 C.2   196  TRP196      0.2290
     45  O        136.2020    0.0230  199.7930 O.2   196  TRP196     -0.2864
     46  CB       138.4510   -1.1560  200.8410 C.3   196  TRP196      0.0576
     47  CG       139.5660   -1.6290  201.6970 C.ar  196  TRP196      0.0006
     48  CD1      140.4170   -2.6590  201.4340 C.ar  196  TRP196      0.0946
     49  CD2      139.9660   -1.0880  202.9580 C.ar  196  TRP196      0.0152
     50  NE1      141.3240   -2.7970  202.4520 N.ar  196  TRP196     -0.2442
     51  CE2      141.0740   -1.8420  203.4000 C.ar  196  TRP196      0.0810
     52  CE3      139.5010   -0.0350  203.7530 C.ar  196  TRP196      0.0012
     53  CZ2      141.7150   -1.5910  204.6240 C.ar  196  TRP196      0.0191
     54  CZ3      140.1500    0.2240  204.9700 C.ar  196  TRP196      0.0001
     55  CH2      141.2470   -0.5510  205.3860 C.ar  196  TRP196      0.0015
     56  N        128.0710   -2.9690  200.2210 N.3   200  ARG200     -0.1245
     57  CA       128.6230   -4.1620  200.8320 C.3   200  ARG200      0.1563
     58  C        127.4850   -4.9510  201.4550 C.2   200  ARG200      0.2260
     59  O        126.5640   -4.3780  202.0390 O.2   200  ARG200     -0.2867
     60  CB       129.6740   -3.8040  201.9050 C.3   200  ARG200      0.0307
     61  CG       130.2280   -5.0150  202.6710 C.3   200  ARG200      0.0489
     62  CD       131.5230   -5.5300  202.0270 C.3   200  ARG200      0.2205
     63  NE       132.4750   -4.4660  202.1650 N.pl3 200  ARG200     -0.0865
     64  CZ       133.6100   -4.5160  202.8360 C.cat 200  ARG200      0.5346
     65  NH1      134.0430   -5.6290  203.4110 N.pl3 200  ARG200      0.1354
     66  NH2      134.3290   -3.4280  202.8660 N.pl3 200  ARG200      0.1354
     67  N        129.7130   -9.3200  208.7750 N.3   204  ASP204     -0.1239
     68  CA       131.0560   -9.4320  209.3190 C.3   204  ASP204      0.1674
     69  C        131.0210   -9.4090  210.8490 C.2   204  ASP204      0.2266
     70  O        131.2130   -8.3540  211.4320 O.2   204  ASP204     -0.2867
     71  CB       131.9290   -8.2910  208.7850 C.3   204  ASP204      0.1410
     72  CG       133.4370   -8.5250  209.0200 C.2   204  ASP204      0.3668
     73  OD1      133.8060   -9.4100  209.8220 O.co2 204  ASP204     -0.2456
     74  OD2      134.2570   -7.8010  208.4180 O.co2 204  ASP204     -0.2456
     75  N        144.5940  -13.0260  204.4260 N.3   306  ALA306     -0.1245
     76  CA       143.6760  -11.9070  204.6610 C.3   306  ALA306      0.1562
     77  C        144.3670  -10.6630  205.2470 C.2   306  ALA306      0.2260
     78  O        144.0670   -9.5340  204.8510 O.2   306  ALA306     -0.2867
     79  CB       142.5450  -12.3490  205.5800 C.3   306  ALA306      0.0290
     80  N        146.5620   -9.1940  202.3900 N.3   309  ALA309     -0.1231
     81  CA       145.6770   -8.7180  201.3190 C.3   309  ALA309      0.1694
     82  C        144.9530   -7.4130  201.6680 C.2   309  ALA309      0.2592
     83  O        144.7730   -6.5400  200.8240 O.2   309  ALA309     -0.2718
     84  CB       144.6510   -9.8090  200.9700 C.3   309  ALA309      0.0304
     85  N        144.5460   -7.2910  202.9200 N.am  310  ASN310     -0.1974
     86  CA       143.8230   -6.1250  203.4050 C.3   310  ASN310      0.1688
     87  C        144.5830   -4.8110  203.2270 C.2   310  ASN310      0.2292
     88  O        144.0310   -3.8290  202.7330 O.2   310  ASN310     -0.2864
     89  CB       143.4780   -6.3140  204.8830 C.3   310  ASN310      0.1181
     90  CG       142.5010   -5.2790  205.3780 C.2   310  ASN310      0.2629
     91  OD1      141.4880   -4.9970  204.7250 O.2   310  ASN310     -0.2716
     92  ND2      142.8010   -4.6890  206.5350 N.am  310  ASN310     -0.0877
     93  N        141.8410    1.3720  210.9860 N.3   623  GLY623     -0.1225
     94  CA       142.1050    0.0300  211.4830 C.3   623  GLY623      0.1811
     95  C        142.2300    0.0660  213.0270 C.2   623  GLY623      0.2280
     96  O        142.8690    0.9650  213.5740 O.2   623  GLY623     -0.2866
     97  N        137.6930   -1.8940  213.8110 N.3   626  SER626     -0.1217
     98  CA       137.0360   -3.1650  213.5310 C.3   626  SER626      0.1889
     99  C        136.3840   -3.6970  214.7800 C.2   626  SER626      0.2288
    100  O        137.0440   -3.8470  215.8310 O.2   626  SER626     -0.2866
    101  CB       138.0080   -4.2090  212.9980 C.3   626  SER626      0.2089
    102  OG       138.0380   -4.1830  211.5850 O.3   626  SER626     -0.2183
    103  N        132.9740   -2.1910  210.6230 N.3   642  PHE642     -0.1227
    104  CA       133.9140   -3.1800  210.1040 C.3   642  PHE642      0.1736
    105  C        134.7420   -2.7870  208.8900 C.2   642  PHE642      0.2595
    106  O        135.6620   -3.5190  208.5290 O.2   642  PHE642     -0.2718
    107  CB       133.1830   -4.4930  209.8190 C.3   642  PHE642      0.0547
    108  CG       132.3550   -4.4990  208.5480 C.ar  642  PHE642     -0.0202
    109  CD1      131.0630   -3.9800  208.5360 C.ar  642  PHE642     -0.0042
    110  CD2      132.8410   -5.1000  207.3880 C.ar  642  PHE642     -0.0042
    111  CE1      130.2740   -4.0350  207.3770 C.ar  642  PHE642     -0.0003
    112  CE2      132.0630   -5.1540  206.2080 C.ar  642  PHE642     -0.0003
    113  CZ       130.7810   -4.6240  206.2040 C.ar  642  PHE642     -0.0000
    114  N        134.4830   -1.6280  208.2890 N.am  643  ASP643     -0.1974
    115  CA       135.2990   -1.2140  207.1630 C.3   643  ASP643      0.1709
    116  C        135.1350    0.2570  206.8520 C.2   643  ASP643      0.2293
    117  O        134.3840    0.9540  207.5270 O.2   643  ASP643     -0.2864
    118  CB       134.9340   -2.0310  205.9090 C.3   643  ASP643      0.1436
    119  CG       136.1490   -2.3550  205.0500 C.2   643  ASP643      0.3671
    120  OD1      137.2130   -1.7370  205.2590 O.co2 643  ASP643     -0.2456
    121  OD2      136.0420   -3.2260  204.1610 O.co2 643  ASP643     -0.2456
@<TRIPOS>BOND
     1    29    28    2
     2    28    27    1
     3    30    27    1
     4    30    31    1
     5    27    26    1
     6    26    22   am
     7    33    31   ar
     8    31    32   ar
     9    37    36    2
    10    24    21    1
    11    24    25    1
    12    34    35    1
    13    45    44    2
    14    22    21    1
    15    22    23    2
    16    20    21    1
    17    56    57    1
    18    44    43    1
    19    36    35    1
    20    36    42   am
    21    35    38    1
    22    83    82    2
    23    57    58    1
    24    57    60    1
    25    46    43    1
    26    46    47    1
    27    38    39    1
    28    84    81    1
    29    43    42    1
    30    81    82    1
    31    81    80    1
    32    48    47   ar
    33    48    50   ar
    34    58    59    2
    35    82    85   am
    36    47    49   ar
    37    60    61    1
    38    62    63    1
    39    62    61    1
    40    14    13    2
    41    63    64    2
    42    39    41   am
    43    39    40    2
    44    50    51   ar
    45    88    87    2
    46    64    66    1
    47    64    65    1
    48    85    86    1
    49    49    51   ar
    50    49    52   ar
    51    13    12    1
    52    87    86    1
    53    51    53   ar
    54    86    89    1
    55    52    54   ar
    56   121   119   ar
    57    18    19    1
    58    18    17    1
    59    75    76    1
    60    12    15    1
    61    12    11    1
    62    15    16    1
    63    16    17    1
    64    53    55   ar
    65    76    77    1
    66    76    79    1
    67    91    90    2
    68    78    77    2
    69    89    90    1
    70    54    55   ar
    71   119   120   ar
    72   119   118    1
    73    90    92   am
    74   118   115    1
    75   113   112   ar
    76   113   111   ar
    77   112   110   ar
    78   116   115    1
    79   116   117    2
    80   115   114    1
    81   111   109   ar
    82   110   108   ar
    83   114   105   am
    84    74    72   ar
    85   106   105    2
    86   109   108   ar
    87   108   107    1
    88    67    68    1
    89    71    72    1
    90    71    68    1
    91   105   104    1
    92    72    73   ar
    93    68    69    1
    94     7     6   ar
    95     7     9   ar
    96     5     6    1
    97     5     2    1
    98   107   104    1
    99     6     8   ar
   100     9    10   ar
   101   104   103    1
   102     8    10   ar
   103     2     1    1
   104     2     3    1
   105    69    70    2
   106    93    94    1
   107    94    95    1
   108   102   101    1
   109     3     4    2
   110   101    98    1
   111    95    96    2
   112    98    97    1
   113    98    99    1
   114    99   100    2
