@<TRIPOS>MOLECULE
tmp/5jxfA01.pdb
 120 118 0 0 0
SMALL
GASTEIGER

@<TRIPOS>ATOM
      1  N        141.7230   -4.7570  217.8170 N.3    52  CYS52      -0.1235
      2  CA       140.3430   -4.5210  217.3860 C.3    52  CYS52       0.1677
      3  C        139.4910   -4.0400  218.5450 C.2    52  CYS52       0.2270
      4  O        139.9640   -3.9260  219.6810 O.2    52  CYS52      -0.2867
      5  CB       139.7400   -5.7940  216.7800 C.3    52  CYS52       0.0956
      6  SG       140.8260   -6.5590  215.5450 S.3    52  CYS52      -0.0801
      7  N        136.3920  -10.9150  210.9540 N.3    68  HIS68      -0.1241
      8  CA       137.8230  -10.9350  210.6870 C.3    68  HIS68       0.1621
      9  C        138.6630  -10.6250  211.9560 C.2    68  HIS68       0.2264
     10  O        139.8510  -10.9080  211.9720 O.2    68  HIS68      -0.2867
     11  CB       138.1920   -9.9990  209.5290 C.3    68  HIS68       0.0745
     12  CG       138.1500   -8.5380  209.8590 C.ar   68  HIS68       0.0817
     13  ND1      137.0970   -7.7250  209.4910 N.ar   68  HIS68      -0.2268
     14  CD2      139.0510   -7.7330  210.4690 C.ar   68  HIS68       0.1154
     15  CE1      137.3410   -6.4860  209.8800 C.ar   68  HIS68       0.1986
     16  NE2      138.5180   -6.4650  210.4820 N.ar   68  HIS68      -0.2212
     17  N        136.2760   -6.1070  199.6440 N.3   195  ASN195     -0.1225
     18  CA       137.0120   -5.4430  200.7360 C.3   195  ASN195      0.1785
     19  C        137.2220   -3.9630  200.4240 C.2   195  ASN195      0.2597
     20  O        137.5570   -3.6090  199.2910 O.2   195  ASN195     -0.2718
     21  CB       138.3540   -6.1200  200.9610 C.3   195  ASN195      0.1169
     22  CG       138.9850   -5.7480  202.3170 C.2   195  ASN195      0.2627
     23  OD1      138.2860   -5.4020  203.2810 O.2   195  ASN195     -0.2716
     24  ND2      140.3010   -5.8100  202.3790 N.am  195  ASN195     -0.0877
     25  N        137.0050   -3.1090  201.4260 N.am  196  TRP196     -0.1976
     26  CA       137.0610   -1.6400  201.2760 C.3   196  TRP196      0.1640
     27  C        136.0310   -1.0790  200.2790 C.2   196  TRP196      0.2290
     28  O        136.2020    0.0230  199.7930 O.2   196  TRP196     -0.2864
     29  CB       138.4510   -1.1560  200.8410 C.3   196  TRP196      0.0576
     30  CG       139.5660   -1.6290  201.6970 C.ar  196  TRP196      0.0006
     31  CD1      140.4170   -2.6590  201.4340 C.ar  196  TRP196      0.0946
     32  CD2      139.9660   -1.0880  202.9580 C.ar  196  TRP196      0.0152
     33  NE1      141.3240   -2.7970  202.4520 N.ar  196  TRP196     -0.2442
     34  CE2      141.0740   -1.8420  203.4000 C.ar  196  TRP196      0.0810
     35  CE3      139.5010   -0.0350  203.7530 C.ar  196  TRP196      0.0012
     36  CZ2      141.7150   -1.5910  204.6240 C.ar  196  TRP196      0.0191
     37  CZ3      140.1500    0.2240  204.9700 C.ar  196  TRP196      0.0001
     38  CH2      141.2470   -0.5510  205.3860 C.ar  196  TRP196      0.0015
     39  N        144.5460   -7.2910  202.9200 N.3   310  ASN310     -0.1240
     40  CA       143.8230   -6.1250  203.4050 C.3   310  ASN310      0.1653
     41  C        144.5830   -4.8110  203.2270 C.2   310  ASN310      0.2266
     42  O        144.0310   -3.8290  202.7330 O.2   310  ASN310     -0.2867
     43  CB       143.4780   -6.3140  204.8830 C.3   310  ASN310      0.1155
     44  CG       142.5010   -5.2790  205.3780 C.2   310  ASN310      0.2627
     45  OD1      141.4880   -4.9970  204.7250 O.2   310  ASN310     -0.2716
     46  ND2      142.8010   -4.6890  206.5350 N.am  310  ASN310     -0.0877
     47  N        136.7530    6.5650  211.1830 N.3   621  THR621     -0.1203
     48  CA       137.3770    5.3570  211.7190 C.3   621  THR621      0.1994
     49  C        138.6870    5.0120  211.0290 C.2   621  THR621      0.2619
     50  O        139.0470    5.6270  210.0280 O.2   621  THR621     -0.2717
     51  CB       136.4420    4.1360  211.5800 C.3   621  THR621      0.1784
     52  OG1      136.0350    4.0130  210.2140 O.3   621  THR621     -0.2211
     53  CG2      135.2040    4.2880  212.4580 C.3   621  THR621      0.0376
     54  N        139.3900    4.0110  211.5540 N.am  622  THR622     -0.1938
     55  CA       140.5920    3.4940  210.8950 C.3   622  THR622      0.2028
     56  C        140.7900    2.0660  211.4200 C.2   622  THR622      0.2643
     57  O        139.9740    1.5940  212.2070 O.2   622  THR622     -0.2714
     58  CB       141.8280    4.4270  211.1400 C.3   622  THR622      0.1808
     59  OG1      142.9540    4.0130  210.3470 O.3   622  THR622     -0.2208
     60  CG2      142.2190    4.4520  212.6010 C.3   622  THR622      0.0379
     61  N        141.8410    1.3720  210.9860 N.am  623  GLY623     -0.1939
     62  CA       142.1050    0.0300  211.4830 C.3   623  GLY623      0.2014
     63  C        142.2300    0.0660  213.0270 C.2   623  GLY623      0.2639
     64  O        142.8690    0.9650  213.5740 O.2   623  GLY623     -0.2714
     65  N        141.6130   -0.8920  213.7050 N.am  624  GLY624     -0.1939
     66  CA       141.4540   -0.8400  215.1510 C.3   624  GLY624      0.2014
     67  C        139.9970   -0.6550  215.5400 C.2   624  GLY624      0.2639
     68  O        139.5620   -1.1310  216.5960 O.2   624  GLY624     -0.2714
     69  N        139.2500    0.0280  214.6690 N.am  625  ASN625     -0.1958
     70  CA       137.8340    0.2700  214.8690 C.3   625  ASN625      0.1819
     71  C        137.0240   -0.9140  214.4120 C.2   625  ASN625      0.2622
     72  O        135.8070   -0.9300  214.5840 O.2   625  ASN625     -0.2715
     73  CB       137.3570    1.4980  214.1060 C.3   625  ASN625      0.1195
     74  CG       137.3870    2.7610  214.9310 C.2   625  ASN625      0.2630
     75  OD1      137.8770    3.7940  214.4750 O.2   625  ASN625     -0.2716
     76  ND2      136.8570    2.6950  216.1550 N.am  625  ASN625     -0.0877
     77  N        137.6930   -1.8940  213.8110 N.am  626  SER626     -0.1950
     78  CA       137.0360   -3.1650  213.5310 C.3   626  SER626      0.1924
     79  C        136.3840   -3.6970  214.7800 C.2   626  SER626      0.2314
     80  O        137.0440   -3.8470  215.8310 O.2   626  SER626     -0.2863
     81  CB       138.0080   -4.2090  212.9980 C.3   626  SER626      0.2116
     82  OG       138.0380   -4.1830  211.5850 O.3   626  SER626     -0.2180
     83  N        130.7030   -1.7750  213.3860 N.3   641  ASN641     -0.1225
     84  CA       131.6530   -1.2280  212.4250 C.3   641  ASN641      0.1785
     85  C        132.6220   -2.2680  211.9090 C.2   641  ASN641      0.2597
     86  O        133.0400   -3.1450  212.6600 O.2   641  ASN641     -0.2718
     87  CB       132.4260   -0.0740  213.0370 C.3   641  ASN641      0.1169
     88  CG       133.3410    0.5950  212.0550 C.2   641  ASN641      0.2627
     89  OD1      132.8810    1.3160  211.1660 O.2   641  ASN641     -0.2716
     90  ND2      134.6540    0.3760  212.2070 N.am  641  ASN641     -0.0877
     91  N        132.9740   -2.1910  210.6230 N.am  642  PHE642     -0.1962
     92  CA       133.9140   -3.1800  210.1040 C.3   642  PHE642      0.1771
     93  C        134.7420   -2.7870  208.8900 C.2   642  PHE642      0.2620
     94  O        135.6620   -3.5190  208.5290 O.2   642  PHE642     -0.2715
     95  CB       133.1830   -4.4930  209.8190 C.3   642  PHE642      0.0574
     96  CG       132.3550   -4.4990  208.5480 C.ar  642  PHE642     -0.0200
     97  CD1      131.0630   -3.9800  208.5360 C.ar  642  PHE642     -0.0042
     98  CD2      132.8410   -5.1000  207.3880 C.ar  642  PHE642     -0.0042
     99  CE1      130.2740   -4.0350  207.3770 C.ar  642  PHE642     -0.0003
    100  CE2      132.0630   -5.1540  206.2080 C.ar  642  PHE642     -0.0003
    101  CZ       130.7810   -4.6240  206.2040 C.ar  642  PHE642     -0.0000
    102  N        134.4830   -1.6280  208.2890 N.am  643  ASP643     -0.1957
    103  CA       135.2990   -1.2140  207.1630 C.3   643  ASP643      0.1840
    104  C        135.1350    0.2570  206.8520 C.2   643  ASP643      0.2621
    105  O        134.3840    0.9540  207.5270 O.2   643  ASP643     -0.2715
    106  CB       134.9340   -2.0310  205.9090 C.3   643  ASP643      0.1450
    107  CG       136.1490   -2.3550  205.0500 C.2   643  ASP643      0.3671
    108  OD1      137.2130   -1.7370  205.2590 O.co2 643  ASP643     -0.2456
    109  OD2      136.0420   -3.2260  204.1610 O.co2 643  ASP643     -0.2456
    110  N        135.8300    0.7080  205.8070 N.am  644  ARG644     -0.1977
    111  CA       135.6180    2.0240  205.2090 C.3   644  ARG644      0.1597
    112  C        135.3490    1.8410  203.7300 C.2   644  ARG644      0.2287
    113  O        135.7650    0.8390  203.1510 O.2   644  ARG644     -0.2864
    114  CB       136.8340    2.9270  205.3780 C.3   644  ARG644      0.0334
    115  CG       137.0500    3.4950  206.7810 C.3   644  ARG644      0.0492
    116  CD       138.3910    4.1430  206.8230 C.3   644  ARG644      0.2205
    117  NE       139.4140    3.1620  207.1590 N.pl3 644  ARG644     -0.0865
    118  CZ       140.7190    3.3760  207.0480 C.cat 644  ARG644      0.5346
    119  NH1      141.1500    4.5300  206.5640 N.pl3 644  ARG644      0.1354
    120  NH2      141.5860    2.4320  207.4080 N.pl3 644  ARG644      0.1354
@<TRIPOS>BOND
     1    20    19    2
     2    17    18    1
     3    28    27    2
     4    27    26    1
     5    19    18    1
     6    19    25   am
     7    18    21    1
     8    29    26    1
     9    29    30    1
    10    21    22    1
    11    26    25    1
    12    31    30   ar
    13    31    33   ar
    14    30    32   ar
    15    22    24   am
    16    22    23    2
    17    33    34   ar
    18    42    41    2
    19    39    40    1
    20    32    34   ar
    21    32    35   ar
    22   113   112    2
    23    41    40    1
    24    34    36   ar
    25    40    43    1
    26   112   111    1
    27    35    37   ar
    28   109   107   ar
    29    36    38   ar
    30    45    44    2
    31    43    44    1
    32    37    38   ar
    33   107   108   ar
    34   107   106    1
    35   111   114    1
    36   111   110    1
    37   114   115    1
    38    44    46   am
    39   110   104   am
    40   106   103    1
    41   101   100   ar
    42   101    99   ar
    43   100    98   ar
    44   119   118    1
    45   115   116    1
    46   116   117    1
    47   104   103    1
    48   104   105    2
    49   118   117    2
    50   118   120    1
    51   103   102    1
    52    99    97   ar
    53    98    96   ar
    54   102    93   am
    55    94    93    2
    56    97    96   ar
    57    96    95    1
    58    93    92    1
    59    13    12   ar
    60    13    15   ar
    61    11    12    1
    62    11     8    1
    63    95    92    1
    64    12    14   ar
    65    15    16   ar
    66    50    49    2
    67    92    91    1
    68    52    51    1
    69    59    58    1
    70    14    16   ar
    71    91    85   am
    72     8     7    1
    73     8     9    1
    74    55    58    1
    75    55    56    1
    76    55    54    1
    77    61    56   am
    78    61    62    1
    79    49    54   am
    80    49    48    1
    81    58    60    1
    82    89    88    2
    83    47    48    1
    84    56    57    2
    85    62    63    1
    86    51    48    1
    87    51    53    1
    88    82    81    1
    89    85    84    1
    90    85    86    2
    91     9    10    2
    92    88    90   am
    93    88    87    1
    94    84    87    1
    95    84    83    1
    96    81    78    1
    97    63    64    2
    98    63    65   am
    99    78    77    1
   100    78    79    1
   101    65    66    1
   102    77    71   am
   103    73    70    1
   104    73    74    1
   105    71    72    2
   106    71    70    1
   107    75    74    2
   108    69    70    1
   109    69    67   am
   110    79    80    2
   111    74    76   am
   112    66    67    1
   113    67    68    2
   114     6     5    1
   115     5     2    1
   116     2     1    1
   117     2     3    1
   118     3     4    2
