@<TRIPOS>MOLECULE
tmp/5jxmA00.pdb
 161 156 0 0 0
SMALL
GASTEIGER

@<TRIPOS>ATOM
      1  N         17.2110   68.2920   15.6310 N.3    54  PHE54      -0.1227
      2  CA        17.8460   67.1620   16.2520 C.3    54  PHE54       0.1736
      3  C         19.0260   66.6680   15.4010 C.2    54  PHE54       0.2595
      4  O         19.7340   65.7580   15.8420 O.2    54  PHE54      -0.2718
      5  CB        16.7480   66.0920   16.4030 C.3    54  PHE54       0.0547
      6  CG        17.2070   64.8260   17.0380 C.ar   54  PHE54      -0.0202
      7  CD1       17.8880   64.8170   18.2410 C.ar   54  PHE54      -0.0042
      8  CD2       16.9160   63.6370   16.4610 C.ar   54  PHE54      -0.0042
      9  CE1       18.2990   63.6260   18.8210 C.ar   54  PHE54      -0.0003
     10  CE2       17.3080   62.4610   17.0220 C.ar   54  PHE54      -0.0003
     11  CZ        17.9950   62.4340   18.2000 C.ar   54  PHE54      -0.0000
     12  N         19.2980   67.2630   14.2480 N.am   55  LEU55      -0.1966
     13  CA        20.3860   66.7960   13.3870 C.3    55  LEU55       0.1728
     14  C         21.7330   66.8810   14.0950 C.2    55  LEU55       0.2616
     15  O         22.6080   66.0280   13.8940 O.2    55  LEU55      -0.2715
     16  CB        20.3200   67.5640   12.0930 C.3    55  LEU55       0.0311
     17  CG        21.1760   67.1120   10.9020 C.3    55  LEU55       0.0022
     18  CD1       20.5880   67.6610    9.6410 C.3    55  LEU55       0.0001
     19  CD2       22.6580   67.5520   11.0210 C.3    55  LEU55       0.0001
     20  N         21.9040   67.8690   14.9840 N.am   56  SER56      -0.1950
     21  CA        23.1340   68.0000   15.7350 C.3    56  SER56       0.1924
     22  C         22.8310   68.5790   17.1030 C.2    56  SER56       0.2314
     23  O         21.7950   69.2350   17.2840 O.2    56  SER56      -0.2863
     24  CB        24.1910   68.8290   15.0110 C.3    56  SER56       0.2116
     25  OG        23.7930   70.1940   14.9150 O.3    56  SER56      -0.2180
     26  N         25.7900   68.1600    9.1970 N.3    63  GLU63      -0.1245
     27  CA        26.7460   67.2660    9.8520 C.3    63  GLU63       0.1567
     28  C         27.5300   66.5470    8.7420 C.2    63  GLU63       0.2260
     29  O         26.9780   66.3180    7.6740 O.2    63  GLU63      -0.2867
     30  CB        26.0310   66.2590   10.7330 C.3    63  GLU63       0.0388
     31  CG        26.9510   65.3070   11.4740 C.3    63  GLU63       0.1160
     32  CD        26.1980   64.2720   12.2460 C.2    63  GLU63       0.3649
     33  OE1       25.5620   63.4550   11.5100 O.co2  63  GLU63      -0.2457
     34  OE2       26.0940   64.3000   13.4740 O.co2  63  GLU63      -0.2457
     35  N         30.2700   62.3080    3.1690 N.3    77  ARG77      -0.1245
     36  CA        28.8490   62.5060    3.1260 C.3    77  ARG77       0.1563
     37  C         28.5080   63.7660    3.9030 C.2    77  ARG77       0.2260
     38  O         29.1450   64.0960    4.9210 O.2    77  ARG77      -0.2867
     39  CB        28.0870   61.2840    3.7510 C.3    77  ARG77       0.0307
     40  CG        26.5920   61.2780    3.6310 C.3    77  ARG77       0.0489
     41  CD        25.8930   60.1620    4.4310 C.3    77  ARG77       0.2205
     42  NE        25.5370   60.5930    5.7900 N.pl3  77  ARG77      -0.0865
     43  CZ        24.6410   59.9630    6.5800 C.cat  77  ARG77       0.5346
     44  NH1       24.0480   58.9250    6.1020 N.pl3  77  ARG77       0.1354
     45  NH2       24.3410   60.3320    7.8050 N.pl3  77  ARG77       0.1354
     46  N         25.0550   65.5990    5.7000 N.3    79  LEU79      -0.1245
     47  CA        23.6660   65.4810    6.1280 C.3    79  LEU79       0.1561
     48  C         23.1420   66.8680    6.4120 C.2    79  LEU79       0.2260
     49  O         23.7690   67.6230    7.1440 O.2    79  LEU79      -0.2867
     50  CB        23.5820   64.6320    7.3920 C.3    79  LEU79       0.0270
     51  CG        22.2500   64.3310    7.9920 C.3    79  LEU79       0.0019
     52  CD1       21.4380   63.3350    7.1080 C.3    79  LEU79       0.0001
     53  CD2       22.3780   63.7630    9.3700 C.3    79  LEU79       0.0001
     54  N         15.5050   64.8750    6.8420 N.3   134  TRP134     -0.1241
     55  CA        16.8790   65.2450    6.5580 C.3   134  TRP134      0.1605
     56  C         17.2860   64.5980    5.2500 C.2   134  TRP134      0.2264
     57  O         16.6940   63.5970    4.8250 O.2   134  TRP134     -0.2867
     58  CB        17.8510   64.8490    7.6720 C.3   134  TRP134      0.0550
     59  CG        17.5020   65.2870    9.0340 C.ar  134  TRP134      0.0003
     60  CD1       16.7910   66.4160    9.4100 C.ar  134  TRP134      0.0946
     61  CD2       17.8770   64.6360   10.2260 C.ar  134  TRP134      0.0152
     62  NE1       16.7120   66.4680   10.7660 N.ar  134  TRP134     -0.2442
     63  CE2       17.3690   65.3810   11.3040 C.ar  134  TRP134      0.0810
     64  CE3       18.5670   63.4470   10.4920 C.ar  134  TRP134      0.0012
     65  CZ2       17.5240   64.9900   12.6100 C.ar  134  TRP134      0.0191
     66  CZ3       18.7510   63.0550   11.8260 C.ar  134  TRP134      0.0001
     67  CH2       18.1900   63.8020   12.8590 C.ar  134  TRP134      0.0015
     68  N         16.1460   60.8210    5.1830 N.3   150  TYR150     -0.1241
     69  CA        15.9140   60.3610    6.5430 C.3   150  TYR150      0.1605
     70  C         14.5780   60.8320    7.0150 C.2   150  TYR150      0.2264
     71  O         14.3130   62.0590    7.0160 O.2   150  TYR150     -0.2867
     72  CB        17.0290   60.9010    7.4310 C.3   150  TYR150      0.0534
     73  CG        18.2730   60.0730    7.4050 C.ar  150  TYR150     -0.0201
     74  CD1       19.0740   59.9970    6.2700 C.ar  150  TYR150     -0.0009
     75  CD2       18.6740   59.3240    8.5090 C.ar  150  TYR150     -0.0009
     76  CE1       20.1880   59.1660    6.2070 C.ar  150  TYR150      0.0417
     77  CE2       19.7830   58.5240    8.4470 C.ar  150  TYR150      0.0417
     78  CZ        20.5260   58.4170    7.2820 C.ar  150  TYR150      0.1957
     79  OH        21.6420   57.5900    7.1320 O.3   150  TYR150     -0.2866
     80  N         15.1480   56.3430   13.0080 N.3   189  PHE189     -0.1241
     81  CA        15.1630   56.8190   11.6030 C.3   189  PHE189      0.1605
     82  C         14.8280   55.6760   10.6650 C.2   189  PHE189      0.2264
     83  O         15.1860   54.5110   10.9070 O.2   189  PHE189     -0.2867
     84  CB        16.5360   57.3530   11.1780 C.3   189  PHE189      0.0534
     85  CG        17.1520   58.2830   12.2000 C.ar  189  PHE189     -0.0203
     86  CD1       16.6280   59.5180   12.5390 C.ar  189  PHE189     -0.0042
     87  CD2       18.2810   57.8960   12.8680 C.ar  189  PHE189     -0.0042
     88  CE1       17.2210   60.3390   13.4670 C.ar  189  PHE189     -0.0003
     89  CE2       18.8630   58.7350   13.8210 C.ar  189  PHE189     -0.0003
     90  CZ        18.3020   59.9620   14.1230 C.ar  189  PHE189     -0.0000
     91  N         17.1260   52.2580   11.3460 N.3   205  TYR205     -0.1241
     92  CA        17.9150   52.5100   12.5340 C.3   205  TYR205      0.1605
     93  C         17.1280   52.1480   13.7810 C.2   205  TYR205      0.2264
     94  O         15.9130   52.4030   13.8730 O.2   205  TYR205     -0.2867
     95  CB        18.3360   53.9620   12.6470 C.3   205  TYR205      0.0534
     96  CG        19.3500   54.4670   11.6350 C.ar  205  TYR205     -0.0201
     97  CD1       19.0640   54.6850   10.2950 C.ar  205  TYR205     -0.0009
     98  CD2       20.6300   54.7990   12.0880 C.ar  205  TYR205     -0.0009
     99  CE1       19.9920   55.1940    9.4160 C.ar  205  TYR205      0.0417
    100  CE2       21.5530   55.2920   11.1910 C.ar  205  TYR205      0.0417
    101  CZ        21.2390   55.4690    9.8710 C.ar  205  TYR205      0.1957
    102  OH        22.1680   56.0300    8.9900 O.3   205  TYR205     -0.2866
    103  N         23.6830   58.0250   26.5880 N.3   251  ARG251     -0.1245
    104  CA        23.2200   58.0660   25.1960 C.3   251  ARG251      0.1563
    105  C         23.3380   56.6770   24.5600 C.2   251  ARG251      0.2260
    106  O         24.4030   56.0540   24.6480 O.2   251  ARG251     -0.2867
    107  CB        24.0720   59.0370   24.4080 C.3   251  ARG251      0.0307
    108  CG        23.5130   59.3210   23.0030 C.3   251  ARG251      0.0489
    109  CD        22.2120   60.1120   23.0610 C.3   251  ARG251      0.2205
    110  NE        21.7390   60.4700   21.7260 N.pl3 251  ARG251     -0.0865
    111  CZ        20.5740   61.0610   21.4730 C.cat 251  ARG251      0.5346
    112  NH1       19.7310   61.3520   22.4570 N.pl3 251  ARG251      0.1354
    113  NH2       20.2430   61.3520   20.2270 N.pl3 251  ARG251      0.1354
    114  N         23.2620   52.7890   18.6200 N.3   254  LEU254     -0.1245
    115  CA        22.2870   52.4660   17.5750 C.3   254  LEU254      0.1561
    116  C         22.8030   51.3440   16.6890 C.2   254  LEU254      0.2260
    117  O         24.0090   51.1930   16.5110 O.2   254  LEU254     -0.2867
    118  CB        21.9780   53.6400   16.6710 C.3   254  LEU254      0.0270
    119  CG        21.7320   54.9670   17.3270 C.3   254  LEU254      0.0019
    120  CD1       21.5140   55.9660   16.1750 C.3   254  LEU254      0.0001
    121  CD2       20.5700   54.9020   18.2210 C.3   254  LEU254      0.0001
    122  N         30.5910   60.8350   21.9030 N.3   277  ARG277     -0.1245
    123  CA        30.5110   62.1280   22.5800 C.3   277  ARG277      0.1563
    124  C         29.9430   62.0810   23.9610 C.2   277  ARG277      0.2260
    125  O         30.1630   63.0460   24.7180 O.2   277  ARG277     -0.2867
    126  CB        29.7310   63.1090   21.7470 C.3   277  ARG277      0.0307
    127  CG        28.2790   62.8810   21.6260 C.3   277  ARG277      0.0489
    128  CD        27.6880   63.9020   20.6850 C.3   277  ARG277      0.2205
    129  NE        26.2340   63.8780   20.7200 N.pl3 277  ARG277     -0.0865
    130  CZ        25.4840   62.9140   20.1920 C.cat 277  ARG277      0.5346
    131  NH1       26.0480   61.8780   19.6090 N.pl3 277  ARG277      0.1354
    132  NH2       24.1670   62.9880   20.2450 N.pl3 277  ARG277      0.1354
    133  N         30.9740   63.0910   16.8890 N.3   324  ALA324     -0.1231
    134  CA        29.6510   62.7910   17.4220 C.3   324  ALA324      0.1694
    135  C         29.4310   61.3000   17.6290 C.2   324  ALA324      0.2592
    136  O         28.8780   60.8840   18.6700 O.2   324  ALA324     -0.2718
    137  CB        28.5280   63.3750   16.5310 C.3   324  ALA324      0.0304
    138  N         29.8560   60.4820   16.6680 N.am  325  TYR325     -0.1976
    139  CA        29.6510   59.0510   16.6540 C.3   325  TYR325      0.1639
    140  C         30.8450   58.4340   15.9730 C.2   325  TYR325      0.2290
    141  O         31.4500   59.0170   15.0470 O.2   325  TYR325     -0.2864
    142  CB        28.3580   58.6400   15.8770 C.3   325  TYR325      0.0560
    143  CG        27.0230   58.7100   16.5840 C.ar  325  TYR325     -0.0198
    144  CD1       26.3190   59.8620   16.6050 C.ar  325  TYR325     -0.0009
    145  CD2       26.4690   57.5700   17.1930 C.ar  325  TYR325     -0.0009
    146  CE1       25.0690   59.9000   17.2070 C.ar  325  TYR325      0.0417
    147  CE2       25.1890   57.6050   17.7860 C.ar  325  TYR325      0.0417
    148  CZ        24.5470   58.7750   17.7990 C.ar  325  TYR325      0.1957
    149  OH        23.2850   58.7710   18.4010 O.3   325  TYR325     -0.2866
    150  N         31.5880   60.4860   12.4160 N.3   341  TYR341     -0.1241
    151  CA        30.6290   61.5610   12.2300 C.3   341  TYR341      0.1605
    152  C         31.2140   62.8000   12.8670 C.2   341  TYR341      0.2264
    153  O         31.5320   62.7890   14.0570 O.2   341  TYR341     -0.2867
    154  CB        29.3240   61.1920   12.8960 C.3   341  TYR341      0.0534
    155  CG        28.5790   60.1070   12.1410 C.ar  341  TYR341     -0.0201
    156  CD1       28.9530   58.7890   12.1360 C.ar  341  TYR341     -0.0009
    157  CD2       27.4610   60.4540   11.3850 C.ar  341  TYR341     -0.0009
    158  CE1       28.2700   57.8410   11.3220 C.ar  341  TYR341      0.0417
    159  CE2       26.7250   59.5290   10.6440 C.ar  341  TYR341      0.0417
    160  CZ        27.1800   58.2570   10.6250 C.ar  341  TYR341      0.1957
    161  OH        26.4160   57.3630    9.8340 O.3   341  TYR341     -0.2866
@<TRIPOS>BOND
     1    36    35    1
     2    36    39    1
     3    36    37    1
     4    40    39    1
     5    40    41    1
     6    37    38    2
     7    41    42    1
     8    57    56    2
     9    68    69    1
    10    56    55    1
    11    46    47    1
    12    42    43    2
    13    44    43    1
    14    47    48    1
    15    47    50    1
    16    76    74   ar
    17    76    78   ar
    18    74    73   ar
    19    48    49    2
    20    69    70    1
    21    69    72    1
    22    55    54    1
    23    55    58    1
    24    43    45    1
    25    70    71    2
    26    52    51    1
    27    79    78    1
    28    78    77   ar
    29    50    51    1
    30    73    72    1
    31    73    75   ar
    32    58    59    1
    33    29    28    2
    34    51    53    1
    35    77    75   ar
    36    28    27    1
    37   102   101    1
    38    59    60   ar
    39    59    61   ar
    40    26    27    1
    41    60    62   ar
    42    99   101   ar
    43    99    97   ar
    44    18    17    1
    45   161   160    1
    46    27    30    1
    47   101   100   ar
    48    61    64   ar
    49    61    63   ar
    50    97    96   ar
    51    64    66   ar
    52   160   159   ar
    53   160   158   ar
    54   159   157   ar
    55    82    83    2
    56    82    81    1
    57    30    31    1
    58    62    63   ar
    59    17    19    1
    60    17    16    1
    61    84    81    1
    62    84    85    1
    63   100    98   ar
    64    63    65   ar
    65   158   156   ar
    66    91    92    1
    67   157   155   ar
    68    31    32    1
    69    33    32   ar
    70    81    80    1
    71    96    98   ar
    72    96    95    1
    73    66    67   ar
    74    16    13    1
    75   156   155   ar
    76   155   154    1
    77    85    86   ar
    78    85    87   ar
    79   151   150    1
    80   151   152    1
    81   151   154    1
    82    32    34   ar
    83    92    95    1
    84    92    93    1
    85    86    88   ar
    86    65    67   ar
    87   152   153    2
    88    87    89   ar
    89    13    14    1
    90    13    12    1
    91    88    90   ar
    92    93    94    2
    93    89    90   ar
    94    15    14    2
    95    14    20   am
    96    12     3   am
    97    25    24    1
    98    20    21    1
    99    24    21    1
   100   141   140    2
   101     3     4    2
   102     3     2    1
   103     1     2    1
   104    21    22    1
   105   142   143    1
   106   142   139    1
   107   140   139    1
   108   120   119    1
   109     2     5    1
   110     5     6    1
   111     8    10   ar
   112     8     6   ar
   113   117   116    2
   114   137   134    1
   115   143   144   ar
   116   143   145   ar
   117   144   146   ar
   118   139   138    1
   119   138   135   am
   120   118   119    1
   121   118   115    1
   122   116   115    1
   123   133   134    1
   124    10    11   ar
   125     6     7   ar
   126    22    23    2
   127   145   147   ar
   128   146   148   ar
   129   119   121    1
   130   134   135    1
   131   115   114    1
   132   135   136    2
   133   147   148   ar
   134   148   149    1
   135    11     9   ar
   136     7     9   ar
   137   131   130    1
   138   130   132    1
   139   130   129    2
   140   113   111    1
   141   128   129    1
   142   128   127    1
   143   111   110    2
   144   111   112    1
   145   127   126    1
   146   110   109    1
   147   126   123    1
   148   122   123    1
   149   123   124    1
   150   108   109    1
   151   108   107    1
   152   124   125    2
   153   107   104    1
   154   105   106    2
   155   105   104    1
   156   104   103    1
