@<TRIPOS>MOLECULE
tmp/5jxnA00.pdb
 182 179 0 0 0
SMALL
GASTEIGER

@<TRIPOS>ATOM
      1  N         14.0310   46.8210    1.1730 N.3   111  ASN111     -0.1225
      2  CA        12.8100   46.0460    1.4160 C.3   111  ASN111      0.1785
      3  C         12.5580   45.0490    0.2820 C.2   111  ASN111      0.2597
      4  O         11.4850   45.0050   -0.3210 O.2   111  ASN111     -0.2718
      5  CB        11.6080   46.9760    1.5930 C.3   111  ASN111      0.1169
      6  CG        11.6210   47.7060    2.9120 C.2   111  ASN111      0.2627
      7  OD1       11.9640   47.1410    3.9570 O.2   111  ASN111     -0.2716
      8  ND2       11.2230   48.9680    2.8910 N.am  111  ASN111     -0.0877
      9  N         13.5430   44.1970    0.0040 N.am  112  ASN112     -0.1960
     10  CA        13.3670   43.2190   -1.0670 C.3   112  ASN112      0.1819
     11  C         14.5060   42.2120   -1.0170 C.2   112  ASN112      0.2621
     12  O         15.4560   42.3420   -0.2450 O.2   112  ASN112     -0.2715
     13  CB        13.3040   43.8850   -2.4490 C.3   112  ASN112      0.1195
     14  CG        12.3090   43.2410   -3.3920 C.2   112  ASN112      0.2630
     15  OD1       11.9210   42.0950   -3.2340 O.2   112  ASN112     -0.2716
     16  ND2       11.8720   44.0070   -4.3920 N.am  112  ASN112     -0.0877
     17  N         14.3650   41.1910   -1.8510 N.am  113  ALA113     -0.1963
     18  CA        15.3530   40.1430   -2.0770 C.3   113  ALA113      0.1728
     19  C         15.1870   39.7280   -3.5290 C.2   113  ALA113      0.2616
     20  O         14.0990   39.8800   -4.0950 O.2   113  ALA113     -0.2715
     21  CB        15.1380   38.9710   -1.1050 C.3   113  ALA113      0.0334
     22  N         16.2400   39.1840   -4.1400 N.am  114  PHE114     -0.1960
     23  CA        16.1500   38.8370   -5.5650 C.3   114  PHE114      0.1771
     24  C         17.2510   37.8540   -5.9360 C.2   114  PHE114      0.2619
     25  O         18.2480   37.6920   -5.2280 O.2   114  PHE114     -0.2715
     26  CB        16.1570   40.0860   -6.4830 C.3   114  PHE114      0.0574
     27  CG        17.3670   40.9860   -6.3370 C.ar  114  PHE114     -0.0200
     28  CD1       17.4280   41.9350   -5.3100 C.ar  114  PHE114     -0.0042
     29  CD2       18.3960   40.9410   -7.2600 C.ar  114  PHE114     -0.0042
     30  CE1       18.5090   42.8130   -5.2110 C.ar  114  PHE114     -0.0003
     31  CE2       19.4900   41.7960   -7.1380 C.ar  114  PHE114     -0.0003
     32  CZ        19.5470   42.7340   -6.1320 C.ar  114  PHE114     -0.0000
     33  N         17.0470   37.2220   -7.0930 N.am  115  TRP115     -0.1974
     34  CA        18.0560   36.4550   -7.8230 C.3   115  TRP115      0.1640
     35  C         18.5210   37.3450   -8.9750 C.2   115  TRP115      0.2290
     36  O         17.6960   37.8320   -9.7560 O.2   115  TRP115     -0.2864
     37  CB        17.4270   35.1640   -8.3450 C.3   115  TRP115      0.0576
     38  CG        18.3370   34.3920   -9.2690 C.ar  115  TRP115      0.0006
     39  CD1       18.3010   34.3990  -10.6390 C.ar  115  TRP115      0.0946
     40  CD2       19.4220   33.5270   -8.9100 C.ar  115  TRP115      0.0152
     41  NE1       19.2880   33.5920  -11.1330 N.ar  115  TRP115     -0.2442
     42  CE2       19.9950   33.0350  -10.1040 C.ar  115  TRP115      0.0810
     43  CE3       19.9420   33.0870   -7.6860 C.ar  115  TRP115      0.0012
     44  CZ2       21.0780   32.1410  -10.1000 C.ar  115  TRP115      0.0191
     45  CZ3       20.9930   32.1800   -7.6880 C.ar  115  TRP115      0.0001
     46  CH2       21.5500   31.7400   -8.8880 C.ar  115  TRP115      0.0015
     47  N          8.6270   47.8080    7.1500 N.3   129  THR129     -0.1203
     48  CA         7.9960   46.9140    6.1890 C.3   129  THR129      0.1994
     49  C          8.5940   45.5100    6.2990 C.2   129  THR129      0.2617
     50  O          7.8700   44.5180    6.2120 O.2   129  THR129     -0.2717
     51  CB         8.1160   47.4890    4.7650 C.3   129  THR129      0.1784
     52  OG1        7.3600   48.6970    4.6830 O.3   129  THR129     -0.2211
     53  CG2        7.5840   46.4790    3.7040 C.3   129  THR129      0.0376
     54  N          9.9180   45.3980    6.4700 N.am  130  PHE130     -0.1975
     55  CA        10.5800   44.1140    6.6120 C.3   130  PHE130      0.1639
     56  C         11.6890   44.2080    7.6420 C.2   130  PHE130      0.2290
     57  O         12.2830   45.2710    7.8370 O.2   130  PHE130     -0.2864
     58  CB        11.2940   43.6920    5.3070 C.3   130  PHE130      0.0560
     59  CG        10.3850   43.1750    4.2200 C.ar  130  PHE130     -0.0200
     60  CD1        9.8840   41.8860    4.2830 C.ar  130  PHE130     -0.0042
     61  CD2       10.0750   43.9380    3.1170 C.ar  130  PHE130     -0.0042
     62  CE1        9.0640   41.3820    3.2880 C.ar  130  PHE130     -0.0003
     63  CE2        9.2500   43.4160    2.1040 C.ar  130  PHE130     -0.0003
     64  CZ         8.7530   42.1320    2.2040 C.ar  130  PHE130     -0.0000
     65  N         15.4930   39.8510    5.2070 N.3   133  LEU133     -0.1245
     66  CA        14.5330   39.0150    4.4970 C.3   133  LEU133      0.1561
     67  C         14.9320   37.5480    4.4520 C.2   133  LEU133      0.2260
     68  O         14.0660   36.6900    4.2640 O.2   133  LEU133     -0.2867
     69  CB        14.2860   39.5410    3.0810 C.3   133  LEU133      0.0270
     70  CG        13.3340   40.7620    3.0380 C.3   133  LEU133      0.0019
     71  CD1       14.0260   42.0810    3.3150 C.3   133  LEU133      0.0001
     72  CD2       12.5840   40.8210    1.7460 C.3   133  LEU133      0.0001
     73  N         10.9150   32.8370    1.7920 N.3   139  VAL139     -0.1245
     74  CA        11.6100   33.8430    0.9950 C.3   139  VAL139      0.1561
     75  C         12.8830   33.2630    0.3620 C.2   139  VAL139      0.2260
     76  O         13.1280   33.4330   -0.8370 O.2   139  VAL139     -0.2867
     77  CB        11.9380   35.0820    1.8490 C.3   139  VAL139      0.0252
     78  CG1       12.7710   36.0600    1.0040 C.3   139  VAL139      0.0019
     79  CG2       10.6750   35.6980    2.3870 C.3   139  VAL139      0.0019
     80  N         11.8990   30.8470   -2.2420 N.3   142  HIS142     -0.1226
     81  CA        11.3790   31.6110   -3.3810 C.3   142  HIS142      0.1752
     82  C         12.5180   32.1010   -4.2760 C.2   142  HIS142      0.2595
     83  O         12.4630   31.9880   -5.5120 O.2   142  HIS142     -0.2718
     84  CB        10.5450   32.7850   -2.8130 C.3   142  HIS142      0.0759
     85  CG         9.9580   33.7330   -3.8530 C.ar  142  HIS142      0.0818
     86  ND1        8.6090   33.8500   -4.1110 N.ar  142  HIS142     -0.2268
     87  CD2       10.5660   34.6170   -4.6840 C.ar  142  HIS142      0.1154
     88  CE1        8.4120   34.7440   -5.0710 C.ar  142  HIS142      0.1986
     89  NE2        9.5870   35.2350   -5.4320 N.ar  142  HIS142     -0.2212
     90  N         13.5540   32.6820   -3.6740 N.am  143  GLU143     -0.1979
     91  CA        14.6650   33.2170   -4.4640 C.3   143  GLU143      0.1602
     92  C         15.4290   32.1180   -5.1800 C.2   143  GLU143      0.2287
     93  O         15.7440   32.2530   -6.3730 O.2   143  GLU143     -0.2864
     94  CB        15.6150   34.0790   -3.6430 C.3   143  GLU143      0.0415
     95  CG        14.9650   35.2210   -2.8390 C.3   143  GLU143      0.1163
     96  CD        14.0420   36.1070   -3.6450 C.2   143  GLU143      0.3649
     97  OE1       14.2300   36.2470   -4.8670 O.co2 143  GLU143     -0.2457
     98  OE2       13.0890   36.6770   -3.0490 O.co2 143  GLU143     -0.2457
     99  N         13.7450   30.9140   -8.2740 N.3   146  HIS146     -0.1241
    100  CA        13.9370   31.6820   -9.5010 C.3   146  HIS146      0.1621
    101  C         15.1070   31.1380  -10.3210 C.2   146  HIS146      0.2264
    102  O         15.0540   31.1130  -11.5520 O.2   146  HIS146     -0.2867
    103  CB        14.1630   33.1640   -9.1720 C.3   146  HIS146      0.0745
    104  CG        12.8970   33.9400   -8.9110 C.ar  146  HIS146      0.0817
    105  ND1       11.8500   33.9800   -9.8050 N.ar  146  HIS146     -0.2268
    106  CD2       12.5290   34.7420   -7.8800 C.ar  146  HIS146      0.1154
    107  CE1       10.8880   34.7500   -9.3240 C.ar  146  HIS146      0.1986
    108  NE2       11.2770   35.2310   -8.1530 N.ar  146  HIS146     -0.2212
    109  N         10.1030   37.2140  -17.5220 N.3   157  TYR157     -0.1241
    110  CA         9.6210   37.8780  -16.2990 C.3   157  TYR157      0.1605
    111  C          8.7160   39.0790  -16.6050 C.2   157  TYR157      0.2264
    112  O          8.9610   40.2140  -16.1980 O.2   157  TYR157     -0.2867
    113  CB        10.7980   38.2870  -15.4390 C.3   157  TYR157      0.0534
    114  CG        10.4520   38.4680  -13.9760 C.ar  157  TYR157     -0.0201
    115  CD1       10.0120   37.4020  -13.2060 C.ar  157  TYR157     -0.0009
    116  CD2       10.6140   39.7020  -13.3490 C.ar  157  TYR157     -0.0009
    117  CE1        9.7540   37.5380  -11.8490 C.ar  157  TYR157      0.0417
    118  CE2       10.3370   39.8530  -11.9820 C.ar  157  TYR157      0.0417
    119  CZ         9.9170   38.7720  -11.2480 C.ar  157  TYR157      0.1957
    120  OH         9.6770   38.9510   -9.8960 O.3   157  TYR157     -0.2866
    121  N          6.5970   33.8460  -10.9290 N.3   166  GLU166     -0.1245
    122  CA         6.3810   34.2200   -9.5360 C.3   166  GLU166      0.1567
    123  C          5.6440   33.1380   -8.7560 C.2   166  GLU166      0.2260
    124  O          6.0280   32.8370   -7.6180 O.2   166  GLU166     -0.2867
    125  CB         5.6090   35.5390   -9.4650 C.3   166  GLU166      0.0388
    126  CG         6.5140   36.7590   -9.4430 C.3   166  GLU166      0.1160
    127  CD         7.4850   36.6700   -8.3090 C.2   166  GLU166      0.3649
    128  OE1        7.0290   36.5190   -7.1670 O.co2 166  GLU166     -0.2457
    129  OE2        8.7120   36.7190   -8.5640 O.co2 166  GLU166     -0.2457
    130  N          2.9800   33.9880    2.3390 N.3   188  ILE188     -0.1231
    131  CA         4.3310   34.3040    1.8630 C.3   188  ILE188      0.1692
    132  C          4.9440   35.4250    2.6850 C.2   188  ILE188      0.2592
    133  O          4.4120   36.5450    2.7200 O.2   188  ILE188     -0.2718
    134  CB         4.3560   34.6850    0.3760 C.3   188  ILE188      0.0266
    135  CG1        3.7040   33.6040   -0.5030 C.3   188  ILE188      0.0019
    136  CG2        5.7780   34.9660   -0.0890 C.3   188  ILE188      0.0020
    137  CD1        4.3710   32.2400   -0.4400 C.3   188  ILE188      0.0001
    138  N          6.0870   35.1370    3.3060 N.am  189  GLY189     -0.1957
    139  CA         6.8880   36.1810    3.9250 C.3   189  GLY189      0.1869
    140  C          6.4630   36.6180    5.3140 C.2   189  GLY189      0.2309
    141  O          7.0650   37.5610    5.8650 O.2   189  GLY189     -0.2863
    142  N          7.8550   40.0340    7.4630 N.3   193  TYR193     -0.1241
    143  CA         7.0570   41.1820    7.0440 C.3   193  TYR193      0.1605
    144  C          6.4600   41.8830    8.2560 C.2   193  TYR193      0.2264
    145  O          5.9250   41.2390    9.1590 O.2   193  TYR193     -0.2867
    146  CB         5.9310   40.6730    6.1430 C.3   193  TYR193      0.0534
    147  CG         5.1060   41.7140    5.4180 C.ar  193  TYR193     -0.0201
    148  CD1        5.6710   42.5330    4.4650 C.ar  193  TYR193     -0.0009
    149  CD2        3.7290   41.8320    5.6530 C.ar  193  TYR193     -0.0009
    150  CE1        4.9060   43.4610    3.7590 C.ar  193  TYR193      0.0417
    151  CE2        2.9620   42.7470    4.9640 C.ar  193  TYR193      0.0417
    152  CZ         3.5540   43.5680    4.0240 C.ar  193  TYR193      0.1957
    153  OH         2.8010   44.4780    3.3220 O.3   193  TYR193     -0.2866
    154  N          2.9970   39.1420    3.1530 N.3   202  LEU202     -0.1231
    155  CA         3.1350   39.8410    1.8820 C.3   202  LEU202      0.1693
    156  C          2.0940   39.3900    0.8550 C.2   202  LEU202      0.2591
    157  O          1.5130   40.2190    0.1430 O.2   202  LEU202     -0.2718
    158  CB         4.5480   39.6120    1.3840 C.3   202  LEU202      0.0284
    159  CG         4.8790   40.2440    0.0610 C.3   202  LEU202      0.0019
    160  CD1        4.8740   41.8010    0.1640 C.3   202  LEU202      0.0001
    161  CD2        6.2730   39.7420   -0.3990 C.3   202  LEU202      0.0001
    162  N          1.8770   38.0830    0.7390 N.am  203  ARG203     -0.1980
    163  CA         0.8740   37.4920   -0.1260 C.3   203  ARG203      0.1597
    164  C          0.2690   36.3120    0.6120 C.2   203  ARG203      0.2287
    165  O          0.8660   35.7710    1.5500 O.2   203  ARG203     -0.2864
    166  CB         1.4450   36.9370   -1.4380 C.3   203  ARG203      0.0334
    167  CG         1.9030   37.9930   -2.4070 C.3   203  ARG203      0.0492
    168  CD         2.5170   37.3890   -3.6570 C.3   203  ARG203      0.2205
    169  NE         3.8300   36.7760   -3.4720 N.pl3 203  ARG203     -0.0865
    170  CZ         4.9780   37.4270   -3.5290 C.cat 203  ARG203      0.5346
    171  NH1        5.0120   38.7440   -3.5880 N.pl3 203  ARG203      0.1354
    172  NH2        6.1160   36.7450   -3.4900 N.pl3 203  ARG203      0.1354
    173  N          3.7770   40.0190   -9.5870 N.3   231  HIS231     -0.1241
    174  CA         3.5340   39.7340   -8.1740 C.3   231  HIS231      0.1621
    175  C          2.0650   39.8730   -7.7840 C.2   231  HIS231      0.2264
    176  O          1.7290   39.6950   -6.6070 O.2   231  HIS231     -0.2867
    177  CB         4.3790   40.6450   -7.2700 C.3   231  HIS231      0.0745
    178  CG         5.8630   40.4640   -7.4410 C.ar  231  HIS231      0.0817
    179  ND1        6.6260   41.2720   -8.2640 N.ar  231  HIS231     -0.2268
    180  CD2        6.7300   39.5890   -6.8750 C.ar  231  HIS231      0.1154
    181  CE1        7.8890   40.8700   -8.2240 C.ar  231  HIS231      0.1986
    182  NE2        7.9800   39.8630   -7.3690 N.ar  231  HIS231     -0.2212
@<TRIPOS>BOND
     1   109   110    1
     2   111   110    1
     3   111   112    2
     4   110   113    1
     5   113   114    1
     6   114   116   ar
     7   114   115   ar
     8   116   118   ar
     9   115   117   ar
    10   118   119   ar
    11   117   119   ar
    12   102   101    2
    13   119   120    1
    14    41    39   ar
    15    41    42   ar
    16   121   122    1
    17    39    38   ar
    18   101   100    1
    19    42    44   ar
    20    42    40   ar
    21    44    46   ar
    22   105   107   ar
    23   105   104   ar
    24    36    35    2
    25   173   174    1
    26   122   125    1
    27   122   123    1
    28   100   103    1
    29   100    99    1
    30   125   126    1
    31   126   127    1
    32   107   108   ar
    33    38    40   ar
    34    38    37    1
    35   103   104    1
    36    35    34    1
    37   104   106   ar
    38    40    43   ar
    39    46    45   ar
    40   123   124    2
    41   129   127   ar
    42    37    34    1
    43   127   128   ar
    44   179   181   ar
    45   179   178   ar
    46   181   182   ar
    47   174   175    1
    48   174   177    1
    49   108   106   ar
    50    34    33    1
    51   175   176    2
    52    45    43   ar
    53   178   177    1
    54   178   180   ar
    55   182   180   ar
    56    29    31   ar
    57    29    27   ar
    58    31    32   ar
    59    33    24   am
    60    26    27    1
    61    26    23    1
    62    93    92    2
    63    27    28   ar
    64    32    30   ar
    65    24    23    1
    66    24    25    2
    67    23    22    1
    68    83    82    2
    69    89    88   ar
    70    89    87   ar
    71    28    30   ar
    72    92    91    1
    73    88    86   ar
    74    97    96   ar
    75    87    85   ar
    76    91    90    1
    77    91    94    1
    78    16    14   am
    79    82    90   am
    80    82    81    1
    81    22    19   am
    82    86    85   ar
    83    20    19    2
    84    85    84    1
    85   168   169    1
    86   168   167    1
    87    96    98   ar
    88    96    95    1
    89    94    95    1
    90   171   170    1
    91    19    18    1
    92   170   172    1
    93   170   169    2
    94    14    15    2
    95    14    13    1
    96    81    84    1
    97    81    80    1
    98    13    10    1
    99   167   166    1
   100    18    17    1
   101    18    21    1
   102    17    11   am
   103   166   163    1
   104    10    11    1
   105    10     9    1
   106    11    12    2
   107    76    75    2
   108   135   137    1
   109   135   134    1
   110   161   159    1
   111     4     3    2
   112   163   164    1
   113   163   162    1
   114   136   134    1
   115     9     3   am
   116   159   160    1
   117   159   158    1
   118   157   156    2
   119     3     2    1
   120    75    74    1
   121   134   131    1
   122   164   165    2
   123   162   156   am
   124   156   155    1
   125    74    73    1
   126    74    77    1
   127    78    77    1
   128     1     2    1
   129   158   155    1
   130     2     5    1
   131     5     6    1
   132    72    70    1
   133    77    79    1
   134   131   130    1
   135   131   132    1
   136   155   154    1
   137    63    64   ar
   138    63    61   ar
   139    64    62   ar
   140   132   133    2
   141   132   138   am
   142     8     6   am
   143     6     7    2
   144    70    69    1
   145    70    71    1
   146    69    66    1
   147    61    59   ar
   148    62    60   ar
   149   138   139    1
   150   153   152    1
   151    53    51    1
   152   150   152   ar
   153   150   148   ar
   154   139   140    1
   155   152   151   ar
   156    59    60   ar
   157    59    58    1
   158    68    67    2
   159    67    66    1
   160   148   147   ar
   161    66    65    1
   162    52    51    1
   163    51    48    1
   164   151   149   ar
   165    58    55    1
   166   140   141    2
   167   147   149   ar
   168   147   146    1
   169   146   143    1
   170    48    49    1
   171    48    47    1
   172    50    49    2
   173    49    54   am
   174    54    55    1
   175    55    56    1
   176   143   142    1
   177   143   144    1
   178    56    57    2
   179   144   145    2
