@<TRIPOS>MOLECULE
tmp/5jxwB01.pdb
 172 162 0 0 0
SMALL
GASTEIGER

@<TRIPOS>ATOM
      1  N        -16.3430    9.1230  -32.0670 N.3    50  LEU50      -0.1231
      2  CA       -16.4210    7.6660  -32.0710 C.3    50  LEU50       0.1693
      3  C        -15.8790    7.0710  -33.3820 C.2    50  LEU50       0.2592
      4  O        -16.3040    7.4750  -34.4680 O.2    50  LEU50      -0.2718
      5  CB       -17.8970    7.2870  -31.8610 C.3    50  LEU50       0.0284
      6  CG       -18.3520    5.8570  -31.5370 C.3    50  LEU50       0.0019
      7  CD1      -19.7530    5.9070  -30.9460 C.3    50  LEU50       0.0001
      8  CD2      -18.3080    4.9200  -32.7330 C.3    50  LEU50       0.0001
      9  N        -14.9440    6.1200  -33.2620 N.am   51  HIS51      -0.1976
     10  CA       -14.3050    5.4190  -34.4180 C.3    51  HIS51       0.1656
     11  C        -15.1720    5.4850  -35.6700 C.2    51  HIS51       0.2291
     12  O        -16.2320    4.8690  -35.7070 O.2    51  HIS51      -0.2864
     13  CB       -14.0640    3.9410  -34.0840 C.3    51  HIS51       0.0771
     14  CG       -13.4240    3.7080  -32.7500 C.ar   51  HIS51       0.0820
     15  ND1      -12.0850    3.9390  -32.5090 N.ar   51  HIS51      -0.2267
     16  CD2      -13.9410    3.2470  -31.5880 C.ar   51  HIS51       0.1154
     17  CE1      -11.8090    3.6410  -31.2520 C.ar   51  HIS51       0.1986
     18  NE2      -12.9200    3.2260  -30.6690 N.ar   51  HIS51      -0.2212
     19  N        -16.1600    4.1550  -38.5830 N.3    53  THR53      -0.1218
     20  CA       -16.1710    2.9550  -39.4000 C.3    53  THR53       0.1862
     21  C        -17.4250    2.9030  -40.2870 C.2    53  THR53       0.2287
     22  O        -18.2490    3.8250  -40.2710 O.2    53  THR53      -0.2866
     23  CB       -16.2140    1.7200  -38.4860 C.3    53  THR53       0.1770
     24  OG1      -17.4230    1.7640  -37.7200 O.3    53  THR53      -0.2211
     25  CG2      -15.0030    1.6950  -37.5420 C.3    53  THR53       0.0375
     26  N        -19.7760    0.7940  -39.8260 N.3    55  GLU55      -0.1231
     27  CA       -20.8430    0.6180  -38.8320 C.3    55  GLU55       0.1699
     28  C        -21.2840    1.9910  -38.2830 C.2    55  GLU55       0.2592
     29  O        -22.4830    2.2940  -38.2230 O.2    55  GLU55      -0.2718
     30  CB       -20.4020   -0.3120  -37.6980 C.3    55  GLU55       0.0402
     31  CG       -20.2050   -1.7760  -38.0910 C.3    55  GLU55       0.1161
     32  CD       -18.9220   -2.1020  -38.8580 C.2    55  GLU55       0.3649
     33  OE1      -17.9700   -1.2750  -38.9030 O.co2  55  GLU55      -0.2457
     34  OE2      -18.8670   -3.2330  -39.4060 O.co2  55  GLU55      -0.2457
     35  N        -20.3110    2.8280  -37.9240 N.am   56  THR56      -0.1953
     36  CA       -20.5960    4.1800  -37.4310 C.3    56  THR56       0.1897
     37  C        -21.3310    5.0430  -38.4610 C.2    56  THR56       0.2313
     38  O        -22.1540    5.8830  -38.0930 O.2    56  THR56      -0.2863
     39  CB       -19.3100    4.8850  -36.9970 C.3    56  THR56       0.1794
     40  OG1      -18.6950    4.1020  -35.9690 O.3    56  THR56      -0.2208
     41  CG2      -19.5920    6.2780  -36.4700 C.3    56  THR56       0.0378
     42  N        -17.1150    8.0800  -27.2370 N.3   135  ASP135     -0.1239
     43  CA       -16.5170    6.7640  -27.0810 C.3   135  ASP135      0.1674
     44  C        -15.1140    6.9880  -26.5300 C.2   135  ASP135      0.2266
     45  O        -14.2050    7.3790  -27.2540 O.2   135  ASP135     -0.2867
     46  CB       -16.5060    6.0400  -28.4290 C.3   135  ASP135      0.1410
     47  CG       -15.9820    4.6080  -28.3440 C.2   135  ASP135      0.3668
     48  OD1      -15.3850    4.2110  -27.3280 O.co2 135  ASP135     -0.2456
     49  OD2      -16.1750    3.8620  -29.3230 O.co2 135  ASP135     -0.2456
     50  N        -20.2550    5.3140  -25.0460 N.3   209  GLU209     -0.1231
     51  CA       -20.1690    3.9810  -25.6000 C.3   209  GLU209      0.1699
     52  C        -19.3820    2.9350  -24.8010 C.2   209  GLU209      0.2592
     53  O        -19.8250    1.7880  -24.7270 O.2   209  GLU209     -0.2718
     54  CB       -19.4980    4.0920  -26.9750 C.3   209  GLU209      0.0402
     55  CG       -19.3210    2.8050  -27.7790 C.3   209  GLU209      0.1161
     56  CD       -20.5770    2.3330  -28.4810 C.2   209  GLU209      0.3649
     57  OE1      -20.4740    1.3210  -29.2000 O.co2 209  GLU209     -0.2457
     58  OE2      -21.6460    2.9670  -28.3370 O.co2 209  GLU209     -0.2457
     59  N        -18.2450    3.3090  -24.1980 N.am  210  THR210     -0.1953
     60  CA       -17.3520    2.2880  -23.6340 C.3   210  THR210      0.1897
     61  C        -16.9180    2.3930  -22.1650 C.2   210  THR210      0.2313
     62  O        -16.9720    3.4450  -21.5460 O.2   210  THR210     -0.2863
     63  CB       -16.0990    2.1770  -24.5310 C.3   210  THR210      0.1794
     64  OG1      -15.5130    0.8730  -24.4040 O.3   210  THR210     -0.2208
     65  CG2      -15.0760    3.2840  -24.2340 C.3   210  THR210      0.0378
     66  N        -25.1580   -4.3180  -25.0090 N.3   239  LYS239     -0.1245
     67  CA       -23.8990   -3.7220  -25.4320 C.3   239  LYS239      0.1561
     68  C        -22.7770   -4.5350  -24.7680 C.2   239  LYS239      0.2260
     69  O        -22.1560   -5.3460  -25.4310 O.2   239  LYS239     -0.2867
     70  CB       -23.8320   -2.2290  -25.0730 C.3   239  LYS239      0.0271
     71  CG       -22.7010   -1.4500  -25.7380 C.3   239  LYS239      0.0035
     72  CD       -21.3130   -1.8660  -25.2840 C.3   239  LYS239      0.0206
     73  CE       -20.2380   -1.0560  -25.9720 C.3   239  LYS239      0.1093
     74  NZ       -18.8930   -1.3030  -25.3660 N.3   239  LYS239     -0.1314
     75  N        -21.1550   -6.6920  -27.6190 N.3   243  ASP243     -0.1225
     76  CA       -20.0550   -5.9030  -28.2120 C.3   243  ASP243      0.1805
     77  C        -18.7050   -6.2310  -27.5480 C.2   243  ASP243      0.2597
     78  O        -17.7950   -6.7280  -28.2000 O.2   243  ASP243     -0.2718
     79  CB       -20.3970   -4.3980  -28.0580 C.3   243  ASP243      0.1424
     80  CG       -19.2730   -3.4370  -28.5060 C.2   243  ASP243      0.3668
     81  OD1      -18.0830   -3.6410  -28.1430 O.co2 243  ASP243     -0.2456
     82  OD2      -19.6100   -2.4180  -29.1610 O.co2 243  ASP243     -0.2456
     83  N        -18.5950   -5.9690  -26.2490 N.am  244  ASN244     -0.1974
     84  CA       -17.3120   -6.1930  -25.5330 C.3   244  ASN244      0.1688
     85  C        -16.7950   -7.6380  -25.5910 C.2   244  ASN244      0.2292
     86  O        -15.6040   -7.8450  -25.7170 O.2   244  ASN244     -0.2864
     87  CB       -17.3980   -5.7620  -24.0610 C.3   244  ASN244      0.1181
     88  CG       -17.8620   -4.3280  -23.8890 C.2   244  ASN244      0.2629
     89  OD1      -18.7210   -3.8380  -24.6250 O.2   244  ASN244     -0.2716
     90  ND2      -17.3040   -3.6550  -22.9120 N.am  244  ASN244     -0.0877
     91  N         -6.0410   -4.2520  -26.8350 N.3   352  ILE352     -0.1245
     92  CA        -7.4140   -4.1590  -27.3260 C.3   352  ILE352      0.1561
     93  C         -8.2450   -3.2130  -26.4280 C.2   352  ILE352      0.2260
     94  O         -9.4310   -2.9650  -26.6970 O.2   352  ILE352     -0.2867
     95  CB        -8.0540   -5.5570  -27.5480 C.3   352  ILE352      0.0252
     96  CG1       -9.2910   -5.4400  -28.4470 C.3   352  ILE352      0.0019
     97  CG2       -8.3730   -6.2460  -26.2340 C.3   352  ILE352      0.0019
     98  CD1       -9.7910   -6.7550  -28.9820 C.3   352  ILE352      0.0001
     99  N         -9.2000    0.5500  -24.6360 N.3   354  HIS354     -0.1241
    100  CA        -9.4390    1.8360  -25.3100 C.3   354  HIS354      0.1621
    101  C         -8.2160    2.7230  -25.5180 C.2   354  HIS354      0.2264
    102  O         -8.0610    3.2940  -26.6050 O.2   354  HIS354     -0.2867
    103  CB       -10.5390    2.6480  -24.6390 C.3   354  HIS354      0.0745
    104  CG       -10.9080    3.8730  -25.4100 C.ar  354  HIS354      0.0817
    105  ND1      -11.8320    3.8550  -26.4310 N.ar  354  HIS354     -0.2268
    106  CD2      -10.4400    5.1410  -25.3450 C.ar  354  HIS354      0.1154
    107  CE1      -11.9420    5.0680  -26.9450 C.ar  354  HIS354      0.1986
    108  NE2      -11.1060    5.8670  -26.3040 N.ar  354  HIS354     -0.2212
    109  N         -5.8600    0.1720  -29.9120 N.3   399  LEU399     -0.1245
    110  CA        -6.8060   -0.9540  -29.9730 C.3   399  LEU399      0.1561
    111  C         -6.6650   -1.6960  -31.3080 C.2   399  LEU399      0.2260
    112  O         -7.0210   -1.1860  -32.3650 O.2   399  LEU399     -0.2867
    113  CB        -8.2420   -0.5070  -29.6710 C.3   399  LEU399      0.0270
    114  CG        -9.0440    0.3820  -30.6130 C.3   399  LEU399      0.0019
    115  CD1      -10.3380    0.7540  -29.9060 C.3   399  LEU399      0.0001
    116  CD2       -8.2900    1.6340  -31.0220 C.3   399  LEU399      0.0001
    117  N         -8.0890   -4.2610  -32.8620 N.3   401  ASN401     -0.1225
    118  CA        -9.2010   -4.6190  -33.7580 C.3   401  ASN401      0.1785
    119  C         -9.6000   -3.4880  -34.6890 C.2   401  ASN401      0.2597
    120  O        -10.0810   -3.7490  -35.7860 O.2   401  ASN401     -0.2718
    121  CB       -10.4340   -5.1140  -32.9920 C.3   401  ASN401      0.1169
    122  CG       -10.9930   -4.0840  -32.0220 C.2   401  ASN401      0.2627
    123  OD1      -10.2590   -3.2840  -31.4580 O.2   401  ASN401     -0.2716
    124  ND2      -12.3000   -4.1130  -31.8190 N.am  401  ASN401     -0.0877
    125  N         -9.4050   -2.2430  -34.2550 N.am  402  LEU402     -0.1980
    126  CA        -9.7430   -1.0740  -35.0850 C.3   402  LEU402      0.1596
    127  C         -8.5240   -0.4630  -35.7870 C.2   402  LEU402      0.2287
    128  O         -8.6760    0.2090  -36.8220 O.2   402  LEU402     -0.2864
    129  CB       -10.4860   -0.0260  -34.2590 C.3   402  LEU402      0.0297
    130  CG       -11.9140   -0.4440  -33.9000 C.3   402  LEU402      0.0022
    131  CD1      -12.4070    0.2100  -32.6240 C.3   402  LEU402      0.0001
    132  CD2      -12.8500   -0.1610  -35.0620 C.3   402  LEU402      0.0001
    133  N        -10.8220   -4.0200  -39.1330 N.3   406  THR406     -0.1203
    134  CA       -12.0300   -3.2170  -39.3310 C.3   406  THR406      0.1994
    135  C        -13.0200   -3.2180  -38.1470 C.2   406  THR406      0.2618
    136  O        -14.2160   -3.0130  -38.3290 O.2   406  THR406     -0.2717
    137  CB       -12.7430   -3.7030  -40.6080 C.3   406  THR406      0.1784
    138  OG1      -13.0800   -5.0900  -40.4650 O.3   406  THR406     -0.2211
    139  CG2      -11.8240   -3.5350  -41.8310 C.3   406  THR406      0.0376
    140  N        -12.5180   -3.4330  -36.9370 N.am  407  GLY407     -0.1942
    141  CA       -13.3750   -3.4410  -35.7410 C.3   407  GLY407      0.2014
    142  C        -14.4090   -4.5500  -35.7100 C.2   407  GLY407      0.2638
    143  O        -14.3450   -5.4930  -36.4960 O.2   407  GLY407     -0.2714
    144  N        -15.3640   -4.4360  -34.7910 N.am  408  HIS408     -0.1973
    145  CA       -16.4230   -5.4320  -34.6880 C.3   408  HIS408      0.1656
    146  C        -17.3100   -5.4170  -35.9360 C.2   408  HIS408      0.2291
    147  O        -17.4380   -4.3920  -36.5900 O.2   408  HIS408     -0.2864
    148  CB       -17.3520   -5.1790  -33.5070 C.3   408  HIS408      0.0771
    149  CG       -16.6800   -5.0950  -32.1780 C.ar  408  HIS408      0.0820
    150  ND1      -15.4650   -5.6830  -31.9040 N.ar  408  HIS408     -0.2267
    151  CD2      -17.1350   -4.6070  -30.9990 C.ar  408  HIS408      0.1154
    152  CE1      -15.1650   -5.4900  -30.6330 C.ar  408  HIS408      0.1986
    153  NE2      -16.1650   -4.8420  -30.0610 N.ar  408  HIS408     -0.2212
    154  N        -22.4400   -4.1790  -33.6600 N.3   413  MET413     -0.1245
    155  CA       -22.4570   -2.7150  -33.6340 C.3   413  MET413      0.1570
    156  C        -23.8780   -2.1800  -33.7180 C.2   413  MET413      0.2261
    157  O        -24.1920   -1.1660  -33.0860 O.2   413  MET413     -0.2867
    158  CB       -21.5460   -2.0980  -34.6900 C.3   413  MET413      0.0387
    159  CG       -20.0680   -2.4190  -34.4600 C.3   413  MET413      0.0595
    160  SD       -19.5460   -2.2740  -32.7360 S.3   413  MET413     -0.1393
    161  CE       -19.8560   -0.5540  -32.3690 C.3   413  MET413      0.0692
    162  N        -25.1730    0.4050  -31.3010 N.3   417  PHE417     -0.1241
    163  CA       -25.6440    1.6640  -31.8370 C.3   417  PHE417      0.1605
    164  C        -27.1410    1.9030  -31.7500 C.2   417  PHE417      0.2264
    165  O        -27.5580    3.0620  -31.7660 O.2   417  PHE417     -0.2867
    166  CB       -25.1080    1.9080  -33.2550 C.3   417  PHE417      0.0534
    167  CG       -23.6050    2.0320  -33.3330 C.ar  417  PHE417     -0.0203
    168  CD1      -22.8350    2.4260  -32.2200 C.ar  417  PHE417     -0.0042
    169  CD2      -22.9620    1.8730  -34.5590 C.ar  417  PHE417     -0.0042
    170  CE1      -21.4620    2.5750  -32.3210 C.ar  417  PHE417     -0.0003
    171  CE2      -21.5810    2.0200  -34.6640 C.ar  417  PHE417     -0.0003
    172  CZ       -20.8340    2.3790  -33.5460 C.ar  417  PHE417     -0.0000
@<TRIPOS>BOND
     1   139   137    1
     2   137   138    1
     3   137   134    1
     4    21    22    2
     5    21    20    1
     6    26    27    1
     7    34    32   ar
     8    20    19    1
     9    20    23    1
    10   134   133    1
    11   134   135    1
    12    33    32   ar
    13    32    31    1
    14    27    28    1
    15    27    30    1
    16    23    24    1
    17    23    25    1
    18    37    38    2
    19    37    36    1
    20   136   135    2
    21    28    29    2
    22    28    35   am
    23   135   140   am
    24    31    30    1
    25    35    36    1
    26    36    39    1
    27    39    41    1
    28    39    40    1
    29   140   141    1
    30   128   127    2
    31   147   146    2
    32   143   142    2
    33   146   145    1
    34   127   126    1
    35   120   119    2
    36   141   142    1
    37   142   144   am
    38    12    11    2
    39    11    10    1
    40   126   129    1
    41   126   125    1
    42   132   130    1
    43   144   145    1
    44   158   159    1
    45   158   155    1
    46   119   125   am
    47   119   118    1
    48   145   148    1
    49   171   169   ar
    50   171   172   ar
    51   169   167   ar
    52     4     3    2
    53   159   160    1
    54    10    13    1
    55    10     9    1
    56   129   130    1
    57    13    14    1
    58   130   131    1
    59   118   121    1
    60   118   117    1
    61   156   155    1
    62   156   157    2
    63   154   155    1
    64   172   170   ar
    65   148   149    1
    66     3     9   am
    67     3     2    1
    68   167   166    1
    69   167   168   ar
    70   166   163    1
    71   121   122    1
    72    14    15   ar
    73    14    16   ar
    74   160   161    1
    75     8     6    1
    76    15    17   ar
    77   112   111    2
    78   170   168   ar
    79   149   150   ar
    80   149   151   ar
    81     2     1    1
    82     2     5    1
    83   122   124   am
    84   122   123    2
    85   150   152   ar
    86     5     6    1
    87   163   164    1
    88   163   162    1
    89   165   164    2
    90    16    18   ar
    91     6     7    1
    92   111   110    1
    93    17    18   ar
    94   116   114    1
    95   151   153   ar
    96   152   153   ar
    97   114   115    1
    98   114   113    1
    99   110   109    1
   100   110   113    1
   101    49    47   ar
   102    57    56   ar
   103    82    80   ar
   104    98    96    1
   105    80    81   ar
   106    80    79    1
   107    56    58   ar
   108    56    55    1
   109    96    95    1
   110    46    47    1
   111    46    43    1
   112    47    48   ar
   113    76    79    1
   114    76    75    1
   115    76    77    1
   116    78    77    2
   117    55    54    1
   118    95    92    1
   119    95    97    1
   120    77    83   am
   121    92    91    1
   122    92    93    1
   123    45    44    2
   124    42    43    1
   125    43    44    1
   126    54    51    1
   127   107   105   ar
   128   107   108   ar
   129    94    93    2
   130   102   101    2
   131   105   104   ar
   132   108   106   ar
   133    83    84    1
   134    73    74    1
   135    73    72    1
   136    71    72    1
   137    71    70    1
   138    86    85    2
   139    51    50    1
   140    51    52    1
   141    85    84    1
   142    84    87    1
   143   101   100    1
   144    67    70    1
   145    67    66    1
   146    67    68    1
   147    69    68    2
   148   104   106   ar
   149   104   103    1
   150   100   103    1
   151   100    99    1
   152    52    53    2
   153    52    59   am
   154    89    88    2
   155    63    64    1
   156    63    65    1
   157    63    60    1
   158    59    60    1
   159    87    88    1
   160    88    90   am
   161    60    61    1
   162    61    62    2
