@<TRIPOS>MOLECULE
tmp/5jxxB00.pdb
 98 97 0 0 0
SMALL
GASTEIGER

@<TRIPOS>ATOM
      1  N         14.7610  -13.7770  -21.6730 N.3    68  GLN68      -0.1231
      2  CA        14.0230  -15.0000  -21.4000 C.3    68  GLN68       0.1698
      3  C         14.2650  -15.5260  -19.9930 C.2    68  GLN68       0.2592
      4  O         13.8520  -16.6470  -19.6790 O.2    68  GLN68      -0.2718
      5  CB        14.3740  -16.0620  -22.4410 C.3    68  GLN68       0.0381
      6  CG        14.0910  -15.5990  -23.8550 C.3    68  GLN68       0.0905
      7  CD        14.7450  -16.4690  -24.8970 C.2    68  GLN68       0.2608
      8  OE1       15.9580  -16.4160  -25.0930 O.2    68  GLN68      -0.2717
      9  NE2       13.9480  -17.2890  -25.5650 N.am   68  GLN68      -0.0878
     10  N         14.9310  -14.7470  -19.1460 N.am   69  ASP69      -0.1960
     11  CA        15.1620  -15.1580  -17.7700 C.3    69  ASP69       0.1840
     12  C         13.8400  -15.1880  -17.0140 C.2    69  ASP69       0.2621
     13  O         13.0540  -14.2380  -17.0790 O.2    69  ASP69      -0.2715
     14  CB        16.1440  -14.2040  -17.0900 C.3    69  ASP69       0.1450
     15  CG        16.7530  -14.7910  -15.8330 C.2    69  ASP69       0.3671
     16  OD1       16.3350  -15.8940  -15.4230 O.co2  69  ASP69      -0.2456
     17  OD2       17.6530  -14.1460  -15.2530 O.co2  69  ASP69      -0.2456
     18  N         13.5930  -16.2900  -16.3040 N.am   70  LEU70      -0.1977
     19  CA        12.3450  -16.4410  -15.5660 C.3    70  LEU70       0.1596
     20  C         12.1930  -15.3900  -14.4740 C.2    70  LEU70       0.2287
     21  O         11.0690  -15.1210  -14.0370 O.2    70  LEU70      -0.2864
     22  CB        12.2580  -17.8440  -14.9640 C.3    70  LEU70       0.0297
     23  CG        12.0610  -18.9870  -15.9620 C.3    70  LEU70       0.0022
     24  CD1       13.2160  -19.9710  -15.8690 C.3    70  LEU70       0.0001
     25  CD2       10.7300  -19.6890  -15.7360 C.3    70  LEU70       0.0001
     26  N         18.9790  -10.4820  -26.9880 N.3    94  HIS94      -0.1241
     27  CA        18.1170  -10.0320  -25.9070 C.3    94  HIS94       0.1621
     28  C         18.8630   -9.0790  -24.9840 C.2    94  HIS94       0.2264
     29  O         20.0820   -9.1710  -24.8130 O.2    94  HIS94      -0.2867
     30  CB        17.5810  -11.2200  -25.1010 C.3    94  HIS94       0.0745
     31  CG        16.6460  -12.0990  -25.8700 C.ar   94  HIS94       0.0817
     32  ND1       16.2730  -11.8330  -27.1700 N.ar   94  HIS94      -0.2268
     33  CD2       16.0030  -13.2390  -25.5220 C.ar   94  HIS94       0.1154
     34  CE1       15.4440  -12.7710  -27.5900 C.ar   94  HIS94       0.1986
     35  NE2       15.2630  -13.6360  -26.6090 N.ar   94  HIS94      -0.2212
     36  N         21.5890  -16.9050  -31.5880 N.3   117  HIS117     -0.1241
     37  CA        20.9380  -16.4080  -30.3850 C.3   117  HIS117      0.1621
     38  C         21.9850  -15.8540  -29.4290 C.2   117  HIS117      0.2264
     39  O         22.9650  -16.5350  -29.1100 O.2   117  HIS117     -0.2867
     40  CB        20.1290  -17.5130  -29.7030 C.3   117  HIS117      0.0745
     41  CG        19.4680  -17.0760  -28.4340 C.ar  117  HIS117      0.0817
     42  ND1       18.4150  -16.1880  -28.4130 N.ar  117  HIS117     -0.2268
     43  CD2       19.7110  -17.4020  -27.1420 C.ar  117  HIS117      0.1154
     44  CE1       18.0370  -15.9850  -27.1640 C.ar  117  HIS117      0.1986
     45  NE2       18.8060  -16.7110  -26.3730 N.ar  117  HIS117     -0.2212
     46  N         21.8210  -14.4000  -25.7400 N.3   119  ALA119     -0.1231
     47  CA        20.9010  -14.2690  -24.6240 C.3   119  ALA119      0.1694
     48  C         21.2160  -13.0230  -23.7980 C.2   119  ALA119      0.2592
     49  O         22.1640  -12.2780  -24.0640 O.2   119  ALA119     -0.2718
     50  CB        20.9430  -15.5210  -23.7560 C.3   119  ALA119      0.0304
     51  N         20.3820  -12.8050  -22.7840 N.am  120  HIS120     -0.1976
     52  CA        20.5120  -11.6550  -21.9010 C.3   120  HIS120      0.1656
     53  C         21.8890  -11.5890  -21.2520 C.2   120  HIS120      0.2291
     54  O         22.4850  -12.6130  -20.9060 O.2   120  HIS120     -0.2864
     55  CB        19.4240  -11.7150  -20.8290 C.3   120  HIS120      0.0771
     56  CG        19.4600  -12.9590  -20.0000 C.ar  120  HIS120      0.0820
     57  ND1       20.2150  -13.0690  -18.8520 N.ar  120  HIS120     -0.2267
     58  CD2       18.8390  -14.1510  -20.1570 C.ar  120  HIS120      0.1154
     59  CE1       20.0520  -14.2740  -18.3350 C.ar  120  HIS120      0.1986
     60  NE2       19.2230  -14.9510  -19.1090 N.ar  120  HIS120     -0.2212
     61  N         24.0190  -18.8280  -24.3170 N.3   137  ALA137     -0.1231
     62  CA        23.1640  -18.6200  -23.1580 C.3   137  ALA137      0.1694
     63  C         23.5610  -17.3470  -22.4130 C.2   137  ALA137      0.2593
     64  O         24.5580  -16.6890  -22.7250 O.2   137  ALA137     -0.2718
     65  CB        23.2240  -19.8260  -22.2220 C.3   137  ALA137      0.0304
     66  N         22.7590  -17.0120  -21.4030 N.am  138  GLY138     -0.1942
     67  CA        22.9160  -15.7350  -20.7330 C.3   138  GLY138      0.2014
     68  C         24.2390  -15.6210  -20.0000 C.2   138  GLY138      0.2638
     69  O         24.8410  -16.6140  -19.5910 O.2   138  GLY138     -0.2714
     70  N         24.6980  -14.3770  -19.8520 N.am  139  HIS139     -0.1973
     71  CA        25.8700  -13.9950  -19.0680 C.3   139  HIS139      0.1656
     72  C         27.1780  -14.4950  -19.6670 C.2   139  HIS139      0.2291
     73  O         28.2130  -14.4600  -18.9870 O.2   139  HIS139     -0.2864
     74  CB        25.7650  -14.4720  -17.6150 C.3   139  HIS139      0.0771
     75  CG        24.4630  -14.1330  -16.9580 C.ar  139  HIS139      0.0820
     76  ND1       24.1690  -12.8690  -16.4950 N.ar  139  HIS139     -0.2267
     77  CD2       23.3800  -14.8960  -16.6810 C.ar  139  HIS139      0.1154
     78  CE1       22.9590  -12.8670  -15.9640 C.ar  139  HIS139      0.1986
     79  NE2       22.4590  -14.0850  -16.0630 N.ar  139  HIS139     -0.2212
     80  N         26.9190  -22.6500  -22.8240 N.3   155  HIS155     -0.1226
     81  CA        26.1860  -22.6260  -21.5680 C.3   155  HIS155      0.1752
     82  C         26.3530  -21.2730  -20.8770 C.2   155  HIS155      0.2595
     83  O         27.2530  -20.4890  -21.1930 O.2   155  HIS155     -0.2718
     84  CB        26.6450  -23.7590  -20.6460 C.3   155  HIS155      0.0759
     85  CG        25.7860  -23.9360  -19.4310 C.ar  155  HIS155      0.0818
     86  ND1       24.4170  -23.7790  -19.4600 N.ar  155  HIS155     -0.2268
     87  CD2       26.0990  -24.2560  -18.1520 C.ar  155  HIS155      0.1154
     88  CE1       23.9240  -23.9920  -18.2530 C.ar  155  HIS155      0.1986
     89  NE2       24.9240  -24.2840  -17.4410 N.ar  155  HIS155     -0.2212
     90  N         25.4460  -20.9980  -19.9380 N.am  156  GLN156     -0.1979
     91  CA        25.4480  -19.7380  -19.2060 C.3   156  GLN156      0.1601
     92  C         26.8030  -19.4760  -18.5620 C.2   156  GLN156      0.2287
     93  O         27.5150  -20.4010  -18.1600 O.2   156  GLN156     -0.2864
     94  CB        24.3920  -19.7610  -18.1000 C.3   156  GLN156      0.0394
     95  CG        23.1320  -20.5340  -18.4150 C.3   156  GLN156      0.0908
     96  CD        22.1700  -20.5400  -17.2420 C.2   156  GLN156      0.2608
     97  OE1       21.1560  -21.2370  -17.2550 O.2   156  GLN156     -0.2717
     98  NE2       22.4860  -19.7550  -16.2190 N.am  156  GLN156     -0.0878
@<TRIPOS>BOND
     1    36    37    1
     2    37    40    1
     3    37    38    1
     4    40    41    1
     5    38    39    2
     6    41    42   ar
     7    41    43   ar
     8    42    44   ar
     9    34    32   ar
    10    34    35   ar
    11    32    31   ar
    12    44    45   ar
    13    43    45   ar
    14    26    27    1
    15    35    33   ar
    16    27    30    1
    17    27    28    1
    18    31    33   ar
    19    31    30    1
    20    46    47    1
    21     9     7   am
    22     8     7    2
    23    28    29    2
    24     7     6    1
    25    47    48    1
    26    47    50    1
    27    61    62    1
    28    49    48    2
    29     6     5    1
    30    48    51   am
    31    62    63    1
    32    62    65    1
    33    80    81    1
    34    51    52    1
    35    64    63    2
    36     5     2    1
    37    63    66   am
    38    52    53    1
    39    52    55    1
    40     1     2    1
    41    81    82    1
    42    81    84    1
    43    66    67    1
    44     2     3    1
    45    53    54    2
    46    83    82    2
    47    82    90   am
    48    55    56    1
    49    67    68    1
    50    84    85    1
    51    58    56   ar
    52    58    60   ar
    53    56    57   ar
    54    68    70   am
    55    68    69    2
    56     3     4    2
    57     3    10   am
    58    90    91    1
    59    70    71    1
    60    72    71    1
    61    72    73    2
    62    86    85   ar
    63    86    88   ar
    64    85    87   ar
    65    91    92    1
    66    91    94    1
    67    10    11    1
    68    60    59   ar
    69    71    74    1
    70    57    59   ar
    71    92    93    2
    72    95    94    1
    73    95    96    1
    74    88    89   ar
    75    87    89   ar
    76    11    14    1
    77    11    12    1
    78    74    75    1
    79    97    96    2
    80    96    98   am
    81    14    15    1
    82    13    12    2
    83    12    18   am
    84    75    77   ar
    85    75    76   ar
    86    77    79   ar
    87    76    78   ar
    88    18    19    1
    89    79    78   ar
    90    23    24    1
    91    23    25    1
    92    23    22    1
    93    15    16   ar
    94    15    17   ar
    95    19    22    1
    96    19    20    1
    97    20    21    2
