@<TRIPOS>MOLECULE
tmp/5jxzA01.pdb
 146 137 0 0 0
SMALL
GASTEIGER

@<TRIPOS>ATOM
      1  N         -2.0330   12.2900  -42.9730 N.3   130  LYS130     -0.1245
      2  CA        -0.6130   12.3080  -42.6860 C.3   130  LYS130      0.1561
      3  C         -0.1420   10.9010  -42.3990 C.2   130  LYS130      0.2260
      4  O         -0.8250   10.1360  -41.7110 O.2   130  LYS130     -0.2867
      5  CB        -0.3050   13.2180  -41.4990 C.3   130  LYS130      0.0271
      6  CG         1.1570   13.3290  -41.1790 C.3   130  LYS130      0.0035
      7  CD         1.4110   14.2340  -39.9680 C.3   130  LYS130      0.0206
      8  CE         2.9070   14.3430  -39.7340 C.3   130  LYS130      0.1093
      9  NZ         3.1750   15.2630  -38.6050 N.3   130  LYS130     -0.1314
     10  N          3.6920    8.9950  -41.3040 N.3   132  VAL132     -0.1245
     11  CA         5.1030    9.1090  -40.9750 C.3   132  VAL132      0.1561
     12  C          5.7840    7.8650  -41.5060 C.2   132  VAL132      0.2260
     13  O          5.3740    6.7400  -41.1890 O.2   132  VAL132     -0.2867
     14  CB         5.3120    9.2770  -39.4580 C.3   132  VAL132      0.0252
     15  CG1        6.7820    9.3970  -39.1050 C.3   132  VAL132      0.0019
     16  CG2        4.5300   10.4930  -38.9720 C.3   132  VAL132      0.0019
     17  N         12.1570   15.0420  -27.9530 N.3   180  GLU180     -0.1245
     18  CA        10.7010   15.1190  -27.9490 C.3   180  GLU180      0.1567
     19  C         10.1050   14.4590  -26.7090 C.2   180  GLU180      0.2260
     20  O         10.0990   13.2290  -26.5750 O.2   180  GLU180     -0.2867
     21  CB        10.1400   14.4920  -29.2250 C.3   180  GLU180      0.0388
     22  CG         8.6290   14.6810  -29.3510 C.3   180  GLU180      0.1160
     23  CD         8.0980   14.3220  -30.7370 C.2   180  GLU180      0.3649
     24  OE1        6.8910   14.5650  -30.9950 O.co2 180  GLU180     -0.2457
     25  OE2        8.8810   13.7560  -31.5480 O.co2 180  GLU180     -0.2457
     26  N          6.8650   17.5530  -31.4300 N.3   195  LEU195     -0.1231
     27  CA         7.7220   18.1380  -32.4530 C.3   195  LEU195      0.1693
     28  C          7.3170   17.6360  -33.8270 C.2   195  LEU195      0.2592
     29  O          7.1700   16.4260  -34.0410 O.2   195  LEU195     -0.2718
     30  CB         9.1830   17.7660  -32.2340 C.3   195  LEU195      0.0284
     31  CG         9.7450   18.0920  -30.8780 C.3   195  LEU195      0.0019
     32  CD1       11.2380   17.8400  -30.9130 C.3   195  LEU195      0.0001
     33  CD2        9.4690   19.5340  -30.5230 C.3   195  LEU195      0.0001
     34  N          7.1870   18.5580  -34.7660 N.am  196  ALA196     -0.1966
     35  CA         6.8930   18.1820  -36.1410 C.3   196  ALA196      0.1728
     36  C          7.1550   19.3940  -37.0000 C.2   196  ALA196      0.2617
     37  O          6.7640   20.5150  -36.6310 O.2   196  ALA196     -0.2715
     38  CB         5.4520   17.6900  -36.2830 C.3   196  ALA196      0.0334
     39  N          7.8380   19.1650  -38.1240 N.am  197  GLY197     -0.1940
     40  CA         8.4330   20.2280  -38.9180 C.3   197  GLY197      0.2014
     41  C          9.8970   20.4270  -38.5930 C.2   197  GLY197      0.2639
     42  O         10.2890   20.4870  -37.4220 O.2   197  GLY197     -0.2714
     43  N         10.7170   20.5270  -39.6260 N.am  198  SER198     -0.1949
     44  CA        12.1560   20.3900  -39.5050 C.3   198  SER198      0.1924
     45  C         12.8600   21.2920  -40.5010 C.2   198  SER198      0.2314
     46  O         12.4600   21.3690  -41.6600 O.2   198  SER198     -0.2863
     47  CB        12.5850   18.9430  -39.7660 C.3   198  SER198      0.2116
     48  OG        12.0730   18.0550  -38.7600 O.3   198  SER198     -0.2180
     49  N          2.0940   20.0770  -41.3420 N.3   224  GLU224     -0.1245
     50  CA         2.6030   18.8480  -40.7480 C.3   224  GLU224      0.1567
     51  C          2.5060   18.9110  -39.2300 C.2   224  GLU224      0.2260
     52  O          2.1360   17.9320  -38.5800 O.2   224  GLU224     -0.2867
     53  CB         4.0570   18.6720  -41.2080 C.3   224  GLU224      0.0388
     54  CG         4.9080   17.5080  -40.6180 C.3   224  GLU224      0.1160
     55  CD         6.3400   17.5800  -41.1210 C.2   224  GLU224      0.3649
     56  OE1        6.6300   18.4010  -42.0370 O.co2 224  GLU224     -0.2457
     57  OE2        7.2160   16.8300  -40.6280 O.co2 224  GLU224     -0.2457
     58  N         13.1790   22.5610  -35.0770 N.3   259  HIS259     -0.1241
     59  CA        11.8730   21.9220  -35.1050 C.3   259  HIS259      0.1621
     60  C         10.8190   22.9140  -34.6550 C.2   259  HIS259      0.2264
     61  O         11.0930   23.8000  -33.8460 O.2   259  HIS259     -0.2867
     62  CB        11.7980   20.6810  -34.1790 C.3   259  HIS259      0.0745
     63  CG        12.6380   19.5210  -34.6300 C.ar  259  HIS259      0.0817
     64  ND1       12.4970   18.9480  -35.8730 N.ar  259  HIS259     -0.2268
     65  CD2       13.6060   18.8120  -33.9950 C.ar  259  HIS259      0.1154
     66  CE1       13.3510   17.9420  -35.9890 C.ar  259  HIS259      0.1986
     67  NE2       14.0340   17.8390  -34.8630 N.ar  259  HIS259     -0.2212
     68  N          2.9660   12.6190  -34.9300 N.3   286  ALA286     -0.1231
     69  CA         4.3800   12.8780  -35.1540 C.3   286  ALA286      0.1694
     70  C          5.1120   11.6100  -35.5450 C.2   286  ALA286      0.2591
     71  O          6.1770   11.6850  -36.1690 O.2   286  ALA286     -0.2718
     72  CB         5.0360   13.4730  -33.8990 C.3   286  ALA286      0.0304
     73  N          4.6040   10.4490  -35.1230 N.am  287  LEU287     -0.1980
     74  CA         5.2950    9.1880  -35.3290 C.3   287  LEU287      0.1596
     75  C          4.4920    8.1560  -36.1030 C.2   287  LEU287      0.2287
     76  O          5.0940    7.3000  -36.7430 O.2   287  LEU287     -0.2864
     77  CB         5.7150    8.5810  -33.9700 C.3   287  LEU287      0.0297
     78  CG         7.1530    8.8690  -33.5420 C.3   287  LEU287      0.0022
     79  CD1        8.1110    8.2410  -34.4990 C.3   287  LEU287      0.0001
     80  CD2        7.4180   10.3630  -33.4120 C.3   287  LEU287      0.0001
     81  N         13.5440    8.3300  -30.7640 N.3   329  ILE329     -0.1231
     82  CA        14.0820    8.8190  -32.0340 C.3   329  ILE329      0.1692
     83  C         15.5020    9.3020  -31.7710 C.2   329  ILE329      0.2591
     84  O         15.9650    9.3580  -30.6250 O.2   329  ILE329     -0.2718
     85  CB        13.2250    9.9490  -32.6620 C.3   329  ILE329      0.0266
     86  CG1       12.9450   11.0530  -31.6340 C.3   329  ILE329      0.0019
     87  CG2       11.8950    9.4170  -33.2300 C.3   329  ILE329      0.0020
     88  CD1       12.1830   12.2890  -32.1920 C.3   329  ILE329      0.0001
     89  N         16.1930    9.6640  -32.8520 N.am  330  ARG330     -0.1980
     90  CA        17.6090   10.0240  -32.8070 C.3   330  ARG330      0.1597
     91  C         18.3810    8.9860  -31.9990 C.2   330  ARG330      0.2287
     92  O         19.1180    9.3070  -31.0810 O.2   330  ARG330     -0.2864
     93  CB        17.8200   11.4290  -32.2280 C.3   330  ARG330      0.0334
     94  CG        16.9310   12.5440  -32.8060 C.3   330  ARG330      0.0492
     95  CD        17.0670   12.7510  -34.3490 C.3   330  ARG330      0.2205
     96  NE        15.7540   13.2310  -34.8170 N.pl3 330  ARG330     -0.0865
     97  CZ        15.3150   14.4830  -34.7050 C.cat 330  ARG330      0.5346
     98  NH1       16.0980   15.4540  -34.2200 N.pl3 330  ARG330      0.1354
     99  NH2       14.0680   14.7630  -35.0900 N.pl3 330  ARG330      0.1354
    100  N         17.8620    4.7420  -36.9130 N.3   342  PHE342     -0.1227
    101  CA        16.4780    4.9400  -37.3170 C.3   342  PHE342      0.1736
    102  C         16.1740    6.4230  -37.4830 C.2   342  PHE342      0.2595
    103  O         16.6300    7.2400  -36.6850 O.2   342  PHE342     -0.2718
    104  CB        15.5360    4.3500  -36.2700 C.3   342  PHE342      0.0547
    105  CG        14.1160    4.7300  -36.4230 C.ar  342  PHE342     -0.0202
    106  CD1       13.2640    4.0030  -37.2380 C.ar  342  PHE342     -0.0042
    107  CD2       13.5890    5.7890  -35.6730 C.ar  342  PHE342     -0.0042
    108  CE1       11.9240    4.3570  -37.3630 C.ar  342  PHE342     -0.0003
    109  CE2       12.2510    6.1370  -35.7790 C.ar  342  PHE342     -0.0003
    110  CZ        11.4110    5.4170  -36.6330 C.ar  342  PHE342     -0.0000
    111  N         15.3790    6.7550  -38.5000 N.am  343  ALA343     -0.1966
    112  CA        14.8320    8.1040  -38.6080 C.3   343  ALA343      0.1728
    113  C         13.5610    8.0840  -39.4390 C.2   343  ALA343      0.2617
    114  O         13.4310    7.3020  -40.3750 O.2   343  ALA343     -0.2715
    115  CB        15.8350    9.0800  -39.1960 C.3   343  ALA343      0.0334
    116  N         12.6320    8.9740  -39.0830 N.am  344  GLY344     -0.1940
    117  CA        11.3700    9.0900  -39.7810 C.3   344  GLY344      0.2014
    118  C         11.0660   10.5310  -40.1580 C.2   344  GLY344      0.2639
    119  O         11.7520   11.4670  -39.7410 O.2   344  GLY344     -0.2714
    120  N         10.0010   10.6910  -40.9490 N.am  345  ALA345     -0.1963
    121  CA         9.5650   12.0200  -41.3610 C.3   345  ALA345      0.1728
    122  C          8.0810   11.9930  -41.6810 C.2   345  ALA345      0.2616
    123  O          7.5770   11.0340  -42.2820 O.2   345  ALA345     -0.2715
    124  CB        10.3480   12.5260  -42.5670 C.3   345  ALA345      0.0334
    125  N          7.3810   13.0300  -41.2250 N.am  346  GLY346     -0.1955
    126  CA         5.9550   13.1280  -41.4650 C.3   346  GLY346      0.1869
    127  C          5.6940   13.5190  -42.9040 C.2   346  GLY346      0.2309
    128  O          6.2460   14.5240  -43.3880 O.2   346  GLY346     -0.2863
    129  N         15.6090   14.9970  -45.1580 N.3   359  GLU359     -0.1245
    130  CA        15.2060   15.2410  -43.7700 C.3   359  GLU359      0.1567
    131  C         15.5810   14.0610  -42.8710 C.2   359  GLU359      0.2260
    132  O         16.2000   14.2480  -41.8160 O.2   359  GLU359     -0.2867
    133  CB        13.7010   15.5130  -43.6820 C.3   359  GLU359      0.0388
    134  CG        13.2060   15.8170  -42.2430 C.3   359  GLU359      0.1160
    135  CD        11.8230   16.4310  -42.1800 C.2   359  GLU359      0.3649
    136  OE1       11.5060   17.3050  -43.0260 O.co2 359  GLU359     -0.2457
    137  OE2       11.0170   16.0450  -41.2900 O.co2 359  GLU359     -0.2457
    138  N         18.3740   13.6840  -39.7060 N.3   363  LYS363     -0.1245
    139  CA        18.0230   13.0800  -38.4160 C.3   363  LYS363      0.1561
    140  C         18.9790   11.9610  -38.0400 C.2   363  LYS363      0.2260
    141  O         19.4020   11.8690  -36.8800 O.2   363  LYS363     -0.2867
    142  CB        16.5890   12.5880  -38.4390 C.3   363  LYS363      0.0271
    143  CG        15.6230   13.7760  -38.4670 C.3   363  LYS363      0.0035
    144  CD        14.2420   13.3610  -38.8590 C.3   363  LYS363      0.0206
    145  CE        13.2500   14.4990  -38.7780 C.3   363  LYS363      0.1093
    146  NZ        11.8880   14.1250  -39.3350 N.3   363  LYS363     -0.1314
@<TRIPOS>BOND
     1   129   130    1
     2   130   133    1
     3   130   131    1
     4   133   134    1
     5   128   127    2
     6   136   135   ar
     7     1     2    1
     8   127   126    1
     9   131   132    2
    10     2     3    1
    11     2     5    1
    12   124   121    1
    13     3     4    2
    14   123   122    2
    15   134   135    1
    16   135   137   ar
    17    56    55   ar
    18   122   121    1
    19   122   125   am
    20    46    45    2
    21    12    13    2
    22    12    11    1
    23     5     6    1
    24   126   125    1
    25   121   120    1
    26    49    50    1
    27    10    11    1
    28    53    50    1
    29    53    54    1
    30     6     7    1
    31    55    57   ar
    32    55    54    1
    33    11    14    1
    34   120   118   am
    35    50    51    1
    36    45    44    1
    37   114   113    2
    38   118   117    1
    39   118   119    2
    40     7     8    1
    41   117   116    1
    42    47    44    1
    43    47    48    1
    44     8     9    1
    45   138   139    1
    46    43    44    1
    47    43    41   am
    48    14    15    1
    49    14    16    1
    50   113   116   am
    51   113   112    1
    52   146   145    1
    53    51    52    2
    54   115   112    1
    55    40    41    1
    56    40    39    1
    57   144   145    1
    58   144   143    1
    59   112   111    1
    60    41    42    2
    61   111   102   am
    62   143   142    1
    63   142   139    1
    64   139   140    1
    65    39    36   am
    66   140   141    2
    67   102   101    1
    68   102   103    2
    69   108   106   ar
    70   108   110   ar
    71   101   100    1
    72   101   104    1
    73   106   105   ar
    74    36    37    2
    75    36    35    1
    76    76    75    2
    77   110   109   ar
    78   105   104    1
    79   105   107   ar
    80    38    35    1
    81    71    70    2
    82    35    34    1
    83    75    74    1
    84    66    64   ar
    85    66    67   ar
    86    64    63   ar
    87   109   107   ar
    88    70    69    1
    89    70    73   am
    90    74    73    1
    91    74    77    1
    92    69    68    1
    93    69    72    1
    94    59    58    1
    95    59    60    1
    96    59    62    1
    97    99    97    1
    98    67    65   ar
    99    96    97    2
   100    96    95    1
   101    34    28   am
   102    97    98    1
   103    60    61    2
   104    63    62    1
   105    63    65   ar
   106    79    78    1
   107    95    94    1
   108    29    28    2
   109    77    78    1
   110    28    27    1
   111    78    80    1
   112    87    85    1
   113    89    90    1
   114    89    83   am
   115    90    93    1
   116    90    91    1
   117    94    93    1
   118    85    82    1
   119    85    86    1
   120    27    30    1
   121    27    26    1
   122    30    31    1
   123    88    86    1
   124    82    83    1
   125    82    81    1
   126    91    92    2
   127    83    84    2
   128    25    23   ar
   129    24    23   ar
   130    32    31    1
   131    31    33    1
   132    23    22    1
   133    22    21    1
   134    21    18    1
   135    17    18    1
   136    18    19    1
   137    19    20    2
