@<TRIPOS>MOLECULE
tmp/5jy0A00.pdb
 86 79 0 0 0
SMALL
GASTEIGER

@<TRIPOS>ATOM
      1  N         23.0980    3.6620    9.8640 N.3    64  HIS64      -0.1241
      2  CA        22.6180    4.8560   10.5440 C.3    64  HIS64       0.1621
      3  C         23.1980    4.9840   11.9580 C.2    64  HIS64       0.2264
      4  O         23.1290    6.0390   12.5680 O.2    64  HIS64      -0.2867
      5  CB        21.0860    4.9090   10.5520 C.3    64  HIS64       0.0745
      6  CG        20.4210    4.0380   11.5710 C.ar   64  HIS64       0.0817
      7  ND1       19.9390    2.7870   11.2750 N.ar   64  HIS64      -0.2268
      8  CD2       20.0810    4.2720   12.8570 C.ar   64  HIS64       0.1154
      9  CE1       19.3780    2.2650   12.3440 C.ar   64  HIS64       0.1986
     10  NE2       19.4510    3.1460   13.3210 N.ar   64  HIS64      -0.2212
     11  N         20.6680    4.3080    3.3440 N.3   189  LYS189     -0.1245
     12  CA        19.3690    4.8360    3.7010 C.3   189  LYS189      0.1561
     13  C         18.5210    5.0480    2.4660 C.2   189  LYS189      0.2260
     14  O         18.0310    6.1330    2.2260 O.2   189  LYS189     -0.2867
     15  CB        19.5050    6.1320    4.4990 C.3   189  LYS189      0.0271
     16  CG        20.6260    7.0270    4.0700 C.3   189  LYS189      0.0035
     17  CD        20.8840    8.1270    5.0820 C.3   189  LYS189      0.0206
     18  CE        19.6360    8.9090    5.4140 C.3   189  LYS189      0.1093
     19  NZ        19.9160   10.1690    6.1670 N.3   189  LYS189     -0.1314
     20  N         14.8680    6.6930    2.6010 N.3   192  SER192     -0.1217
     21  CA        15.0560    7.3050    3.9050 C.3   192  SER192      0.1889
     22  C         13.8130    7.9360    4.5160 C.2   192  SER192      0.2288
     23  O         13.6030    7.8420    5.7140 O.2   192  SER192     -0.2866
     24  CB        16.1500    8.3530    3.8100 C.3   192  SER192      0.2089
     25  OG        16.0940    9.2350    4.9050 O.3   192  SER192     -0.2183
     26  N         10.8250    4.7280    5.8870 N.3   196  ASN196     -0.1240
     27  CA        11.1280    4.6970    7.2900 C.3   196  ASN196      0.1653
     28  C          9.9470    4.1890    8.0940 C.2   196  ASN196      0.2266
     29  O          8.8210    4.5800    7.8450 O.2   196  ASN196     -0.2867
     30  CB        11.5450    6.0670    7.7820 C.3   196  ASN196      0.1155
     31  CG        12.1640    6.0030    9.1330 C.2   196  ASN196      0.2627
     32  OD1       12.3320    4.9360    9.6820 O.2   196  ASN196     -0.2716
     33  ND2       12.5200    7.1330    9.6730 N.am  196  ASN196     -0.0877
     34  N         10.6710   -3.3960    2.8990 N.3   201  ARG201     -0.1245
     35  CA        11.8450   -2.5670    3.0850 C.3   201  ARG201      0.1563
     36  C         12.9500   -3.0460    2.1590 C.2   201  ARG201      0.2260
     37  O         13.0700   -4.2360    1.9120 O.2   201  ARG201     -0.2867
     38  CB        12.2950   -2.6190    4.5510 C.3   201  ARG201      0.0307
     39  CG        13.1280   -1.4750    4.9930 C.3   201  ARG201      0.0489
     40  CD        12.3950   -0.2030    4.8410 C.3   201  ARG201      0.2205
     41  NE        13.1190    0.9000    5.4350 N.pl3 201  ARG201     -0.0865
     42  CZ        13.0640    1.2100    6.7220 C.cat 201  ARG201      0.5346
     43  NH1       12.3070    0.5040    7.5380 N.pl3 201  ARG201      0.1354
     44  NH2       13.7500    2.2370    7.1890 N.pl3 201  ARG201      0.1354
     45  N         16.4330   -1.5660    2.2930 N.3   203  THR203     -0.1218
     46  CA        17.5620   -0.7680    2.7210 C.3   203  THR203      0.1862
     47  C         18.7410   -1.5890    3.2240 C.2   203  THR203      0.2287
     48  O         18.5750   -2.4940    4.0150 O.2   203  THR203     -0.2866
     49  CB        17.1210    0.1720    3.8000 C.3   203  THR203      0.1770
     50  OG1       16.0290    0.9500    3.3100 O.3   203  THR203     -0.2211
     51  CG2       18.2310    1.0720    4.1770 C.3   203  THR203      0.0375
     52  N         21.1220   -1.2510    5.4960 N.3   205  ASP205     -0.1239
     53  CA        21.5220   -0.4570    6.6360 C.3   205  ASP205      0.1674
     54  C         22.6690   -1.0820    7.4090 C.2   205  ASP205      0.2266
     55  O         22.4780   -1.6080    8.4830 O.2   205  ASP205     -0.2867
     56  CB        20.3400   -0.2600    7.5590 C.3   205  ASP205      0.1410
     57  CG        20.4800    0.9560    8.3930 C.2   205  ASP205      0.3668
     58  OD1       21.6050    1.4600    8.4940 O.co2 205  ASP205     -0.2456
     59  OD2       19.4730    1.4130    8.9410 O.co2 205  ASP205     -0.2456
     60  N         12.4970   11.0260   11.9380 N.3   308  ASN308     -0.1240
     61  CA        12.4790    9.6600   12.4730 C.3   308  ASN308      0.1653
     62  C         11.6830    9.4890   13.7700 C.2   308  ASN308      0.2266
     63  O         11.0610    8.4590   13.9880 O.2   308  ASN308     -0.2867
     64  CB        13.9110    9.1810   12.6980 C.3   308  ASN308      0.1155
     65  CG        13.9820    7.7790   13.2450 C.2   308  ASN308      0.2627
     66  OD1       13.6260    6.8290   12.5780 O.2   308  ASN308     -0.2716
     67  ND2       14.4630    7.6430   14.4530 N.am  308  ASN308     -0.0877
     68  N         17.5660   -3.3000   12.0910 N.3   635  PHE635     -0.1227
     69  CA        17.6580   -1.8410   11.9920 C.3   635  PHE635      0.1736
     70  C         16.3630   -1.0610   12.1590 C.2   635  PHE635      0.2595
     71  O         16.4000    0.1360   12.3900 O.2   635  PHE635     -0.2718
     72  CB        18.3310   -1.4240   10.6690 C.3   635  PHE635      0.0547
     73  CG        17.5930   -1.7840    9.4280 C.ar  635  PHE635     -0.0202
     74  CD1       17.6880   -3.0390    8.8880 C.ar  635  PHE635     -0.0042
     75  CD2       16.8750   -0.8370    8.7450 C.ar  635  PHE635     -0.0042
     76  CE1       17.0240   -3.3470    7.7050 C.ar  635  PHE635     -0.0003
     77  CE2       16.2290   -1.1450    7.5710 C.ar  635  PHE635     -0.0003
     78  CZ        16.3050   -2.3920    7.0560 C.ar  635  PHE635     -0.0000
     79  N         15.2230   -1.7210   12.0890 N.am  636  ASP636     -0.1974
     80  CA        13.9760   -0.9860   12.2660 C.3   636  ASP636      0.1709
     81  C         12.8510   -1.8300   12.8240 C.2   636  ASP636      0.2293
     82  O         13.0160   -3.0090   13.0420 O.2   636  ASP636     -0.2864
     83  CB        13.5510   -0.3840   10.9340 C.3   636  ASP636      0.1436
     84  CG        12.9170    0.9550   11.0790 C.2   636  ASP636      0.3671
     85  OD1       12.7160    1.3950   12.2020 O.co2 636  ASP636     -0.2456
     86  OD2       12.6120    1.5700   10.0480 O.co2 636  ASP636     -0.2456
@<TRIPOS>BOND
     1    37    36    2
     2    36    35    1
     3    14    13    2
     4    45    46    1
     5    13    12    1
     6    20    21    1
     7    46    47    1
     8    46    49    1
     9    34    35    1
    10    35    38    1
    11    47    48    2
    12    50    49    1
    13    11    12    1
    14    12    15    1
    15    49    51    1
    16    24    21    1
    17    24    25    1
    18    21    22    1
    19    16    15    1
    20    16    17    1
    21    22    23    2
    22    38    39    1
    23    40    39    1
    24    40    41    1
    25    17    18    1
    26    18    19    1
    27    41    42    2
    28    52    53    1
    29    26    27    1
    30    53    54    1
    31    53    56    1
    32    42    44    1
    33    42    43    1
    34    78    77   ar
    35    78    76   ar
    36    27    30    1
    37    27    28    1
    38    54    55    2
    39    56    57    1
    40    77    75   ar
    41    76    74   ar
    42    30    31    1
    43    29    28    2
    44    57    58   ar
    45    57    59   ar
    46    75    73   ar
    47    74    73   ar
    48    31    33   am
    49    31    32    2
    50    73    72    1
    51     1     2    1
    52    86    84   ar
    53     2     5    1
    54     2     3    1
    55     5     6    1
    56    72    69    1
    57    83    84    1
    58    83    80    1
    59    84    85   ar
    60     7     6   ar
    61     7     9   ar
    62     6     8   ar
    63    60    61    1
    64     3     4    2
    65    69    68    1
    66    69    70    1
    67    79    70   am
    68    79    80    1
    69    70    71    2
    70    80    81    1
    71     9    10   ar
    72    61    64    1
    73    61    62    1
    74    66    65    2
    75    64    65    1
    76    81    82    2
    77     8    10   ar
    78    65    67   am
    79    62    63    2
