@<TRIPOS>MOLECULE
tmp/5jy3D00.pdb
 246 234 0 0 0
SMALL
GASTEIGER

@<TRIPOS>ATOM
      1  N         61.8870   13.5950    1.1670 N.3    37  PHE37      -0.1241
      2  CA        61.3830   13.9600    2.4840 C.3    37  PHE37       0.1605
      3  C         62.1930   13.3560    3.5930 C.2    37  PHE37       0.2264
      4  O         62.5490   14.0620    4.5230 O.2    37  PHE37      -0.2867
      5  CB        59.9570   13.4310    2.6310 C.3    37  PHE37       0.0534
      6  CG        59.2730   13.8230    3.9390 C.ar   37  PHE37      -0.0203
      7  CD1       58.6250   15.0560    4.0640 C.ar   37  PHE37      -0.0042
      8  CD2       59.2260   12.9320    5.0060 C.ar   37  PHE37      -0.0042
      9  CE1       57.9890   15.4090    5.2290 C.ar   37  PHE37      -0.0003
     10  CE2       58.6060   13.2970    6.2160 C.ar   37  PHE37      -0.0003
     11  CZ        57.9880   14.5280    6.3330 C.ar   37  PHE37      -0.0000
     12  N         65.4690   14.8770    4.1060 N.3    40  PHE40      -0.1227
     13  CA        65.4240   16.1870    4.6710 C.3    40  PHE40       0.1736
     14  C         65.1550   16.0740    6.1520 C.2    40  PHE40       0.2596
     15  O         65.5500   16.9290    6.9240 O.2    40  PHE40      -0.2718
     16  CB        64.3410   17.0060    4.0130 C.3    40  PHE40       0.0547
     17  CG        64.7400   17.5630    2.7020 C.ar   40  PHE40      -0.0202
     18  CD1       65.9150   18.2870    2.5730 C.ar   40  PHE40      -0.0042
     19  CD2       63.9440   17.3660    1.5760 C.ar   40  PHE40      -0.0042
     20  CE1       66.3160   18.8030    1.3490 C.ar   40  PHE40      -0.0003
     21  CE2       64.3310   17.8810    0.3560 C.ar   40  PHE40      -0.0003
     22  CZ        65.5190   18.6210    0.2560 C.ar   40  PHE40      -0.0000
     23  N         64.4040   15.0570    6.5050 N.am   41  THR41      -0.1953
     24  CA        64.1460   14.7160    7.8690 C.3    41  THR41       0.1897
     25  C         65.5020   14.5020    8.6120 C.2    41  THR41       0.2313
     26  O         65.7100   15.0570    9.6920 O.2    41  THR41      -0.2863
     27  CB        63.2170   13.4620    7.8970 C.3    41  THR41       0.1794
     28  OG1       61.8420   13.8440    8.1050 O.3    41  THR41      -0.2208
     29  CG2       63.6260   12.4940    8.9380 C.3    41  THR41       0.0378
     30  N         68.6620   15.3500    7.5630 N.3    43  LEU43      -0.1231
     31  CA        69.1600   16.7090    7.5900 C.3    43  LEU43       0.1693
     32  C         68.6480   17.5410    8.7900 C.2    43  LEU43       0.2591
     33  O         69.4090   18.2460    9.4400 O.2    43  LEU43      -0.2718
     34  CB        68.8140   17.3720    6.3150 C.3    43  LEU43       0.0284
     35  CG        69.8960   17.4440    5.2370 C.3    43  LEU43       0.0019
     36  CD1       70.7330   16.1950    5.0860 C.3    43  LEU43       0.0001
     37  CD2       69.3940   18.0040    3.9210 C.3    43  LEU43       0.0001
     38  N         67.3870   17.4240    9.1420 N.am   44  ALA44      -0.1980
     39  CA        66.8600   18.2880   10.1650 C.3    44  ALA44       0.1597
     40  C         67.4330   17.7920   11.4720 C.2    44  ALA44       0.2287
     41  O         67.7500   18.5910   12.3330 O.2    44  ALA44      -0.2864
     42  CB        65.3130   18.3090   10.2030 C.3    44  ALA44       0.0319
     43  N         70.2540   16.3140   12.2300 N.3    46  ILE46      -0.1231
     44  CA        71.6380   16.5810   12.4220 C.3    46  ILE46       0.1692
     45  C         71.7760   18.0460   12.8590 C.2    46  ILE46       0.2592
     46  O         72.7070   18.4010   13.6330 O.2    46  ILE46      -0.2718
     47  CB        72.4040   16.3940   11.1420 C.3    46  ILE46       0.0266
     48  CG1       72.5480   14.9230   10.7910 C.3    46  ILE46       0.0019
     49  CG2       73.7700   17.0320   11.2370 C.3    46  ILE46       0.0020
     50  CD1       73.1380   14.6620    9.2970 C.3    46  ILE46       0.0001
     51  N         70.8550   18.8850   12.3690 N.am   47  SER47      -0.1952
     52  CA        70.8300   20.3020   12.5960 C.3    47  SER47       0.1924
     53  C         70.3990   20.5770   14.0150 C.2    47  SER47       0.2314
     54  O         70.8970   21.4950   14.6130 O.2    47  SER47      -0.2863
     55  CB        69.8150   20.9280   11.6400 C.3    47  SER47       0.2116
     56  OG        69.4390   22.2470   12.0080 O.3    47  SER47      -0.2180
     57  N         73.6720   20.1400   15.8870 N.3    50  GLU50      -0.1231
     58  CA        74.6140   21.2270   15.6740 C.3    50  GLU50       0.1699
     59  C         74.2180   22.4840   16.4210 C.2    50  GLU50       0.2592
     60  O         75.0590   23.2920   16.7310 O.2    50  GLU50      -0.2718
     61  CB        74.7080   21.5400   14.1940 C.3    50  GLU50       0.0402
     62  CG        75.4220   20.4770   13.4420 C.3    50  GLU50       0.1161
     63  CD        75.5590   20.8880   11.9820 C.2    50  GLU50       0.3649
     64  OE1       75.6840   20.0050   11.0820 O.co2  50  GLU50      -0.2457
     65  OE2       75.5040   22.1320   11.7330 O.co2  50  GLU50      -0.2457
     66  N         72.9310   22.6100   16.7140 N.am   51  ILE51      -0.1980
     67  CA        72.3790   23.8200   17.2700 C.3    51  ILE51       0.1595
     68  C         72.5770   23.7810   18.7550 C.2    51  ILE51       0.2287
     69  O         72.8520   24.7860   19.3680 O.2    51  ILE51      -0.2864
     70  CB        70.8880   24.0280   16.9350 C.3    51  ILE51       0.0276
     71  CG1       70.7530   24.3240   15.4550 C.3    51  ILE51       0.0022
     72  CG2       70.3370   25.2450   17.7070 C.3    51  ILE51       0.0022
     73  CD1       69.2840   24.5010   14.8940 C.3    51  ILE51       0.0001
     74  N         63.6830   26.3060   15.2460 N.3    78  ILE78      -0.1245
     75  CA        63.1390   26.6420   13.8990 C.3    78  ILE78       0.1561
     76  C         63.7520   27.8970   13.3160 C.2    78  ILE78       0.2260
     77  O         64.2230   27.8960   12.1800 O.2    78  ILE78      -0.2867
     78  CB        61.5440   26.6660   13.8040 C.3    78  ILE78       0.0252
     79  CG1       61.0780   26.8660   12.3380 C.3    78  ILE78       0.0019
     80  CG2       60.9040   27.6760   14.8200 C.3    78  ILE78       0.0019
     81  CD1       61.4930   25.7430   11.5270 C.3    78  ILE78       0.0001
     82  N         67.4550   27.4270   12.5800 N.3    81  MET81      -0.1182
     83  CA        67.4100   26.6260   11.2840 C.3    81  MET81       0.1917
     84  C         67.1830   27.4690   10.0230 C.2    81  MET81       0.2634
     85  O         67.8630   27.2840    8.9970 O.2    81  MET81      -0.2714
     86  CB        66.3090   25.6270   11.3850 C.2    81  MET81       0.0083
     87  CG        66.7050   24.2540   11.8690 C.2    81  MET81       0.0282
     88  SD        65.3370   23.1510   12.2310 S.3    81  MET81      -0.1125
     89  CE        66.2120   21.5910   12.6140 C.3    81  MET81       0.0742
     90  N         66.2360   28.4020   10.0850 N.am   82  LEU82      -0.1977
     91  CA        65.9800   29.3400    9.0130 C.3    82  LEU82       0.1596
     92  C         67.0720   30.3670    8.7940 C.2    82  LEU82       0.2287
     93  O         67.3620   30.7490    7.6700 O.2    82  LEU82      -0.2864
     94  CB        64.6360   30.0440    9.2450 C.3    82  LEU82       0.0297
     95  CG        63.4920   28.9750    9.1440 C.3    82  LEU82       0.0022
     96  CD1       62.2170   29.4410    9.9230 C.3    82  LEU82       0.0001
     97  CD2       63.1820   28.6720    7.7000 C.3    82  LEU82       0.0001
     98  N         70.1130   29.8000    9.4370 N.3    84  GLU84      -0.1231
     99  CA        71.2870   29.0630    8.9820 C.3    84  GLU84       0.1699
    100  C         71.1790   28.6540    7.4960 C.2    84  GLU84       0.2592
    101  O         72.1600   28.6580    6.7650 O.2    84  GLU84      -0.2718
    102  CB        71.3990   27.8600    9.9230 C.3    84  GLU84       0.0402
    103  CG        72.6720   27.0650    9.9070 C.3    84  GLU84       0.1161
    104  CD        73.9530   27.8530    9.8070 C.2    84  GLU84       0.3649
    105  OE1       74.0200   29.0780   10.0560 O.co2  84  GLU84      -0.2457
    106  OE2       74.9000   27.2000    9.4040 O.co2  84  GLU84      -0.2457
    107  N         69.9800   28.2540    7.0730 N.am   85  THR85      -0.1953
    108  CA        69.4980   28.1880    5.6720 C.3    85  THR85       0.1897
    109  C         69.7380   29.5240    4.9340 C.2    85  THR85       0.2313
    110  O         70.4340   29.5270    3.9670 O.2    85  THR85      -0.2863
    111  CB        67.9950   27.7240    5.6720 C.3    85  THR85       0.1794
    112  OG1       67.8720   26.4790    6.3710 O.3    85  THR85      -0.2208
    113  CG2       67.4800   27.4780    4.2640 C.3    85  THR85       0.0378
    114  N         73.4170   29.7870    4.0950 N.3    88  ARG88      -0.1245
    115  CA        73.8980   28.7330    3.2450 C.3    88  ARG88       0.1563
    116  C         73.2860   28.9110    1.8550 C.2    88  ARG88       0.2260
    117  O         73.3580   28.0210    0.9930 O.2    88  ARG88      -0.2867
    118  CB        73.4320   27.4360    3.8500 C.3    88  ARG88       0.0307
    119  CG        74.0550   27.1840    5.1930 C.3    88  ARG88       0.0489
    120  CD        73.6480   25.8230    5.6750 C.3    88  ARG88       0.2205
    121  NE        74.5230   25.4040    6.7690 N.pl3  88  ARG88      -0.0865
    122  CZ        75.4550   24.4600    6.7560 C.cat  88  ARG88       0.5346
    123  NH1       75.6810   23.6890    5.6960 N.pl3  88  ARG88       0.1354
    124  NH2       76.1580   24.2900    7.8680 N.pl3  88  ARG88       0.1354
    125  N         73.4250   22.4860    2.1420 N.3    98  PHE98      -0.1227
    126  CA        73.3800   21.7560    3.3740 C.3    98  PHE98       0.1736
    127  C         74.5910   20.7870    3.5100 C.2    98  PHE98       0.2595
    128  O         75.4110   20.6410    2.6050 O.2    98  PHE98      -0.2718
    129  CB        72.0770   20.9870    3.4580 C.3    98  PHE98       0.0547
    130  CG        70.8850   21.8520    3.7960 C.ar   98  PHE98      -0.0202
    131  CD1       71.0060   22.9240    4.7100 C.ar   98  PHE98      -0.0042
    132  CD2       69.6450   21.6190    3.2080 C.ar   98  PHE98      -0.0042
    133  CE1       69.9010   23.7240    5.0250 C.ar   98  PHE98      -0.0003
    134  CE2       68.5630   22.4050    3.5200 C.ar   98  PHE98      -0.0003
    135  CZ        68.7020   23.4490    4.4270 C.ar   98  PHE98      -0.0000
    136  N         74.6770   20.1380    4.6680 N.am   99  LEU99      -0.1980
    137  CA        75.8980   19.5190    5.1390 C.3    99  LEU99       0.1596
    138  C         77.1430   20.3020    4.6290 C.2    99  LEU99       0.2287
    139  O         77.2720   21.5270    4.8720 O.2    99  LEU99      -0.2864
    140  CB        75.8620   18.0090    4.8340 C.3    99  LEU99       0.0297
    141  CG        74.9200   17.3340    5.8660 C.3    99  LEU99       0.0022
    142  CD1       74.6820   15.8160    5.7830 C.3    99  LEU99       0.0001
    143  CD2       75.3370   17.6930    7.2580 C.3    99  LEU99       0.0001
    144  N         63.0040   21.0060   -2.9090 N.3   109  PHE109     -0.1241
    145  CA        62.0890   20.9990   -1.7450 C.3   109  PHE109      0.1605
    146  C         60.6030   20.7370   -2.0990 C.2   109  PHE109      0.2264
    147  O         59.9180   20.0240   -1.3800 O.2   109  PHE109     -0.2867
    148  CB        62.1990   22.3260   -0.9280 C.3   109  PHE109      0.0534
    149  CG        63.5510   22.5630   -0.3080 C.ar  109  PHE109     -0.0203
    150  CD1       63.8510   22.0460    0.9430 C.ar  109  PHE109     -0.0042
    151  CD2       64.5250   23.2920   -0.9750 C.ar  109  PHE109     -0.0042
    152  CE1       65.0830   22.2580    1.5050 C.ar  109  PHE109     -0.0003
    153  CE2       65.7220   23.5140   -0.4150 C.ar  109  PHE109     -0.0003
    154  CZ        66.0070   23.0080    0.8360 C.ar  109  PHE109     -0.0000
    155  N         56.8990   19.2730    0.0750 N.3   114  LEU114     -0.1245
    156  CA        56.9430   20.3760    0.9360 C.3   114  LEU114      0.1561
    157  C         56.0860   21.4180    0.2680 C.2   114  LEU114      0.2260
    158  O         56.1210   21.5780   -0.9310 O.2   114  LEU114     -0.2867
    159  CB        58.4350   20.7630    1.1960 C.3   114  LEU114      0.0270
    160  CG        59.1370   20.1860    2.5020 C.3   114  LEU114      0.0019
    161  CD1       58.3710   19.0840    3.2510 C.3   114  LEU114      0.0001
    162  CD2       60.6300   19.7360    2.3860 C.3   114  LEU114      0.0001
    163  N         55.2450   27.3880    2.5900 N.3   118  PHE118     -0.1227
    164  CA        56.4030   27.4040    3.4770 C.3   118  PHE118      0.1736
    165  C         57.7230   27.5500    2.7840 C.2   118  PHE118      0.2595
    166  O         58.5070   28.3820    3.1790 O.2   118  PHE118     -0.2718
    167  CB        56.4170   26.2430    4.5330 C.3   118  PHE118      0.0547
    168  CG        57.4260   26.4480    5.6320 C.ar  118  PHE118     -0.0202
    169  CD1       57.5390   27.6900    6.2910 C.ar  118  PHE118     -0.0042
    170  CD2       58.2960   25.4200    5.9980 C.ar  118  PHE118     -0.0042
    171  CE1       58.5060   27.8870    7.2940 C.ar  118  PHE118     -0.0003
    172  CE2       59.2660   25.6040    6.9890 C.ar  118  PHE118     -0.0003
    173  CZ        59.3680   26.8190    7.6430 C.ar  118  PHE118     -0.0000
    174  N         57.9600   26.7620    1.7470 N.am  119  ILE119     -0.1980
    175  CA        59.1750   26.8560    0.9160 C.3   119  ILE119      0.1595
    176  C         59.4440   28.2890    0.4310 C.2   119  ILE119      0.2287
    177  O         60.5450   28.8150    0.6260 O.2   119  ILE119     -0.2864
    178  CB        59.1100   25.8010   -0.2360 C.3   119  ILE119      0.0276
    179  CG1       59.2020   24.3960    0.3250 C.3   119  ILE119      0.0022
    180  CG2       60.2040   25.9330   -1.2470 C.3   119  ILE119      0.0022
    181  CD1       60.2360   24.1740    1.4280 C.3   119  ILE119      0.0001
    182  N         60.6350   30.9860    2.9750 N.3   122  ILE122     -0.1245
    183  CA        62.0280   30.5850    3.2140 C.3   122  ILE122      0.1561
    184  C         63.0050   31.0940    2.2300 C.2   122  ILE122      0.2260
    185  O         64.0600   31.5780    2.6080 O.2   122  ILE122     -0.2867
    186  CB        62.2180   29.0640    3.1710 C.3   122  ILE122      0.0252
    187  CG1       61.5510   28.3670    4.3960 C.3   122  ILE122      0.0019
    188  CG2       63.6970   28.7160    3.1640 C.3   122  ILE122      0.0019
    189  CD1       61.7550   26.7610    4.4370 C.3   122  ILE122      0.0001
    190  N         55.4220   28.0420    9.7570 N.3   204  HIS204     -0.1241
    191  CA        55.8280   26.6330   10.0040 C.3   204  HIS204      0.1621
    192  C         54.8570   25.8690   10.8680 C.2   204  HIS204      0.2264
    193  O         54.6350   24.7010   10.6250 O.2   204  HIS204     -0.2867
    194  CB        57.2490   26.5160   10.6050 C.3   204  HIS204      0.0745
    195  CG        57.7350   25.0980   10.7790 C.ar  204  HIS204      0.0817
    196  ND1       57.5560   24.3770   11.9420 N.ar  204  HIS204     -0.2268
    197  CD2       58.3890   24.2720    9.9410 C.ar  204  HIS204      0.1154
    198  CE1       58.0690   23.1670   11.8090 C.ar  204  HIS204      0.1986
    199  NE2       58.5760   23.0730   10.5940 N.ar  204  HIS204     -0.2212
    200  N         51.8960   24.4510    8.7730 N.3   207  GLN207     -0.1245
    201  CA        52.1100   23.2340    7.8720 C.3   207  GLN207      0.1566
    202  C         51.7120   21.8880    8.5070 C.2   207  GLN207      0.2260
    203  O         52.0240   20.8060    7.9610 O.2   207  GLN207     -0.2867
    204  CB        53.5270   23.1220    7.2150 C.3   207  GLN207      0.0367
    205  CG        53.7620   21.7100    6.4090 C.3   207  GLN207      0.0905
    206  CD        55.0990   21.5130    5.5230 C.2   207  GLN207      0.2608
    207  OE1       56.2160   21.4300    6.0720 O.2   207  GLN207     -0.2717
    208  NE2       54.9380   21.4000    4.1820 N.am  207  GLN207     -0.0878
    209  N         51.8820   17.4240    6.8200 N.3   211  LEU211     -0.1245
    210  CA        52.6160   16.3970    7.5640 C.3   211  LEU211      0.1561
    211  C         51.7210   15.3300    8.1650 C.2   211  LEU211      0.2260
    212  O         52.0720   14.1280    8.1290 O.2   211  LEU211     -0.2867
    213  CB        53.4350   17.0390    8.7160 C.3   211  LEU211      0.0270
    214  CG        54.9160   17.1060    8.3460 C.3   211  LEU211      0.0019
    215  CD1       55.3630   18.5090    7.8570 C.3   211  LEU211      0.0001
    216  CD2       55.7120   16.6720    9.5110 C.3   211  LEU211      0.0001
    217  N         56.5200   11.3120   11.4780 N.3   218  LEU218     -0.1245
    218  CA        57.7270   12.1280   11.6520 C.3   218  LEU218      0.1561
    219  C         58.6280   11.6700   12.8310 C.2   218  LEU218      0.2260
    220  O         58.1100   11.3850   13.9330 O.2   218  LEU218     -0.2867
    221  CB        57.3050   13.6060   11.8460 C.3   218  LEU218      0.0270
    222  CG        58.3300   14.7440   11.8030 C.3   218  LEU218      0.0019
    223  CD1       58.8000   14.9310   10.4230 C.3   218  LEU218      0.0001
    224  CD2       57.6910   16.0300   12.3490 C.3   218  LEU218      0.0001
    225  N         62.2460   15.7360   16.1210 N.3   222  LEU222     -0.1245
    226  CA        61.6910   16.6720   15.1780 C.3   222  LEU222      0.1561
    227  C         60.2200   16.8170   15.4430 C.2   222  LEU222      0.2260
    228  O         59.6540   17.8810   15.3040 O.2   222  LEU222     -0.2867
    229  CB        61.8940   16.0620   13.7810 C.3   222  LEU222      0.0270
    230  CG        62.9580   16.6530   12.8620 C.3   222  LEU222      0.0019
    231  CD1       64.2970   16.9470   13.5270 C.3   222  LEU222      0.0001
    232  CD2       63.1180   15.7950   11.6290 C.3   222  LEU222      0.0001
    233  N         58.9190   20.2390   17.1980 N.3   226  TRP226     -0.1241
    234  CA        57.8600   20.8650   16.4260 C.3   226  TRP226      0.1605
    235  C         56.4500   20.6330   17.0460 C.2   226  TRP226      0.2264
    236  O         55.5850   21.5030   16.9200 O.2   226  TRP226     -0.2867
    237  CB        58.0010   20.5420   14.9130 C.3   226  TRP226      0.0550
    238  CG        59.4060   20.9440   14.3580 C.ar  226  TRP226      0.0003
    239  CD1       60.3030   21.8640   14.9180 C.ar  226  TRP226      0.0946
    240  CD2       60.0440   20.4700   13.1700 C.ar  226  TRP226      0.0152
    241  NE1       61.4320   21.9580   14.1630 N.ar  226  TRP226     -0.2442
    242  CE2       61.3010   21.1280   13.0750 C.ar  226  TRP226      0.0810
    243  CE3       59.6660   19.5940   12.1500 C.ar  226  TRP226      0.0012
    244  CZ2       62.1970   20.8860   12.0180 C.ar  226  TRP226      0.0191
    245  CZ3       60.5600   19.3640   11.0930 C.ar  226  TRP226      0.0001
    246  CH2       61.8090   19.9960   11.0460 C.ar  226  TRP226      0.0015
@<TRIPOS>BOND
     1   144   145    1
     2   146   145    1
     3   146   147    2
     4   145   148    1
     5   180   178    1
     6   151   153   ar
     7   151   149   ar
     8   158   157    2
     9   148   149    1
    10   153   154   ar
    11   149   150   ar
    12   178   179    1
    13   178   175    1
    14   155   156    1
    15    22    21   ar
    16    22    20   ar
    17   157   156    1
    18   179   181    1
    19    21    19   ar
    20   176   177    2
    21   176   175    1
    22   154   152   ar
    23   175   174    1
    24   156   159    1
    25   150   152   ar
    26   117   116    2
    27     1     2    1
    28   159   160    1
    29    20    18   ar
    30    19    17   ar
    31   174   165   am
    32   116   115    1
    33   125   126    1
    34   184   185    2
    35   184   183    1
    36   162   160    1
    37     2     5    1
    38     2     3    1
    39   160   161    1
    40    18    17   ar
    41   163   164    1
    42   128   127    2
    43     5     6    1
    44    17    16    1
    45   165   166    2
    46   165   164    1
    47   182   183    1
    48   188   186    1
    49   186   183    1
    50   186   187    1
    51   132   134   ar
    52   132   130   ar
    53   115   118    1
    54   115   114    1
    55   126   129    1
    56   126   127    1
    57   129   130    1
    58   164   167    1
    59   127   136   am
    60   134   135   ar
    61     3     4    2
    62   130   131   ar
    63   118   119    1
    64    37    35    1
    65     6     7   ar
    66     6     8   ar
    67   110   109    2
    68    16    13    1
    69     7     9   ar
    70    12    13    1
    71   208   206   am
    72   113   111    1
    73   187   189    1
    74   135   133   ar
    75   167   168    1
    76   138   139    2
    77   138   137    1
    78   136   137    1
    79    13    14    1
    80   131   133   ar
    81   140   137    1
    82   140   141    1
    83   109   108    1
    84     8    10   ar
    85    36    35    1
    86   119   120    1
    87     9    11   ar
    88    35    34    1
    89   206   207    2
    90   206   205    1
    91   168   170   ar
    92   168   169   ar
    93   108   111    1
    94   108   107    1
    95   111   112    1
    96   120   121    1
    97   123   122    1
    98   142   141    1
    99   141   143    1
   100   170   172   ar
   101    14    23   am
   102    14    15    2
   103    10    11   ar
   104   169   171   ar
   105    34    31    1
   106   205   204    1
   107    23    24    1
   108   122   121    2
   109   122   124    1
   110   101   100    2
   111   209   210    1
   112   172   173   ar
   113   107   100   am
   114   204   201    1
   115   171   173   ar
   116   100    99    1
   117    30    31    1
   118   210   211    1
   119   210   213    1
   120    31    32    1
   121    93    92    2
   122    97    95    1
   123   215   214    1
   124    24    27    1
   125    24    25    1
   126   201   202    1
   127   201   200    1
   128    27    28    1
   129    27    29    1
   130   203   202    2
   131   212   211    2
   132   214   213    1
   133   214   216    1
   134    25    26    2
   135    32    38   am
   136    32    33    2
   137    92    91    1
   138    99    98    1
   139    99   102    1
   140    85    84    2
   141    91    94    1
   142    91    90    1
   143    38    39    1
   144    95    94    1
   145    95    96    1
   146    50    48    1
   147   106   104   ar
   148   190   191    1
   149   104   103    1
   150   104   105   ar
   151   103   102    1
   152   197   199   ar
   153   197   195   ar
   154   191   194    1
   155   191   192    1
   156    84    90   am
   157    84    83    1
   158    39    42    1
   159    39    40    1
   160   223   222    1
   161   199   198   ar
   162   194   195    1
   163   193   192    2
   164   195   196   ar
   165    48    47    1
   166   246   245   ar
   167   246   244   ar
   168    64    63   ar
   169   245   243   ar
   170    47    49    1
   171    47    44    1
   172    83    86    1
   173    83    82    1
   174    86    87    2
   175    40    41    2
   176   217   218    1
   177    81    79    1
   178   232   230    1
   179    55    56    1
   180    55    52    1
   181   218   221    1
   182   218   219    1
   183    65    63   ar
   184   222   221    1
   185   222   224    1
   186   198   196   ar
   187    87    88    1
   188    63    62    1
   189   244   242   ar
   190   243   240   ar
   191    77    76    2
   192    43    44    1
   193    88    89    1
   194    79    78    1
   195    51    52    1
   196    51    45   am
   197    44    45    1
   198    52    53    1
   199   219   220    2
   200    45    46    2
   201   230   231    1
   202   230   229    1
   203   242   240   ar
   204   242   241   ar
   205   240   238   ar
   206    76    75    1
   207    62    61    1
   208   229   226    1
   209    78    75    1
   210    78    80    1
   211    75    74    1
   212    53    54    2
   213   241   239   ar
   214    61    58    1
   215   238   237    1
   216   238   239   ar
   217    73    71    1
   218   237   234    1
   219   226   227    1
   220   226   225    1
   221   228   227    2
   222    71    70    1
   223    58    57    1
   224    58    59    1
   225    59    66   am
   226    59    60    2
   227   234   235    1
   228   234   233    1
   229    66    67    1
   230   236   235    2
   231    70    67    1
   232    70    72    1
   233    67    68    1
   234    68    69    2
