@<TRIPOS>MOLECULE
tmp/5jyaB01.pdb
 88 81 0 0 0
SMALL
GASTEIGER

@<TRIPOS>ATOM
      1  N         -4.7670   34.3930   90.2140 N.3   122  PRO122     -0.2116
      2  CA        -5.2240   34.8850   88.9130 C.3   122  PRO122      0.1372
      3  C         -5.8670   36.2610   89.0390 C.2   122  PRO122      0.2244
      4  O         -6.6110   36.5030   89.9900 O.2   122  PRO122     -0.2868
      5  CB        -6.2650   33.8510   88.4970 C.3   122  PRO122      0.0268
      6  CG        -5.8210   32.5940   89.1590 C.3   122  PRO122      0.0207
      7  CD        -5.2330   33.0180   90.4720 C.3   122  PRO122      0.0892
      8  N         -2.2670   30.9170   89.9420 N.3   150  SER150     -0.1202
      9  CA        -2.7410   30.0600   91.0430 C.3   150  SER150      0.2020
     10  C         -1.7550   28.9050   91.3020 C.2   150  SER150      0.2619
     11  O         -0.8130   28.6990   90.5330 O.2   150  SER150     -0.2717
     12  CB        -4.1350   29.4990   90.7290 C.3   150  SER150      0.2103
     13  OG        -4.0630   28.3440   89.9140 O.3   150  SER150     -0.2182
     14  N         -1.9920   28.1570   92.3800 N.am  151  SER151     -0.1937
     15  CA        -1.1230   27.0380   92.7480 C.3   151  SER151      0.2055
     16  C         -1.2100   25.8870   91.7550 C.2   151  SER151      0.2643
     17  O         -0.1870   25.2860   91.4350 O.2   151  SER151     -0.2714
     18  CB        -1.4000   26.5510   94.1790 C.3   151  SER151      0.2130
     19  OG        -2.6980   25.9930   94.3220 O.3   151  SER151     -0.2179
     20  N         -2.4180   25.5720   91.2930 N.am  152  THR152     -0.1950
     21  CA        -2.6170   24.5320   90.2680 C.3   152  THR152      0.1897
     22  C         -1.9990   24.9390   88.9320 C.2   152  THR152      0.2313
     23  O         -1.4990   24.0940   88.2040 O.2   152  THR152     -0.2863
     24  CB        -4.1110   24.1670   90.0660 C.3   152  THR152      0.1794
     25  OG1       -4.7070   23.8760   91.3390 O.3   152  THR152     -0.2208
     26  CG2       -4.2860   22.9340   89.1730 C.3   152  THR152      0.0378
     27  N         -7.5850   18.1920   89.4250 N.3   176  THR176     -0.1218
     28  CA        -6.7480   18.3580   90.6210 C.3   176  THR176      0.1862
     29  C         -7.4340   17.7940   91.8740 C.2   176  THR176      0.2287
     30  O         -8.5350   18.2100   92.2220 O.2   176  THR176     -0.2866
     31  CB        -6.3000   19.8170   90.8790 C.3   176  THR176      0.1770
     32  OG1       -5.4850   19.8570   92.0600 O.3   176  THR176     -0.2211
     33  CG2       -7.4710   20.7890   91.0550 C.3   176  THR176      0.0375
     34  N         -7.2450   18.0780   95.4610 N.3   178  HIS178     -0.1241
     35  CA        -6.7350   19.2830   96.0890 C.3   178  HIS178      0.1621
     36  C         -7.0720   19.3140   97.5770 C.2   178  HIS178      0.2264
     37  O         -8.1560   18.9020   97.9970 O.2   178  HIS178     -0.2867
     38  CB        -7.3780   20.4850   95.3710 C.3   178  HIS178      0.0745
     39  CG        -6.7110   21.8080   95.6160 C.ar  178  HIS178      0.0817
     40  ND1       -6.7440   22.4580   96.8320 N.ar  178  HIS178     -0.2268
     41  CD2       -6.0350   22.6270   94.7750 C.ar  178  HIS178      0.1154
     42  CE1       -6.0940   23.6050   96.7390 C.ar  178  HIS178      0.1986
     43  NE2       -5.6520   23.7310   95.5010 N.ar  178  HIS178     -0.2212
     44  N         -9.2640   24.4470  101.5680 N.3   181  THR181     -0.1218
     45  CA        -8.7420   25.8120  101.7500 C.3   181  THR181      0.1862
     46  C         -9.6600   26.6740  102.6000 C.2   181  THR181      0.2287
     47  O        -10.7820   26.2730  102.9250 O.2   181  THR181     -0.2866
     48  CB        -8.5190   26.5040  100.4020 C.3   181  THR181      0.1770
     49  OG1       -9.7380   26.4770   99.6530 O.3   181  THR181     -0.2211
     50  CG2       -7.4160   25.8070   99.6250 C.3   181  THR181      0.0375
     51  N        -11.4310   29.2990  101.9890 N.3   183  ASP183     -0.1239
     52  CA       -12.7510   29.6960  101.4400 C.3   183  ASP183      0.1674
     53  C        -13.8160   28.5910  101.4780 C.2   183  ASP183      0.2266
     54  O        -14.9510   28.8210  101.0600 O.2   183  ASP183     -0.2867
     55  CB       -12.6500   30.3340  100.0340 C.3   183  ASP183      0.1410
     56  CG       -12.2290   29.3500   98.9580 C.2   183  ASP183      0.3668
     57  OD1      -11.2150   28.6420   99.1490 O.co2 183  ASP183     -0.2456
     58  OD2      -12.8960   29.3170   97.8990 O.co2 183  ASP183     -0.2456
     59  N        -11.7450   25.2140   89.1720 N.3   211  THR211     -0.1203
     60  CA       -10.3020   25.4370   89.3630 C.3   211  THR211      0.1994
     61  C         -9.8110   26.6430   88.5540 C.2   211  THR211      0.2618
     62  O        -10.1910   26.8320   87.3840 O.2   211  THR211     -0.2717
     63  CB        -9.4600   24.1830   89.0170 C.3   211  THR211      0.1784
     64  OG1       -8.0570   24.4980   89.0940 O.3   211  THR211     -0.2211
     65  CG2       -9.7920   23.6710   87.6280 C.3   211  THR211      0.0376
     66  N         -8.9280   27.4240   89.1890 N.am  212  GLY212     -0.1956
     67  CA        -8.4050   28.6690   88.6230 C.3   212  GLY212      0.1869
     68  C         -7.3160   28.5150   87.5760 C.2   212  GLY212      0.2309
     69  O         -6.7090   29.5100   87.1830 O.2   212  GLY212     -0.2863
     70  N        -11.8720   18.6680   95.9400 N.3   232  ARG232     -0.1245
     71  CA       -11.3580   19.0900   97.2410 C.3   232  ARG232      0.1563
     72  C        -11.5320   17.9640   98.2630 C.2   232  ARG232      0.2260
     73  O        -12.6450   17.4690   98.4370 O.2   232  ARG232     -0.2867
     74  CB       -12.0940   20.3490   97.7290 C.3   232  ARG232      0.0307
     75  CG       -11.9100   21.5940   96.8660 C.3   232  ARG232      0.0489
     76  CD       -10.4910   22.1050   97.0000 C.3   232  ARG232      0.2205
     77  NE       -10.1790   23.3230   96.2540 N.pl3 232  ARG232     -0.0865
     78  CZ       -10.3210   24.5680   96.7060 C.cat 232  ARG232      0.5346
     79  NH1      -10.8320   24.8220   97.9080 N.pl3 232  ARG232      0.1354
     80  NH2       -9.9640   25.5810   95.9250 N.pl3 232  ARG232      0.1354
     81  N          0.0700   23.1240   97.4910 N.3   313  ASN313     -0.1240
     82  CA        -0.6630   24.3460   97.1730 C.3   313  ASN313      0.1653
     83  C         -0.2240   25.5620   98.0060 C.2   313  ASN313      0.2266
     84  O         -0.2160   26.6760   97.4960 O.2   313  ASN313     -0.2867
     85  CB        -2.1890   24.1400   97.2550 C.3   313  ASN313      0.1155
     86  CG        -2.6320   23.5060   98.5580 C.2   313  ASN313      0.2627
     87  OD1       -2.5330   22.2920   98.7310 O.2   313  ASN313     -0.2716
     88  ND2       -3.1180   24.3180   99.4850 N.am  313  ASN313     -0.0877
@<TRIPOS>BOND
     1    69    68    2
     2    62    61    2
     3    68    67    1
     4    65    63    1
     5    23    22    2
     6     5     2    1
     7     5     6    1
     8    61    66   am
     9    61    60    1
    10    67    66    1
    11     2     3    1
    12     2     1    1
    13    22    21    1
    14    63    64    1
    15    63    60    1
    16     3     4    2
    17     6     7    1
    18    59    60    1
    19    26    24    1
    20    27    28    1
    21    13    12    1
    22     8     9    1
    23    24    21    1
    24    24    25    1
    25     1     7    1
    26    21    20    1
    27    11    10    2
    28    28    31    1
    29    28    29    1
    30    12     9    1
    31    31    33    1
    32    31    32    1
    33     9    10    1
    34    20    16   am
    35    10    14   am
    36    17    16    2
    37    16    15    1
    38    29    30    2
    39    14    15    1
    40    15    18    1
    41    18    19    1
    42    41    43   ar
    43    41    39   ar
    44    38    39    1
    45    38    35    1
    46    34    35    1
    47    43    42   ar
    48    39    40   ar
    49    80    78    1
    50    70    71    1
    51    35    36    1
    52    77    78    2
    53    77    76    1
    54    78    79    1
    55    42    40   ar
    56    75    76    1
    57    75    74    1
    58    82    85    1
    59    82    81    1
    60    82    83    1
    61    71    74    1
    62    71    72    1
    63    85    86    1
    64    84    83    2
    65    36    37    2
    66    58    56   ar
    67    72    73    2
    68    86    87    2
    69    86    88   am
    70    56    57   ar
    71    56    55    1
    72    50    48    1
    73    49    48    1
    74    55    52    1
    75    48    45    1
    76    54    53    2
    77    52    53    1
    78    52    51    1
    79    44    45    1
    80    45    46    1
    81    46    47    2
