@<TRIPOS>MOLECULE
tmp/5jybB00.pdb
 86 83 0 0 0
SMALL
GASTEIGER

@<TRIPOS>ATOM
      1  N        -34.7320   -2.1660   58.4930 N.3    11  PRO11      -0.2116
      2  CA       -33.7970   -1.4680   59.3720 C.3    11  PRO11       0.1372
      3  C        -32.9420   -2.4460   60.1730 C.2    11  PRO11       0.2244
      4  O        -33.4160   -3.5050   60.6120 O.2    11  PRO11      -0.2868
      5  CB       -34.7150   -0.6460   60.2710 C.3    11  PRO11       0.0268
      6  CG       -35.9070   -0.3560   59.3970 C.3    11  PRO11       0.0207
      7  CD       -36.0780   -1.5680   58.5190 C.3    11  PRO11       0.0892
      8  N        -32.1780    7.6320   57.8280 N.3    44  VAL44      -0.1231
      9  CA       -33.5310    7.5550   57.2980 C.3    44  VAL44       0.1692
     10  C        -34.0280    6.0970   57.2770 C.2    44  VAL44       0.2592
     11  O        -35.1620    5.8040   57.6860 O.2    44  VAL44      -0.2718
     12  CB       -33.6070    8.1750   55.9040 C.3    44  VAL44       0.0266
     13  CG1      -34.9770    7.9600   55.2800 C.3    44  VAL44       0.0020
     14  CG2      -33.2700    9.6800   56.0020 C.3    44  VAL44       0.0020
     15  N        -33.1720    5.1880   56.8230 N.am   45  PHE45      -0.1976
     16  CA       -33.5780    3.8030   56.5860 C.3    45  PHE45       0.1639
     17  C        -33.1040    2.8420   57.6820 C.2    45  PHE45       0.2290
     18  O        -33.5490    1.7060   57.7400 O.2    45  PHE45      -0.2864
     19  CB       -33.0780    3.3470   55.2100 C.3    45  PHE45       0.0560
     20  CG       -33.6220    4.1710   54.0930 C.ar   45  PHE45      -0.0200
     21  CD1      -34.8870    3.9240   53.5660 C.ar   45  PHE45      -0.0042
     22  CD2      -32.8760    5.2140   53.5670 C.ar   45  PHE45      -0.0042
     23  CE1      -35.3900    4.7010   52.5520 C.ar   45  PHE45      -0.0003
     24  CE2      -33.3820    6.0000   52.5580 C.ar   45  PHE45      -0.0003
     25  CZ       -34.6420    5.7460   52.0490 C.ar   45  PHE45      -0.0000
     26  N        -37.6790    8.4960   48.5640 N.3   154  VAL154     -0.1231
     27  CA       -37.7910    7.7520   49.8130 C.3   154  VAL154      0.1692
     28  C        -38.9820    6.7850   49.7850 C.2   154  VAL154      0.2591
     29  O        -38.8390    5.5890   50.0690 O.2   154  VAL154     -0.2718
     30  CB       -37.9020    8.6890   51.0120 C.3   154  VAL154      0.0266
     31  CG1      -38.0910    7.9020   52.2910 C.3   154  VAL154      0.0020
     32  CG2      -36.6370    9.5190   51.1300 C.3   154  VAL154      0.0020
     33  N        -40.1490    7.2830   49.4160 N.am  155  GLU155     -0.1979
     34  CA       -41.3520    6.4750   49.3410 C.3   155  GLU155      0.1602
     35  C        -41.1770    5.2520   48.4450 C.2   155  GLU155      0.2287
     36  O        -41.5910    4.1490   48.7940 O.2   155  GLU155     -0.2864
     37  CB       -42.5300    7.3290   48.8340 C.3   155  GLU155      0.0415
     38  CG       -43.7830    6.4990   48.5320 C.3   155  GLU155      0.1163
     39  CD       -44.9400    7.3030   47.9960 C.2   155  GLU155      0.3649
     40  OE1      -45.0310    8.5110   48.3160 O.co2 155  GLU155     -0.2457
     41  OE2      -45.7560    6.7150   47.2470 O.co2 155  GLU155     -0.2457
     42  N        -38.9900    2.6080   49.9490 N.3   158  ASN158     -0.1225
     43  CA       -39.7350    1.8800   50.9720 C.3   158  ASN158      0.1785
     44  C        -40.7480    0.8920   50.3740 C.2   158  ASN158      0.2597
     45  O        -40.8000   -0.2740   50.7830 O.2   158  ASN158     -0.2718
     46  CB       -40.4670    2.8560   51.9120 C.3   158  ASN158      0.1169
     47  CG       -39.5150    3.7220   52.7060 C.2   158  ASN158      0.2627
     48  OD1      -38.3520    3.3760   52.8770 O.2   158  ASN158     -0.2716
     49  ND2      -40.0050    4.8600   53.1960 N.am  158  ASN158     -0.0877
     50  N        -41.5500    1.3520   49.4160 N.am  159  ARG159     -0.1979
     51  CA       -42.5630    0.5100   48.7880 C.3   159  ARG159      0.1597
     52  C        -41.9680   -0.6600   47.9980 C.2   159  ARG159      0.2287
     53  O        -42.5920   -1.7050   47.9070 O.2   159  ARG159     -0.2864
     54  CB       -43.4520    1.3370   47.8510 C.3   159  ARG159      0.0334
     55  CG       -44.3690    2.2710   48.5980 C.3   159  ARG159      0.0492
     56  CD       -45.0210    3.2690   47.6630 C.3   159  ARG159      0.2205
     57  NE       -45.8650    2.5950   46.6850 N.pl3 159  ARG159     -0.0865
     58  CZ       -46.4860    3.2070   45.6910 C.cat 159  ARG159      0.5346
     59  NH1      -46.3530    4.5230   45.5370 N.pl3 159  ARG159      0.1354
     60  NH2      -47.2310    2.4960   44.8470 N.pl3 159  ARG159      0.1354
     61  N        -38.6660   -2.3830   51.0390 N.3   162  PHE162     -0.1227
     62  CA       -38.9260   -2.5950   52.4770 C.3   162  PHE162      0.1736
     63  C        -40.2830   -3.2200   52.8140 C.2   162  PHE162      0.2596
     64  O        -40.6450   -3.3330   53.9990 O.2   162  PHE162     -0.2718
     65  CB       -38.7820   -1.2720   53.2260 C.3   162  PHE162      0.0547
     66  CG       -37.3530   -0.8360   53.4160 C.ar  162  PHE162     -0.0202
     67  CD1      -36.6650   -0.2360   52.4000 C.ar  162  PHE162     -0.0042
     68  CD2      -36.6940   -1.0590   54.6210 C.ar  162  PHE162     -0.0042
     69  CE1      -35.3180    0.1750   52.5650 C.ar  162  PHE162     -0.0003
     70  CE2      -35.3630   -0.6570   54.7900 C.ar  162  PHE162     -0.0003
     71  CZ       -34.6810   -0.0480   53.7470 C.ar  162  PHE162     -0.0000
     72  N        -41.0210   -3.6620   51.8040 N.am  163  SER163     -0.1952
     73  CA       -42.3080   -4.3040   52.0130 C.3   163  SER163      0.1924
     74  C        -42.5580   -5.3470   50.9560 C.2   163  SER163      0.2314
     75  O        -42.2520   -5.1240   49.7830 O.2   163  SER163     -0.2863
     76  CB       -43.4540   -3.2860   51.9630 C.3   163  SER163      0.2116
     77  OG       -44.7040   -3.9240   52.1440 O.3   163  SER163     -0.2180
     78  N        -45.6320   -6.1410   50.1790 N.3   165  GLU165     -0.1245
     79  CA       -46.9520   -5.7950   49.6390 C.3   165  GLU165      0.1567
     80  C        -46.8190   -5.4480   48.1500 C.2   165  GLU165      0.2260
     81  O        -45.7940   -4.9150   47.7170 O.2   165  GLU165     -0.2867
     82  CB       -47.5630   -4.5950   50.3650 C.3   165  GLU165      0.0388
     83  CG       -47.7610   -4.7180   51.8670 C.3   165  GLU165      0.1160
     84  CD       -47.9020   -3.3320   52.5370 C.2   165  GLU165      0.3649
     85  OE1      -46.8640   -2.6760   52.8850 O.co2 165  GLU165     -0.2457
     86  OE2      -49.0660   -2.8970   52.7060 O.co2 165  GLU165     -0.2457
@<TRIPOS>BOND
     1    60    58    1
     2    59    58    1
     3    58    57    2
     4    57    56    1
     5    41    39   ar
     6    56    55    1
     7    81    80    2
     8    54    55    1
     9    54    51    1
    10    53    52    2
    11    39    40   ar
    12    39    38    1
    13    52    51    1
    14    80    79    1
    15    35    36    2
    16    35    34    1
    17    38    37    1
    18    26    27    1
    19    51    50    1
    20    37    34    1
    21    34    33    1
    22    50    44   am
    23    33    28   am
    24    79    78    1
    25    79    82    1
    26    75    74    2
    27    28    27    1
    28    28    29    2
    29    27    30    1
    30    42    43    1
    31    82    83    1
    32    44    45    2
    33    44    43    1
    34    74    73    1
    35    43    46    1
    36    30    32    1
    37    30    31    1
    38    61    62    1
    39    72    73    1
    40    72    63   am
    41    83    84    1
    42    46    47    1
    43    76    73    1
    44    76    77    1
    45    25    23   ar
    46    25    24   ar
    47    67    69   ar
    48    67    66   ar
    49    62    63    1
    50    62    65    1
    51    84    86   ar
    52    84    85   ar
    53    23    21   ar
    54    24    22   ar
    55    69    71   ar
    56    47    48    2
    57    47    49   am
    58    63    64    2
    59    65    66    1
    60    66    68   ar
    61    21    20   ar
    62    22    20   ar
    63    71    70   ar
    64    20    19    1
    65    68    70   ar
    66    19    16    1
    67    13    12    1
    68    12    14    1
    69    12     9    1
    70    16    15    1
    71    16    17    1
    72    15    10   am
    73    10     9    1
    74    10    11    2
    75     9     8    1
    76    17    18    2
    77     1     7    1
    78     1     2    1
    79     7     6    1
    80     2     3    1
    81     2     5    1
    82     6     5    1
    83     3     4    2
