@<TRIPOS>MOLECULE
tmp/5jybA02.pdb
 84 81 0 0 0
SMALL
GASTEIGER

@<TRIPOS>ATOM
      1  N        -24.5380   -6.3330  -18.4750 N.3    14  ILE14      -0.1245
      2  CA       -25.5990   -5.5580  -17.8550 C.3    14  ILE14       0.1561
      3  C        -25.4150   -5.3870  -16.3530 C.2    14  ILE14       0.2260
      4  O        -25.1490   -6.3680  -15.6360 O.2    14  ILE14      -0.2867
      5  CB       -26.9720   -6.2240  -18.1370 C.3    14  ILE14       0.0252
      6  CG1      -27.2780   -6.1570  -19.6280 C.3    14  ILE14       0.0019
      7  CG2      -28.0780   -5.5340  -17.3340 C.3    14  ILE14       0.0019
      8  CD1      -28.2970   -7.1710  -20.1080 C.3    14  ILE14       0.0001
      9  N        -23.8790   -1.8580  -19.9210 N.3    48  THR48      -0.1203
     10  CA       -25.2890   -1.5810  -20.1620 C.3    48  THR48       0.1994
     11  C        -25.9540   -1.4890  -18.7930 C.2    48  THR48       0.2618
     12  O        -25.6940   -2.3220  -17.9180 O.2    48  THR48      -0.2717
     13  CB       -25.9520   -2.6740  -21.0320 C.3    48  THR48       0.1784
     14  OG1      -25.3560   -2.6580  -22.3350 O.3    48  THR48      -0.2211
     15  CG2      -27.4610   -2.4370  -21.1700 C.3    48  THR48       0.0376
     16  N        -26.8010   -0.4850  -18.6080 N.am   49  VAL49      -0.1965
     17  CA       -27.4130   -0.2230  -17.3060 C.3    49  VAL49       0.1727
     18  C        -28.9330   -0.3580  -17.3380 C.2    49  VAL49       0.2616
     19  O        -29.5980    0.1920  -18.2140 O.2    49  VAL49      -0.2715
     20  CB       -27.0640    1.1940  -16.8020 C.3    49  VAL49       0.0290
     21  CG1      -27.6650    1.4530  -15.4300 C.3    49  VAL49       0.0023
     22  CG2      -25.5710    1.3520  -16.7410 C.3    49  VAL49       0.0023
     23  N        -29.4810   -1.0660  -16.3610 N.am   50  VAL50      -0.1964
     24  CA       -30.9240   -1.1650  -16.2480 C.3    50  VAL50       0.1712
     25  C        -31.3400   -0.8980  -14.8030 C.2    50  VAL50       0.2458
     26  O        -30.7940   -1.4980  -13.8820 O.2    50  VAL50      -0.2730
     27  CB       -31.4260   -2.5410  -16.7250 C.3    50  VAL50       0.0289
     28  CG1      -30.8730   -3.6670  -15.8530 C.3    50  VAL50       0.0023
     29  CG2      -32.9440   -2.5680  -16.7690 C.3    50  VAL50       0.0023
     30  N        -32.2910    0.0260  -14.5980 N.am   51  PRO51      -0.2716
     31  CA       -32.7540    0.2940  -13.2300 C.3    51  PRO51       0.1536
     32  C        -33.7960   -0.7290  -12.8310 C.2    51  PRO51       0.2598
     33  O        -34.6210   -1.1310  -13.6670 O.2    51  PRO51      -0.2715
     34  CB       -33.3610    1.7060  -13.3350 C.3    51  PRO51       0.0310
     35  CG       -33.9120    1.7510  -14.7410 C.3    51  PRO51       0.0237
     36  CD       -33.0300    0.8410  -15.5880 C.3    51  PRO51       0.0939
     37  N        -33.7810   -1.1630  -11.5820 N.am   52  MET52      -0.1964
     38  CA       -34.8030   -2.1130  -11.1460 C.3    52  MET52       0.1721
     39  C        -36.1420   -1.3770  -10.9760 C.2    52  MET52       0.2458
     40  O        -36.1810   -0.1580  -10.8050 O.2    52  MET52      -0.2730
     41  CB       -34.3720   -2.8240   -9.8770 C.3    52  MET52       0.0427
     42  CG       -33.1610   -3.7700  -10.1020 C.3    52  MET52       0.0599
     43  SD       -33.4160   -5.0550  -11.3210 S.3    52  MET52      -0.1393
     44  CE       -32.8190   -4.2840  -12.8240 C.3    52  MET52       0.0692
     45  N        -37.2470   -2.1170  -11.0880 N.am   53  PRO53      -0.2727
     46  CA       -38.5790   -1.5280  -11.2700 C.3    53  PRO53       0.1402
     47  C        -39.0070   -0.4500  -10.2690 C.2    53  PRO53       0.2269
     48  O        -39.7100    0.4880  -10.6580 O.2    53  PRO53      -0.2865
     49  CB       -39.5030   -2.7410  -11.1440 C.3    53  PRO53       0.0296
     50  CG       -38.6890   -3.8710  -11.6340 C.3    53  PRO53       0.0237
     51  CD       -37.2880   -3.5920  -11.1660 C.3    53  PRO53       0.0939
     52  N        -35.1590   -9.2110   -7.6510 N.3    75  THR75      -0.1218
     53  CA       -35.2560   -9.1760   -9.1000 C.3    75  THR75       0.1862
     54  C        -33.8830   -9.1370   -9.7600 C.2    75  THR75       0.2287
     55  O        -33.6550   -9.8700  -10.7360 O.2    75  THR75      -0.2866
     56  CB       -36.0740   -7.9700   -9.5800 C.3    75  THR75       0.1770
     57  OG1      -37.4060   -8.1030   -9.0820 O.3    75  THR75      -0.2211
     58  CG2      -36.1410   -7.9330  -11.1110 C.3    75  THR75       0.0375
     59  N        -32.2420  -12.3600  -12.0250 N.3    79  ASP79      -0.1239
     60  CA       -32.1060  -12.1880  -13.4670 C.3    79  ASP79       0.1674
     61  C        -30.7070  -12.5810  -13.9380 C.2    79  ASP79       0.2266
     62  O        -29.7240  -11.9230  -13.6190 O.2    79  ASP79      -0.2867
     63  CB       -32.4190  -10.7510  -13.8700 C.3    79  ASP79       0.1410
     64  CG       -32.6850  -10.6170  -15.3570 C.2    79  ASP79       0.3668
     65  OD1      -31.9560  -11.2190  -16.1770 O.co2  79  ASP79      -0.2456
     66  OD2      -33.6920   -9.9710  -15.7050 O.co2  79  ASP79      -0.2456
     67  N        -29.2890  -12.3840  -16.7030 N.3    81  ARG81      -0.1231
     68  CA       -28.6200  -11.4230  -17.5690 C.3    81  ARG81       0.1694
     69  C        -27.8430  -10.3430  -16.7900 C.2    81  ARG81       0.2591
     70  O        -26.9160   -9.7300  -17.3230 O.2    81  ARG81      -0.2718
     71  CB       -29.6460  -10.7580  -18.4910 C.3    81  ARG81       0.0321
     72  CG       -30.4030  -11.7340  -19.3980 C.3    81  ARG81       0.0489
     73  CD       -31.6310  -11.0690  -20.0320 C.3    81  ARG81       0.2205
     74  NE       -32.6460  -10.7070  -19.0360 N.pl3  81  ARG81      -0.0865
     75  CZ       -33.8180  -10.1480  -19.3290 C.cat  81  ARG81       0.5346
     76  NH1      -34.1320   -9.8750  -20.5900 N.pl3  81  ARG81       0.1354
     77  NH2      -34.6780   -9.8510  -18.3640 N.pl3  81  ARG81       0.1354
     78  N        -28.2130  -10.1370  -15.5280 N.am   82  VAL82      -0.1980
     79  CA       -27.6040   -9.1090  -14.6900 C.3    82  VAL82       0.1595
     80  C        -26.2980   -9.6310  -14.0970 C.2    82  VAL82       0.2287
     81  O        -26.2860  -10.6430  -13.3860 O.2    82  VAL82      -0.2864
     82  CB       -28.5660   -8.6500  -13.5630 C.3    82  VAL82       0.0276
     83  CG1      -27.9050   -7.6710  -12.6210 C.3    82  VAL82       0.0022
     84  CG2      -29.7980   -8.0060  -14.1650 C.3    82  VAL82       0.0022
@<TRIPOS>BOND
     1    14    13    1
     2    15    13    1
     3    13    10    1
     4    76    75    1
     5    10     9    1
     6    10    11    1
     7     8     6    1
     8    73    72    1
     9    73    74    1
    10     6     5    1
    11    72    71    1
    12    75    74    2
    13    75    77    1
    14    11    16   am
    15    11    12    2
    16    16    17    1
    17    71    68    1
    18     1     2    1
    19    19    18    2
    20     5     2    1
    21     5     7    1
    22     2     3    1
    23    68    69    1
    24    68    67    1
    25    18    17    1
    26    18    23   am
    27    70    69    2
    28    17    20    1
    29    20    22    1
    30    20    21    1
    31    69    78   am
    32    29    27    1
    33    27    24    1
    34    27    28    1
    35    23    24    1
    36     3     4    2
    37    24    25    1
    38    65    64   ar
    39    66    64   ar
    40    36    35    1
    41    36    30    1
    42    78    79    1
    43    64    63    1
    44    25    30   am
    45    25    26    2
    46    35    34    1
    47    79    80    1
    48    79    82    1
    49    30    31    1
    50    84    82    1
    51    80    81    2
    52    61    62    2
    53    61    60    1
    54    63    60    1
    55    33    32    2
    56    82    83    1
    57    60    59    1
    58    34    31    1
    59    31    32    1
    60    32    37   am
    61    44    43    1
    62    50    51    1
    63    50    49    1
    64    37    38    1
    65    43    42    1
    66    46    49    1
    67    46    45    1
    68    46    47    1
    69    51    45    1
    70    38    39    1
    71    38    41    1
    72    58    56    1
    73    45    39   am
    74    39    40    2
    75    55    54    2
    76    48    47    2
    77    42    41    1
    78    54    53    1
    79    56    53    1
    80    56    57    1
    81    53    52    1
