@<TRIPOS>MOLECULE
tmp/5jygD00.pdb
 153 144 0 0 0
SMALL
GASTEIGER

@<TRIPOS>ATOM
      1  N         16.5890  -11.3660    4.2210 N.3     5  LEU5       -0.1231
      2  CA        16.0770  -10.7920    5.4510 C.3     5  LEU5        0.1693
      3  C         14.7440  -11.4480    5.7630 C.2     5  LEU5        0.2593
      4  O         14.0300  -11.8960    4.8510 O.2     5  LEU5       -0.2718
      5  CB        15.9090   -9.2730    5.3200 C.3     5  LEU5        0.0284
      6  CG        17.2090   -8.4700    5.1830 C.3     5  LEU5        0.0019
      7  CD1       16.8780   -6.9940    5.0060 C.3     5  LEU5        0.0001
      8  CD2       18.0760   -8.6930    6.4130 C.3     5  LEU5        0.0001
      9  N         14.4070  -11.5190    7.0440 N.am    6  GLY6       -0.1942
     10  CA        13.1170  -12.0530    7.4330 C.3     6  GLY6        0.2014
     11  C         12.9080  -12.1810    8.9270 C.2     6  GLY6        0.2640
     12  O         13.8480  -12.0700    9.7200 O.2     6  GLY6       -0.2714
     13  N         11.6610  -12.4260    9.3010 N.am    7  THR7       -0.1936
     14  CA        11.2820  -12.6680   10.6920 C.3     7  THR7        0.2028
     15  C         11.7060  -14.0600   11.1490 C.2     7  THR7        0.2643
     16  O         12.1860  -14.2380   12.2620 O.2     7  THR7       -0.2714
     17  CB         9.7640  -12.5010   10.8890 C.3     7  THR7        0.1808
     18  OG1        9.3740  -11.1710   10.5180 O.3     7  THR7       -0.2208
     19  CG2        9.3830  -12.7500   12.3400 C.3     7  THR7        0.0379
     20  N         11.5710  -15.0450   10.2660 N.am    8  SER8       -0.1935
     21  CA        11.8980  -16.4230   10.6000 C.3     8  SER8        0.2055
     22  C         13.4000  -16.6970   10.5490 C.2     8  SER8        0.2643
     23  O         13.9210  -17.5310   11.2940 O.2     8  SER8       -0.2714
     24  CB        11.1780  -17.3620    9.6520 C.3     8  SER8        0.2130
     25  OG        11.5420  -17.1100    8.3220 O.3     8  SER8       -0.2179
     26  N         14.0840  -16.0080    9.6450 N.am    9  HIS9       -0.1973
     27  CA        15.4950  -16.2580    9.4080 C.3     9  HIS9        0.1656
     28  C         16.1400  -15.0500    8.7460 C.2     9  HIS9        0.2291
     29  O         15.4760  -14.2900    8.0260 O.2     9  HIS9       -0.2864
     30  CB        15.6890  -17.5010    8.5330 C.3     9  HIS9        0.0771
     31  CG        15.1080  -17.3670    7.1600 C.ar    9  HIS9        0.0820
     32  ND1       13.8220  -17.7650    6.8560 N.ar    9  HIS9       -0.2267
     33  CD2       15.6330  -16.8810    6.0120 C.ar    9  HIS9        0.1154
     34  CE1       13.5840  -17.5280    5.5770 C.ar    9  HIS9        0.1986
     35  NE2       14.6660  -16.9920    5.0440 N.ar    9  HIS9       -0.2212
     36  N         13.0830   -3.8010   10.5020 N.3    61  LEU61      -0.1245
     37  CA        12.7840   -4.5380    9.2790 C.3    61  LEU61       0.1561
     38  C         11.3370   -4.3250    8.8460 C.2    61  LEU61       0.2260
     39  O         11.0710   -3.9900    7.6910 O.2    61  LEU61      -0.2867
     40  CB        13.0600   -6.0300    9.4710 C.3    61  LEU61       0.0270
     41  CG        14.4750   -6.4060    9.9170 C.3    61  LEU61       0.0019
     42  CD1       14.4360   -7.2110   11.2070 C.3    61  LEU61       0.0001
     43  CD2       15.1960   -7.1760    8.8210 C.3    61  LEU61       0.0001
     44  N          8.6280   -6.4280    8.3140 N.3    63  ASP63      -0.1227
     45  CA         8.2350   -7.2840    7.1960 C.3    63  ASP63       0.1790
     46  C          8.8300   -6.8180    5.8690 C.2    63  ASP63       0.2596
     47  O          8.1050   -6.4170    4.9590 O.2    63  ASP63      -0.2718
     48  CB         6.7100   -7.3780    7.0920 C.3    63  ASP63       0.1470
     49  CG         6.0340   -7.4080    8.4490 C.3    63  ASP63       0.3796
     50  OD1        5.9180   -8.5060    9.0330 O.2    63  ASP63      -0.2729
     51  OD2        5.6190   -6.3330    8.9320 O.2    63  ASP63      -0.2729
     52  N         10.1540   -6.8730    5.7680 N.am   64  GLY64      -0.1957
     53  CA        10.8450   -6.4600    4.5600 C.3    64  GLY64       0.1869
     54  C         12.3120   -6.1650    4.8010 C.2    64  GLY64       0.2309
     55  O         12.9520   -6.7950    5.6420 O.2    64  GLY64      -0.2863
     56  N         12.5270   -9.7380   -3.6460 N.3   130  GLU130     -0.1245
     57  CA        12.3980  -11.1090   -3.1540 C.3   130  GLU130      0.1567
     58  C         11.6390  -12.0520   -4.1010 C.2   130  GLU130      0.2260
     59  O         12.0490  -13.2010   -4.2990 O.2   130  GLU130     -0.2867
     60  CB        11.7020  -11.0980   -1.7920 C.3   130  GLU130      0.0388
     61  CG        12.5510  -10.5430   -0.6560 C.3   130  GLU130      0.1160
     62  CD        11.7830  -10.3860    0.6270 C.2   130  GLU130      0.3649
     63  OE1       10.5900  -10.5750    0.6100 O.co2 130  GLU130     -0.2457
     64  OE2       12.3900  -10.0750    1.6250 O.co2 130  GLU130     -0.2457
     65  N          4.7050  -14.4030   -1.9840 N.3   148  ASP148     -0.1239
     66  CA         5.5060  -14.5750   -0.7720 C.3   148  ASP148      0.1674
     67  C          4.6890  -14.1350    0.4260 C.2   148  ASP148      0.2266
     68  O          4.4150  -12.9560    0.5950 O.2   148  ASP148     -0.2867
     69  CB         6.8060  -13.7720   -0.8450 C.3   148  ASP148      0.1410
     70  CG         7.7040  -13.9860    0.3660 C.2   148  ASP148      0.3668
     71  OD1        7.2730  -14.6280    1.2940 O.co2 148  ASP148     -0.2456
     72  OD2        8.8110  -13.5040    0.3520 O.co2 148  ASP148     -0.2456
     73  N          4.6620  -13.5920    4.1470 N.3   150  GLY150     -0.1210
     74  CA         5.5020  -13.4740    5.3250 C.3   150  GLY150      0.1956
     75  C          4.7830  -12.8460    6.5060 C.2   150  GLY150      0.2612
     76  O          3.5570  -12.8180    6.5610 O.2   150  GLY150     -0.2717
     77  N          5.5540  -12.3470    7.4670 N.am  151  ALA151     -0.1965
     78  CA         4.9800  -11.6890    8.6210 C.3   151  ALA151      0.1728
     79  C          4.5620  -10.2670    8.3120 C.2   151  ALA151      0.2618
     80  O          3.5530   -9.7970    8.8270 O.2   151  ALA151     -0.2715
     81  CB         5.9790  -11.6990    9.7750 C.3   151  ALA151      0.0334
     82  N          5.3390   -9.5720    7.4830 N.am  152  GLY152     -0.1905
     83  CA         5.1340   -8.1520    7.2660 C.3   152  GLY152      0.2335
     84  C          4.2220   -7.8200    6.0910 C.2   152  GLY152      0.2673
     85  O          3.2030   -7.1490    6.2540 O.2   152  GLY152     -0.2713
     86  N          4.5910   -8.2830    4.8990 N.am  153  THR153     -0.1949
     87  CA         3.7660   -8.0390    3.7190 C.3   153  THR153      0.1897
     88  C          3.4470   -9.3150    2.9550 C.2   153  THR153      0.2313
     89  O          4.0140  -10.3750    3.2050 O.2   153  THR153     -0.2863
     90  CB         4.4540   -7.0390    2.7710 C.3   153  THR153      0.1794
     91  OG1        5.7020   -7.5840    2.3220 O.3   153  THR153     -0.2208
     92  CG2        4.7090   -5.7180    3.4810 C.3   153  THR153      0.0378
     93  N          0.8950  -11.9580    8.0910 N.3   176  GLY176     -0.1225
     94  CA         0.8620  -12.6560    9.3650 C.3   176  GLY176      0.1811
     95  C          0.4940  -11.7910   10.5580 C.2   176  GLY176      0.2280
     96  O         -0.2250  -12.2360   11.4490 O.2   176  GLY176     -0.2866
     97  N          0.5140  -15.7930   17.2510 N.3   202  CYS202     -0.1235
     98  CA         1.4940  -16.2870   16.2940 C.3   202  CYS202      0.1677
     99  C          1.8770  -17.7330   16.6270 C.2   202  CYS202      0.2270
    100  O          2.0110  -18.5730   15.7310 O.2   202  CYS202     -0.2867
    101  CB         2.7460  -15.4090   16.2980 C.3   202  CYS202      0.0956
    102  SG         3.9610  -15.8490   15.0330 S.3   202  CYS202     -0.0801
    103  N         -0.7430  -20.0990   15.4760 N.3   205  LYS205     -0.1231
    104  CA        -0.7060  -20.1130   14.0160 C.3   205  LYS205      0.1693
    105  C          0.4140  -21.0220   13.5260 C.2   205  LYS205      0.2591
    106  O          0.2240  -21.8120   12.6040 O.2   205  LYS205     -0.2718
    107  CB        -0.5230  -18.6990   13.4620 C.3   205  LYS205      0.0285
    108  CG        -0.4820  -18.6190   11.9420 C.3   205  LYS205      0.0035
    109  CD        -0.2360  -17.1950   11.4700 C.3   205  LYS205      0.0206
    110  CE         1.1410  -16.7010   11.8890 C.3   205  LYS205      0.1093
    111  NZ         2.2330  -17.4570   11.2170 N.3   205  LYS205     -0.1314
    112  N          1.5700  -20.9260   14.1750 N.am  206  GLU206     -0.1979
    113  CA         2.7140  -21.7640   13.8370 C.3   206  GLU206      0.1602
    114  C          2.5180  -23.2400   14.1610 C.2   206  GLU206      0.2287
    115  O          2.8670  -24.1030   13.3620 O.2   206  GLU206     -0.2864
    116  CB         3.9600  -21.2510   14.5650 C.3   206  GLU206      0.0415
    117  CG         4.5080  -19.9380   14.0240 C.3   206  GLU206      0.1163
    118  CD         5.6370  -19.3910   14.8510 C.2   206  GLU206      0.3649
    119  OE1        5.9190  -19.9520   15.8830 O.co2 206  GLU206     -0.2457
    120  OE2        6.2190  -18.4100   14.4510 O.co2 206  GLU206     -0.2457
    121  N         -1.5070  -24.8950   11.9380 N.3   209  SER209     -0.1217
    122  CA        -1.8590  -24.1730   10.7300 C.3   209  SER209      0.1889
    123  C         -2.7980  -24.9970    9.8650 C.2   209  SER209      0.2288
    124  O         -2.4060  -25.5030    8.8150 O.2   209  SER209     -0.2866
    125  CB        -0.6100  -23.8180    9.9470 C.3   209  SER209      0.2089
    126  OG         0.1210  -24.9680    9.6210 O.3   209  SER209     -0.2183
    127  N          7.5610  -18.5800    1.9760 N.3   275  GLY275     -0.1210
    128  CA         7.4890  -17.9330    3.2720 C.3   275  GLY275      0.1956
    129  C          6.8130  -18.7870    4.3340 C.2   275  GLY275      0.2612
    130  O          7.0120  -20.0050    4.3950 O.2   275  GLY275     -0.2717
    131  N          6.0030  -18.1450    5.1690 N.am  276  GLY276     -0.1956
    132  CA         5.2460  -18.8470    6.1940 C.3   276  GLY276      0.1869
    133  C          3.9790  -19.4740    5.6500 C.2   276  GLY276      0.2309
    134  O          3.4360  -20.4110    6.2450 O.2   276  GLY276     -0.2863
    135  N          3.8130  -23.2970    4.8420 N.3   279  ARG279     -0.1231
    136  CA         3.6820  -24.2250    5.9620 C.3   279  ARG279      0.1694
    137  C          2.2610  -24.2320    6.5120 C.2   279  ARG279      0.2591
    138  O          2.0330  -24.6610    7.6440 O.2   279  ARG279     -0.2718
    139  CB         4.6500  -23.8600    7.0770 C.3   279  ARG279      0.0321
    140  CG         6.1220  -23.9480    6.7010 C.3   279  ARG279      0.0489
    141  CD         6.9960  -23.4240    7.7810 C.3   279  ARG279      0.2205
    142  NE         8.4060  -23.5700    7.4550 N.pl3 279  ARG279     -0.0865
    143  CZ         9.4190  -23.1060    8.2130 C.cat 279  ARG279      0.5346
    144  NH1        9.1610  -22.4690    9.3350 N.pl3 279  ARG279      0.1354
    145  NH2       10.6690  -23.2890    7.8290 N.pl3 279  ARG279      0.1354
    146  N          1.3060  -23.7460    5.7240 N.am  280  ILE280     -0.1980
    147  CA        -0.0800  -23.7590    6.1670 C.3   280  ILE280      0.1595
    148  C         -0.7680  -24.8600    5.3840 C.2   280  ILE280      0.2287
    149  O         -0.6720  -24.9160    4.1580 O.2   280  ILE280     -0.2864
    150  CB        -0.7810  -22.4080    5.9340 C.3   280  ILE280      0.0276
    151  CG1       -0.1060  -21.3080    6.7580 C.3   280  ILE280      0.0022
    152  CG2       -2.2580  -22.5070    6.2830 C.3   280  ILE280      0.0022
    153  CD1       -0.6490  -19.9240    6.4900 C.3   280  ILE280      0.0001
@<TRIPOS>BOND
     1    59    58    2
     2    58    57    1
     3    56    57    1
     4    57    60    1
     5    65    66    1
     6    60    61    1
     7    69    66    1
     8    69    70    1
     9    66    67    1
    10    61    62    1
    11    72    70   ar
    12    70    71   ar
    13    67    68    2
    14    63    62   ar
    15    62    64   ar
    16   127   128    1
    17    91    90    1
    18    90    92    1
    19    90    87    1
    20    88    89    2
    21    88    87    1
    22   128   129    1
    23    87    86    1
    24    73    74    1
    25   149   148    2
    26     1     2    1
    27   129   130    2
    28   129   131   am
    29    53    54    1
    30    53    52    1
    31    54    55    2
    32   135   136    1
    33     4     3    2
    34    86    84   am
    35    47    46    2
    36     7     6    1
    37    35    34   ar
    38    35    33   ar
    39   131   132    1
    40     6     5    1
    41     6     8    1
    42     5     2    1
    43    74    75    1
    44   148   147    1
    45     2     3    1
    46    34    32   ar
    47   133   132    1
    48   133   134    2
    49   146   147    1
    50   146   137   am
    51     3     9   am
    52    52    46   am
    53    46    45    1
    54   150   147    1
    55   150   152    1
    56   150   151    1
    57   136   137    1
    58   136   139    1
    59    33    31   ar
    60    84    85    2
    61    84    83    1
    62   153   151    1
    63    75    76    2
    64    75    77   am
    65   137   138    2
    66   140   139    1
    67   140   141    1
    68    32    31   ar
    69     9    10    1
    70    48    45    1
    71    48    83    1
    72    48    49    1
    73    31    30    1
    74    45    44    1
    75    83    82    1
    76    83    49    1
    77    10    11    1
    78   142   141    1
    79   142   143    2
    80    77    78    1
    81    82    79   am
    82    39    38    2
    83   145   143    1
    84    29    28    2
    85    93    94    1
    86   143   144    1
    87    79    78    1
    88    79    80    2
    89    25    24    1
    90    49    51    1
    91    49    50    1
    92    30    27    1
    93    78    81    1
    94    28    27    1
    95   124   123    2
    96    43    41    1
    97    38    37    1
    98    11    13   am
    99    11    12    2
   100    37    40    1
   101    37    36    1
   102    13    14    1
   103    94    95    1
   104    27    26    1
   105    40    41    1
   106   126   125    1
   107    26    22   am
   108    24    21    1
   109   123   122    1
   110    41    42    1
   111   125   122    1
   112    20    21    1
   113    20    15   am
   114    18    17    1
   115    22    21    1
   116    22    23    2
   117    95    96    2
   118    14    17    1
   119    14    15    1
   120   122   121    1
   121    17    19    1
   122    15    16    2
   123   111   110    1
   124   109   110    1
   125   109   108    1
   126   108   107    1
   127   106   105    2
   128   115   114    2
   129   107   104    1
   130   105   104    1
   131   105   112   am
   132   113   114    1
   133   113   112    1
   134   113   116    1
   135   104   103    1
   136   117   116    1
   137   117   118    1
   138   120   118   ar
   139   118   119   ar
   140   102   101    1
   141   100    99    2
   142    98   101    1
   143    98    99    1
   144    98    97    1
