@<TRIPOS>MOLECULE
tmp/5jyxB00.pdb
 91 89 0 0 0
SMALL
GASTEIGER

@<TRIPOS>ATOM
      1  N         63.9090   32.1940   84.7010 N.3    20  CYS20      -0.1221
      2  CA        62.6050   31.4380   84.7640 C.3    20  CYS20       0.1794
      3  C         62.8040   29.9960   85.2240 C.2    20  CYS20       0.2443
      4  O         63.6310   29.3030   84.6600 O.2    20  CYS20      -0.2733
      5  CB        61.8930   31.3940   83.3900 C.3    20  CYS20       0.0970
      6  SG        60.1310   30.9220   83.5410 S.3    20  CYS20      -0.0800
      7  N         62.0520   29.5310   86.2190 N.am   21  PRO21      -0.2718
      8  CA        62.1850   28.1380   86.6220 C.3    21  PRO21       0.1535
      9  C         61.8830   27.1170   85.5580 C.2    21  PRO21       0.2598
     10  O         62.5130   26.1010   85.5240 O.2    21  PRO21      -0.2715
     11  CB        61.1160   28.0000   87.7120 C.3    21  PRO21       0.0310
     12  CG        61.0950   29.3230   88.3430 C.3    21  PRO21       0.0237
     13  CD        61.1340   30.2320   87.1300 C.3    21  PRO21       0.0939
     14  N         60.9050   27.3840   84.7200 N.am   22  ILE22      -0.1978
     15  CA        60.3710   26.4430   83.7670 C.3    22  ILE22       0.1596
     16  C         61.3410   26.3150   82.5770 C.2    22  ILE22       0.2287
     17  O         61.9790   25.2670   82.3510 O.2    22  ILE22      -0.2864
     18  CB        58.9140   26.9190   83.3410 C.3    22  ILE22       0.0276
     19  CG1       57.8430   26.6180   84.4670 C.3    22  ILE22       0.0022
     20  CG2       58.4810   26.3380   81.9880 C.3    22  ILE22       0.0022
     21  CD1       57.5170   27.7280   85.4820 C.3    22  ILE22       0.0001
     22  N         65.0330   36.0730   82.4880 N.3    27  ASP27      -0.1239
     23  CA        63.9170   37.0270   82.5130 C.3    27  ASP27       0.1674
     24  C         64.4420   38.3680   82.9060 C.2    27  ASP27       0.2266
     25  O         65.2980   38.4790   83.7420 O.2    27  ASP27      -0.2867
     26  CB        62.8770   36.6610   83.5720 C.3    27  ASP27       0.1410
     27  CG        62.0390   35.4810   83.1880 C.2    27  ASP27       0.3668
     28  OD1       61.8480   35.2640   81.9720 O.co2  27  ASP27      -0.2456
     29  OD2       61.5640   34.7910   84.1130 O.co2  27  ASP27      -0.2456
     30  N         63.6890   31.6440   89.9250 N.3    58  ILE58      -0.1231
     31  CA        62.6480   32.0430   90.8720 C.3    58  ILE58       0.1692
     32  C         61.5020   32.6230   90.0910 C.2    58  ILE58       0.2592
     33  O         61.7500   33.3270   89.1650 O.2    58  ILE58      -0.2718
     34  CB        63.2670   33.0340   91.8340 C.3    58  ILE58       0.0266
     35  CG1       62.2790   33.4260   92.8920 C.3    58  ILE58       0.0019
     36  CG2       63.8100   34.2190   91.0590 C.3    58  ILE58       0.0020
     37  CD1       62.9150   34.3260   93.9030 C.3    58  ILE58       0.0001
     38  N         60.2730   32.2870   90.4740 N.am   59  LEU59      -0.1966
     39  CA        59.0310   32.8920   89.9100 C.3    59  LEU59       0.1728
     40  C         58.9570   34.3320   90.2830 C.2    59  LEU59       0.2616
     41  O         59.3990   34.6930   91.3710 O.2    59  LEU59      -0.2715
     42  CB        57.7270   32.2160   90.4470 C.3    59  LEU59       0.0311
     43  CG        57.6290   30.7080   90.1650 C.3    59  LEU59       0.0022
     44  CD1       56.3850   29.9870   90.6340 C.3    59  LEU59       0.0001
     45  CD2       57.7470   30.5080   88.6790 C.3    59  LEU59       0.0001
     46  N         58.3450   35.1490   89.4220 N.am   60  HIS60      -0.1959
     47  CA        58.1830   36.5760   89.6910 C.3    60  HIS60       0.1787
     48  C         57.3830   36.7020   90.9140 C.2    60  HIS60       0.2620
     49  O         57.5690   37.6480   91.6640 O.2    60  HIS60      -0.2715
     50  CB        57.4830   37.3380   88.5710 C.3    60  HIS60       0.0785
     51  CG        58.1930   37.2690   87.2580 C.ar   60  HIS60       0.0821
     52  ND1       59.4520   37.8120   87.0680 N.ar   60  HIS60      -0.2267
     53  CD2       57.8530   36.6520   86.0920 C.ar   60  HIS60       0.1154
     54  CE1       59.8560   37.5260   85.8400 C.ar   60  HIS60       0.1986
     55  NE2       58.8970   36.8390   85.2190 N.ar   60  HIS60      -0.2212
     56  N         56.4840   35.7520   91.1230 N.am   61  GLU61      -0.1977
     57  CA        55.6600   35.7970   92.3110 C.3    61  GLU61       0.1602
     58  C         56.4590   35.6100   93.5990 C.2    61  GLU61       0.2287
     59  O         56.2710   36.3240   94.5620 O.2    61  GLU61      -0.2864
     60  CB        54.5300   34.8020   92.1870 C.3    61  GLU61       0.0415
     61  CG        53.4780   35.2090   91.1420 C.3    61  GLU61       0.1163
     62  CD        53.6780   34.5990   89.7550 C.2    61  GLU61       0.3649
     63  OE1       54.7840   34.2460   89.3310 O.co2  61  GLU61      -0.2457
     64  OE2       52.6660   34.4900   89.0560 O.co2  61  GLU61      -0.2457
     65  N         56.6870   37.6780   79.6630 N.3    88  TYR88      -0.1227
     66  CA        57.0870   36.3460   79.2790 C.3    88  TYR88       0.1736
     67  C         56.0100   35.7230   78.3510 C.2    88  TYR88       0.2595
     68  O         54.8000   35.6650   78.6640 O.2    88  TYR88      -0.2718
     69  CB        57.3700   35.5460   80.5370 C.3    88  TYR88       0.0548
     70  CG        57.8110   34.1520   80.2980 C.ar   88  TYR88      -0.0200
     71  CD1       59.0380   33.8760   79.6870 C.ar   88  TYR88      -0.0009
     72  CD2       57.0250   33.0950   80.6950 C.ar   88  TYR88      -0.0009
     73  CE1       59.4530   32.5620   79.4400 C.ar   88  TYR88       0.0417
     74  CE2       57.4330   31.7900   80.4600 C.ar   88  TYR88       0.0417
     75  CZ        58.6460   31.5230   79.8410 C.ar   88  TYR88       0.1957
     76  OH        58.9940   30.2250   79.6130 O.3    88  TYR88      -0.2866
     77  N         56.4750   35.3060   77.1860 N.am   89  ILE89      -0.1980
     78  CA        55.6880   34.6060   76.2030 C.3    89  ILE89       0.1595
     79  C         54.3980   35.3170   75.8010 C.2    89  ILE89       0.2287
     80  O         53.3740   34.7000   75.5120 O.2    89  ILE89      -0.2864
     81  CB        55.4950   33.0910   76.5350 C.3    89  ILE89       0.0276
     82  CG1       54.6780   32.8020   77.7970 C.3    89  ILE89       0.0022
     83  CG2       56.8330   32.4030   76.6550 C.3    89  ILE89       0.0022
     84  CD1       54.3700   31.3130   77.9680 C.3    89  ILE89       0.0001
     85  N         53.1750   40.7770   83.1930 N.3    93  VAL93      -0.1245
     86  CA        53.0060   40.2740   84.5840 C.3    93  VAL93       0.1561
     87  C         53.2700   41.3940   85.5680 C.2    93  VAL93       0.2260
     88  O         54.2880   42.0450   85.4830 O.2    93  VAL93      -0.2867
     89  CB        54.0100   39.1590   84.9320 C.3    93  VAL93       0.0252
     90  CG1       53.6790   38.5230   86.2670 C.3    93  VAL93       0.0019
     91  CG2       54.0210   38.0870   83.8770 C.3    93  VAL93       0.0019
@<TRIPOS>BOND
     1    80    79    2
     2    79    78    1
     3    78    81    1
     4    78    77    1
     5    81    83    1
     6    81    82    1
     7    77    67   am
     8    82    84    1
     9    67    68    2
    10    67    66    1
    11    66    65    1
    12    66    69    1
    13    73    71   ar
    14    73    75   ar
    15    76    75    1
    16    71    70   ar
    17    75    74   ar
    18    70    69    1
    19    70    72   ar
    20    74    72   ar
    21    28    27   ar
    22    20    18    1
    23    17    16    2
    24    22    23    1
    25    23    24    1
    26    23    26    1
    27    16    15    1
    28    24    25    2
    29    27    26    1
    30    27    29   ar
    31    85    86    1
    32    18    15    1
    33    18    19    1
    34     5     6    1
    35     5     2    1
    36    15    14    1
    37    91    89    1
    38    19    21    1
    39    86    89    1
    40    86    87    1
    41     4     3    2
    42     1     2    1
    43    14     9   am
    44     2     3    1
    45    89    90    1
    46    55    54   ar
    47    55    53   ar
    48     3     7   am
    49    88    87    2
    50    10     9    2
    51     9     8    1
    52    54    52   ar
    53    53    51   ar
    54     7     8    1
    55     7    13    1
    56     8    11    1
    57    52    51   ar
    58    13    12    1
    59    51    50    1
    60    11    12    1
    61    50    47    1
    62    45    43    1
    63    64    62   ar
    64    33    32    2
    65    63    62   ar
    66    46    47    1
    67    46    40   am
    68    47    48    1
    69    62    61    1
    70    39    40    1
    71    39    42    1
    72    39    38    1
    73    30    31    1
    74    32    38   am
    75    32    31    1
    76    43    42    1
    77    43    44    1
    78    40    41    2
    79    31    34    1
    80    48    56   am
    81    48    49    2
    82    36    34    1
    83    56    57    1
    84    61    60    1
    85    34    35    1
    86    60    57    1
    87    57    58    1
    88    35    37    1
    89    58    59    2
