@<TRIPOS>MOLECULE
tmp/5jyyA01.pdb
 196 183 0 0 0
SMALL
GASTEIGER

@<TRIPOS>ATOM
      1  N        373.0000  164.1720   62.9850 N.3    37  ARG37      -0.1231
      2  CA       374.3690  163.6840   62.9070 C.3    37  ARG37       0.1694
      3  C        374.5690  163.1340   61.4970 C.2    37  ARG37       0.2591
      4  O        373.6480  163.1720   60.6730 O.2    37  ARG37      -0.2718
      5  CB       374.6860  162.6240   63.9740 C.3    37  ARG37       0.0321
      6  CG       375.5310  163.1580   65.1360 C.3    37  ARG37       0.0489
      7  CD       376.4860  162.0940   65.6650 C.3    37  ARG37       0.2205
      8  NE       377.5370  161.8310   64.6830 N.pl3  37  ARG37      -0.0865
      9  CZ       378.2240  160.6990   64.5930 C.cat  37  ARG37       0.5346
     10  NH1      377.9850  159.7020   65.4320 N.pl3  37  ARG37       0.1354
     11  NH2      379.1520  160.5660   63.6550 N.pl3  37  ARG37       0.1354
     12  N        375.7720  162.6390   61.2240 N.am   38  GLU38      -0.1979
     13  CA       376.1330  162.1560   59.8870 C.3    38  GLU38       0.1602
     14  C        375.7880  163.1630   58.7770 C.2    38  GLU38       0.2287
     15  O        375.0520  162.8390   57.8340 O.2    38  GLU38      -0.2864
     16  CB       375.4520  160.8090   59.6160 C.3    38  GLU38       0.0415
     17  CG       375.8540  159.6970   60.5900 C.3    38  GLU38       0.1163
     18  CD       375.0820  159.7310   61.9030 C.2    38  GLU38       0.3649
     19  OE1      373.8950  160.1270   61.8940 O.co2  38  GLU38      -0.2457
     20  OE2      375.6650  159.3610   62.9490 O.co2  38  GLU38      -0.2457
     21  N        371.3150  163.4560   58.7980 N.3    53  LEU53      -0.1245
     22  CA       370.2630  162.6230   59.3630 C.3    53  LEU53       0.1561
     23  C        369.6750  163.2880   60.6030 C.2    53  LEU53       0.2260
     24  O        370.3190  163.3470   61.6570 O.2    53  LEU53      -0.2867
     25  CB       370.7950  161.2330   59.7220 C.3    53  LEU53       0.0270
     26  CG       371.3110  160.3690   58.5710 C.3    53  LEU53       0.0019
     27  CD1      371.8720  159.0580   59.1140 C.3    53  LEU53       0.0001
     28  CD2      370.2230  160.1210   57.5450 C.3    53  LEU53       0.0001
     29  N        371.7190  155.5980   67.3170 N.3    70  ASP70      -0.1225
     30  CA       371.9550  155.6940   65.8770 C.3    70  ASP70       0.1805
     31  C        370.7490  155.4770   64.9680 C.2    70  ASP70       0.2597
     32  O        370.6610  156.1000   63.9140 O.2    70  ASP70      -0.2718
     33  CB       373.0260  154.6880   65.4630 C.3    70  ASP70       0.1424
     34  CG       374.4110  155.1400   65.8330 C.2    70  ASP70       0.3668
     35  OD1      374.7850  156.2650   65.4480 O.co2  70  ASP70      -0.2456
     36  OD2      375.1200  154.3730   66.5140 O.co2  70  ASP70      -0.2456
     37  N        369.8480  154.5710   65.3380 N.am   71  ARG71      -0.1979
     38  CA       368.8800  154.0660   64.3620 C.3    71  ARG71       0.1597
     39  C        367.4310  154.0130   64.8400 C.2    71  ARG71       0.2287
     40  O        366.8730  152.9290   64.9840 O.2    71  ARG71      -0.2864
     41  CB       369.2950  152.6600   63.9030 C.3    71  ARG71       0.0334
     42  CG       370.6340  152.5970   63.1710 C.3    71  ARG71       0.0492
     43  CD       371.0140  151.1620   62.8200 C.3    71  ARG71       0.2205
     44  NE       371.0320  150.3040   64.0050 N.pl3  71  ARG71      -0.0865
     45  CZ       371.9960  150.3060   64.9210 C.cat  71  ARG71       0.5346
     46  NH1      373.0410  151.1190   64.7980 N.pl3  71  ARG71       0.1354
     47  NH2      371.9140  149.4980   65.9700 N.pl3  71  ARG71       0.1354
     48  N        364.2610  159.2240   62.4880 N.3    75  ARG75      -0.1245
     49  CA       365.3220  159.7960   61.6870 C.3    75  ARG75       0.1563
     50  C        364.9160  159.9450   60.2250 C.2    75  ARG75       0.2260
     51  O        364.0770  159.1970   59.7080 O.2    75  ARG75      -0.2867
     52  CB       366.5890  158.9430   61.7960 C.3    75  ARG75       0.0307
     53  CG       367.0860  158.7700   63.2320 C.3    75  ARG75       0.0489
     54  CD       368.5880  158.5680   63.2940 C.3    75  ARG75       0.2205
     55  NE       369.3260  159.8240   63.1290 N.pl3  75  ARG75      -0.0865
     56  CZ       370.6400  159.9370   63.2870 C.cat  75  ARG75       0.5346
     57  NH1      371.2360  161.1150   63.1330 N.pl3  75  ARG75       0.1354
     58  NH2      371.3580  158.8670   63.6160 N.pl3  75  ARG75       0.1354
     59  N        367.9600  155.9150   58.5780 N.3    98  TRP98      -0.1227
     60  CA       369.0750  156.2320   59.4680 C.3    98  TRP98       0.1737
     61  C        370.4510  155.9700   58.8530 C.2    98  TRP98       0.2596
     62  O        371.4570  155.9330   59.5630 O.2    98  TRP98      -0.2718
     63  CB       368.9330  155.4570   60.7840 C.3    98  TRP98       0.0564
     64  CG       368.3900  154.0590   60.6400 C.ar   98  TRP98       0.0003
     65  CD1      367.1660  153.6070   61.0490 C.ar   98  TRP98       0.0946
     66  CD2      369.0590  152.9330   60.0600 C.ar   98  TRP98       0.0152
     67  NE1      367.0340  152.2670   60.7660 N.ar   98  TRP98      -0.2442
     68  CE2      368.1810  151.8300   60.1550 C.ar   98  TRP98       0.0810
     69  CE3      370.3160  152.7480   59.4750 C.ar   98  TRP98       0.0012
     70  CZ2      368.5180  150.5640   59.6810 C.ar   98  TRP98       0.0191
     71  CZ3      370.6520  151.4930   59.0030 C.ar   98  TRP98       0.0001
     72  CH2      369.7560  150.4130   59.1090 C.ar   98  TRP98       0.0015
     73  N        370.4880  155.8040   57.5340 N.am   99  SER99      -0.1952
     74  CA       371.7400  155.7450   56.7680 C.3    99  SER99       0.1924
     75  C        371.4260  156.2000   55.3480 C.2    99  SER99       0.2314
     76  O        370.4030  155.8000   54.7910 O.2    99  SER99      -0.2863
     77  CB       372.3400  154.3320   56.7700 C.3    99  SER99       0.2116
     78  OG       373.4850  154.2440   55.9290 O.3    99  SER99      -0.2180
     79  N        367.6110  145.9830   62.7910 N.3   118  ASN118     -0.1240
     80  CA       368.9420  145.5180   62.4260 C.3   118  ASN118      0.1653
     81  C        368.9130  144.3150   61.4840 C.2   118  ASN118      0.2266
     82  O        369.6990  144.2500   60.5440 O.2   118  ASN118     -0.2867
     83  CB       369.7420  145.1890   63.6890 C.3   118  ASN118      0.1155
     84  CG       370.1260  146.4390   64.4770 C.2   118  ASN118      0.2627
     85  OD1      369.6800  147.5470   64.1720 O.2   118  ASN118     -0.2716
     86  ND2      370.9590  146.2620   65.4930 N.am  118  ASN118     -0.0877
     87  N        372.1870  145.1410   59.6800 N.3   142  ILE142     -0.1245
     88  CA       372.3610  146.5860   59.5220 C.3   142  ILE142      0.1561
     89  C        372.9040  146.9710   58.1470 C.2   142  ILE142      0.2260
     90  O        374.0350  147.4370   58.0140 O.2   142  ILE142     -0.2867
     91  CB       373.2800  147.1710   60.6220 C.3   142  ILE142      0.0252
     92  CG1      372.9010  146.5950   61.9890 C.3   142  ILE142      0.0019
     93  CG2      373.1620  148.6940   60.6690 C.3   142  ILE142      0.0019
     94  CD1      373.5720  147.2950   63.1600 C.3   142  ILE142      0.0001
     95  N        373.7590  149.2480   55.4020 N.3   144  ARG144     -0.1245
     96  CA       374.2060  150.6300   55.6080 C.3   144  ARG144      0.1563
     97  C        374.9880  151.1630   54.4060 C.2   144  ARG144      0.2260
     98  O        375.5340  150.3910   53.6160 O.2   144  ARG144     -0.2867
     99  CB       375.0500  150.7250   56.8810 C.3   144  ARG144      0.0307
    100  CG       376.1510  149.6700   56.9800 C.3   144  ARG144      0.0489
    101  CD       376.5270  149.4360   58.4300 C.3   144  ARG144      0.2205
    102  NE       377.7210  148.6120   58.6030 N.pl3 144  ARG144     -0.0865
    103  CZ       377.7160  147.2840   58.7000 C.cat 144  ARG144      0.5346
    104  NH1      376.5750  146.6060   58.6140 N.pl3 144  ARG144      0.1354
    105  NH2      378.8570  146.6290   58.8750 N.pl3 144  ARG144      0.1354
    106  N        376.7570  157.7990   53.8860 N.3   147  GLU147     -0.1245
    107  CA       376.6220  158.9840   54.7590 C.3   147  GLU147      0.1567
    108  C        377.3520  160.2020   54.1810 C.2   147  GLU147      0.2260
    109  O        377.6880  161.1410   54.9010 O.2   147  GLU147     -0.2867
    110  CB       377.1210  158.7200   56.1990 C.3   147  GLU147      0.0388
    111  CG       376.8610  157.3090   56.7730 C.3   147  GLU147      0.1160
    112  CD       375.3810  156.9180   56.8710 C.2   147  GLU147      0.3649
    113  OE1      374.4960  157.7250   56.5140 O.co2 147  GLU147     -0.2457
    114  OE2      375.1090  155.7780   57.3110 O.co2 147  GLU147     -0.2457
    115  N        380.1930  144.3110   61.7370 N.3   166  ALA166     -0.1231
    116  CA       381.0010  145.5120   61.8920 C.3   166  ALA166      0.1694
    117  C        382.3880  145.1420   62.4010 C.2   166  ALA166      0.2592
    118  O        383.3030  145.9700   62.4200 O.2   166  ALA166     -0.2718
    119  CB       380.3250  146.4900   62.8520 C.3   166  ALA166      0.0304
    120  N        382.5320  143.8900   62.8210 N.am  167  THR167     -0.1953
    121  CA       383.7430  143.4440   63.5110 C.3   167  THR167      0.1897
    122  C        384.3110  142.1670   62.8940 C.2   167  THR167      0.2313
    123  O        384.9660  141.3720   63.5710 O.2   167  THR167     -0.2863
    124  CB       383.4660  143.1960   65.0030 C.3   167  THR167      0.1794
    125  OG1      382.4780  142.1700   65.1410 O.3   167  THR167     -0.2208
    126  CG2      382.9510  144.4690   65.6700 C.3   167  THR167      0.0378
    127  N        383.0990  150.4570   55.0360 N.3   196  GLU196     -0.1231
    128  CA       381.9610  151.2230   55.5390 C.3   196  GLU196      0.1699
    129  C        382.0820  152.6890   55.1400 C.2   196  GLU196      0.2592
    130  O        383.1940  153.2140   55.0250 O.2   196  GLU196     -0.2718
    131  CB       381.8420  151.1190   57.0690 C.3   196  GLU196      0.0402
    132  CG       381.4830  149.7340   57.5940 C.3   196  GLU196      0.1161
    133  CD       380.9220  149.7690   59.0000 C.2   196  GLU196      0.3649
    134  OE1      380.8080  148.6950   59.6260 O.co2 196  GLU196     -0.2457
    135  OE2      380.5770  150.8740   59.4720 O.co2 196  GLU196     -0.2457
    136  N        380.9330  153.3250   54.9150 N.am  197  GLU197     -0.1979
    137  CA       380.8330  154.7790   54.8290 C.3   197  GLU197      0.1602
    138  C        381.8250  155.4100   53.8560 C.2   197  GLU197      0.2287
    139  O        382.6310  156.2530   54.2420 O.2   197  GLU197     -0.2864
    140  CB       381.0120  155.3880   56.2290 C.3   197  GLU197      0.0415
    141  CG       380.0280  154.8360   57.2680 C.3   197  GLU197      0.1163
    142  CD       380.2870  155.3400   58.6840 C.2   197  GLU197      0.3649
    143  OE1      381.4610  155.5960   59.0250 O.co2 197  GLU197     -0.2457
    144  OE2      379.3130  155.4770   59.4600 O.co2 197  GLU197     -0.2457
    145  N        386.0520  153.4310   55.2200 N.3   212  LYS212     -0.1245
    146  CA       386.5000  153.1050   56.5580 C.3   212  LYS212      0.1561
    147  C        386.5710  151.5830   56.6800 C.2   212  LYS212      0.2260
    148  O        385.6610  150.8870   56.2410 O.2   212  LYS212     -0.2867
    149  CB       385.5390  153.6990   57.5990 C.3   212  LYS212      0.0271
    150  CG       385.7630  153.2520   59.0220 C.3   212  LYS212      0.0035
    151  CD       384.7240  153.8390   59.9760 C.3   212  LYS212      0.0206
    152  CE       383.4300  153.0380   59.9720 C.3   212  LYS212      0.1093
    153  NZ       382.6500  153.2420   61.2310 N.3   212  LYS212     -0.1314
    154  N        386.2860  149.1000   59.5170 N.3   214  ASN214     -0.1240
    155  CA       385.9190  149.0930   60.9280 C.3   214  ASN214      0.1653
    156  C        386.4270  147.8650   61.6690 C.2   214  ASN214      0.2266
    157  O        386.3430  147.7940   62.8870 O.2   214  ASN214     -0.2867
    158  CB       384.4070  149.1770   61.1000 C.3   214  ASN214      0.1155
    159  CG       384.0180  149.6540   62.4800 C.2   214  ASN214      0.2627
    160  OD1      384.1710  150.8350   62.7970 O.2   214  ASN214     -0.2716
    161  ND2      383.5160  148.7430   63.3140 N.am  214  ASN214     -0.0877
    162  N        386.5150  149.6220   65.3510 N.3   266  ASN266     -0.1225
    163  CA       386.1780  151.0370   65.4370 C.3   266  ASN266      0.1785
    164  C        386.7190  151.7810   64.2280 C.2   266  ASN266      0.2597
    165  O        387.3940  151.1980   63.3770 O.2   266  ASN266     -0.2718
    166  CB       386.7230  151.6660   66.7250 C.3   266  ASN266      0.1169
    167  CG       385.9140  152.8850   67.1690 C.2   266  ASN266      0.2627
    168  OD1      385.0280  153.3680   66.4470 O.2   266  ASN266     -0.2716
    169  ND2      386.2290  153.3990   68.3580 N.am  266  ASN266     -0.0877
    170  N        386.4230  153.0730   64.1570 N.am  267  GLY267     -0.1957
    171  CA       386.8160  153.8780   63.0210 C.3   267  GLY267      0.1869
    172  C        385.9470  155.1150   62.9340 C.2   267  GLY267      0.2309
    173  O        385.0180  155.2940   63.7240 O.2   267  GLY267     -0.2863
    174  N        387.8240  161.4930   68.3710 N.3   290  ARG290     -0.1245
    175  CA       387.3600  162.3450   67.2890 C.3   290  ARG290      0.1563
    176  C        387.5190  163.8220   67.6430 C.2   290  ARG290      0.2260
    177  O        386.5350  164.5460   67.8430 O.2   290  ARG290     -0.2867
    178  CB       385.9090  162.0000   66.9550 C.3   290  ARG290      0.0307
    179  CG       385.7400  160.5320   66.5550 C.3   290  ARG290      0.0489
    180  CD       384.2800  160.0920   66.4810 C.3   290  ARG290      0.2205
    181  NE       384.1360  158.7770   65.8440 N.pl3 290  ARG290     -0.0865
    182  CZ       382.9630  158.1970   65.6010 C.cat 290  ARG290      0.5346
    183  NH1      381.8390  158.8180   65.9390 N.pl3 290  ARG290      0.1354
    184  NH2      382.9080  157.0090   65.0160 N.pl3 290  ARG290      0.1354
    185  N        382.8290  162.8450   61.8020 N.3   324  TYR324     -0.1241
    186  CA       382.8430  162.4010   60.4050 C.3   324  TYR324      0.1605
    187  C        383.3690  163.4720   59.4500 C.2   324  TYR324      0.2264
    188  O        383.2680  164.6670   59.7200 O.2   324  TYR324     -0.2867
    189  CB       381.4350  161.9860   59.9700 C.3   324  TYR324      0.0534
    190  CG       381.0400  160.5890   60.3910 C.ar  324  TYR324     -0.0201
    191  CD1      381.7410  159.9180   61.3890 C.ar  324  TYR324     -0.0009
    192  CD2      379.9800  159.9300   59.7730 C.ar  324  TYR324     -0.0009
    193  CE1      381.3970  158.6350   61.7690 C.ar  324  TYR324      0.0417
    194  CE2      379.6280  158.6370   60.1460 C.ar  324  TYR324      0.0417
    195  CZ       380.3430  157.9970   61.1390 C.ar  324  TYR324      0.1957
    196  OH       380.0000  156.7240   61.5150 O.3   324  TYR324     -0.2866
@<TRIPOS>BOND
     1    98    97    2
     2   138   139    2
     3   138   137    1
     4   106   107    1
     5   108   107    1
     6   108   109    2
     7    97    96    1
     8   107   110    1
     9    76    75    2
    10   137   136    1
    11   137   140    1
    12   136   129   am
    13   130   129    2
    14   127   128    1
    15   129   128    1
    16   145   146    1
    17    75    74    1
    18    95    96    1
    19   128   131    1
    20    96    99    1
    21    78    77    1
    22   110   111    1
    23   140   141    1
    24   148   147    2
    25   113   112   ar
    26   146   147    1
    27   146   149    1
    28    74    77    1
    29    74    73    1
    30   111   112    1
    31   112   114   ar
    32    99   100    1
    33   100   101    1
    34   131   132    1
    35   141   142    1
    36    73    61   am
    37    28    26    1
    38   132   133    1
    39   149   150    1
    40    15    14    2
    41    90    89    2
    42    89    88    1
    43   101   102    1
    44    26    27    1
    45    26    25    1
    46    59    60    1
    47   102   103    2
    48   104   103    1
    49   142   143   ar
    50   142   144   ar
    51   103   105    1
    52    14    13    1
    53    21    22    1
    54    61    60    1
    55    61    62    2
    56   133   135   ar
    57   133   134   ar
    58    71    72   ar
    59    71    69   ar
    60   150   151    1
    61    72    70   ar
    62    22    25    1
    63    22    23    1
    64   187   188    2
    65   187   186    1
    66    60    63    1
    67    69    66   ar
    68   154   155    1
    69    88    87    1
    70    88    91    1
    71    16    13    1
    72    16    17    1
    73    70    68   ar
    74    51    50    2
    75   192   194   ar
    76   192   190   ar
    77    13    12    1
    78   189   190    1
    79   189   186    1
    80   152   151    1
    81   152   153    1
    82    66    68   ar
    83    66    64   ar
    84   194   195   ar
    85    68    67   ar
    86    50    49    1
    87   190   191   ar
    88   186   185    1
    89    82    81    2
    90    17    18    1
    91    23    24    2
    92    91    93    1
    93    91    92    1
    94    64    63    1
    95    64    65   ar
    96     4     3    2
    97    67    65   ar
    98   155   158    1
    99   155   156    1
   100   158   159    1
   101   195   196    1
   102   195   193   ar
   103    12     3   am
   104   191   193   ar
   105    81    80    1
   106     3     2    1
   107   156   157    2
   108    49    52    1
   109    49    48    1
   110   115   116    1
   111    52    53    1
   112   116   117    1
   113   116   119    1
   114    19    18   ar
   115    18    20   ar
   116    92    94    1
   117   117   118    2
   118   117   120   am
   119    80    79    1
   120    80    83    1
   121   159   160    2
   122   159   161   am
   123    43    42    1
   124    43    44    1
   125   120   121    1
   126   122   121    1
   127   122   123    2
   128     2     1    1
   129     2     5    1
   130   172   171    1
   131   172   173    2
   132   171   170    1
   133    55    56    2
   134    55    54    1
   135    57    56    1
   136    42    41    1
   137    53    54    1
   138    56    58    1
   139   165   164    2
   140   121   124    1
   141    11     9    1
   142    83    84    1
   143    41    38    1
   144    32    31    2
   145     5     6    1
   146    44    45    2
   147   170   164   am
   148    85    84    2
   149   164   163    1
   150    38    39    1
   151    38    37    1
   152    84    86   am
   153     9     8    2
   154     9    10    1
   155     8     7    1
   156    46    45    1
   157    39    40    2
   158    45    47    1
   159    31    37   am
   160    31    30    1
   161   124   125    1
   162   124   126    1
   163   184   182    1
   164     6     7    1
   165   162   163    1
   166   163   166    1
   167    35    34   ar
   168    33    34    1
   169    33    30    1
   170   182   181    2
   171   182   183    1
   172    34    36   ar
   173   181   180    1
   174    30    29    1
   175   168   167    2
   176   180   179    1
   177   179   178    1
   178   166   167    1
   179   178   175    1
   180   167   169   am
   181   175   176    1
   182   175   174    1
   183   176   177    2
