@<TRIPOS>MOLECULE
tmp/5jz6A00.pdb
 152 144 0 0 0
SMALL
GASTEIGER

@<TRIPOS>ATOM
      1  N        -17.7240  -15.4090   14.7810 N.3   286  GLU286     -0.1245
      2  CA       -16.9610  -14.5640   15.6910 C.3   286  GLU286      0.1567
      3  C        -17.8800  -13.8880   16.7040 C.2   286  GLU286      0.2260
      4  O        -19.0980  -14.0590   16.6620 O.2   286  GLU286     -0.2867
      5  CB       -16.1680  -13.5180   14.9050 C.3   286  GLU286      0.0388
      6  CG       -14.7490  -13.9470   14.5760 C.3   286  GLU286      0.1160
      7  CD       -13.8140  -13.8750   15.7730 C.2   286  GLU286      0.3649
      8  OE1      -14.2850  -13.5790   16.8920 O.co2 286  GLU286     -0.2457
      9  OE2      -12.6030  -14.1150   15.5910 O.co2 286  GLU286     -0.2457
     10  N        -19.1720  -13.2930    9.6830 N.3   296  TRP296     -0.1241
     11  CA       -17.8170  -13.1430   10.1810 C.3   296  TRP296      0.1605
     12  C        -17.4240  -14.3630   11.0000 C.2   296  TRP296      0.2264
     13  O        -17.9650  -14.5940   12.0820 O.2   296  TRP296     -0.2867
     14  CB       -17.7270  -11.8670   11.0130 C.3   296  TRP296      0.0550
     15  CG       -16.3870  -11.5670   11.5850 C.ar  296  TRP296      0.0003
     16  CD1      -15.1690  -11.8750   11.0510 C.ar  296  TRP296      0.0946
     17  CD2      -16.1270  -10.8860   12.8150 C.ar  296  TRP296      0.0152
     18  NE1      -14.1660  -11.4260   11.8760 N.ar  296  TRP296     -0.2442
     19  CE2      -14.7290  -10.8160   12.9660 C.ar  296  TRP296      0.0810
     20  CE3      -16.9420  -10.3290   13.8060 C.ar  296  TRP296      0.0012
     21  CZ2      -14.1280  -10.2120   14.0680 C.ar  296  TRP296      0.0191
     22  CZ3      -16.3430   -9.7290   14.8970 C.ar  296  TRP296      0.0001
     23  CH2      -14.9510   -9.6760   15.0190 C.ar  296  TRP296      0.0015
     24  N         -9.4980  -15.8530    9.4580 N.3   339  SER339     -0.1217
     25  CA       -10.6810  -15.0380    9.6850 C.3   339  SER339      0.1889
     26  C        -11.3110  -14.6400    8.3550 C.2   339  SER339      0.2288
     27  O        -10.6800  -13.9780    7.5330 O.2   339  SER339     -0.2866
     28  CB       -10.3270  -13.7950   10.5030 C.3   339  SER339      0.2089
     29  OG       -11.4710  -12.9930   10.7290 O.3   339  SER339     -0.2183
     30  N        -14.4680  -12.7050    6.3960 N.3   341  MET341     -0.1245
     31  CA       -15.4870  -11.6760    6.5330 C.3   341  MET341      0.1570
     32  C        -16.1650  -11.4580    5.1840 C.2   341  MET341      0.2261
     33  O        -15.4950  -11.2330    4.1770 O.2   341  MET341     -0.2867
     34  CB       -14.8640  -10.3770    7.0460 C.3   341  MET341      0.0387
     35  CG       -15.8600   -9.3830    7.6040 C.3   341  MET341      0.0595
     36  SD       -15.0740   -7.9730    8.4070 S.3   341  MET341     -0.1393
     37  CE       -14.3430   -8.7490    9.8410 C.3   341  MET341      0.0692
     38  N        -17.8040   -4.4230   12.0590 N.3   347  VAL347     -0.1245
     39  CA       -17.3950   -4.7800   13.4100 C.3   347  VAL347      0.1561
     40  C        -17.3180   -3.5130   14.2530 C.2   347  VAL347      0.2260
     41  O        -16.5920   -2.5800   13.9100 O.2   347  VAL347     -0.2867
     42  CB       -16.0440   -5.5270   13.4090 C.3   347  VAL347      0.0252
     43  CG1      -15.6610   -5.9490   14.8240 C.3   347  VAL347      0.0019
     44  CG2      -16.0980   -6.7400   12.4880 C.3   347  VAL347      0.0019
     45  N        -13.6400   -1.4680   19.1430 N.3   350  HIS350     -0.1241
     46  CA       -13.3350   -2.2210   20.3500 C.3   350  HIS350      0.1621
     47  C        -11.8310   -2.3640   20.5260 C.2   350  HIS350      0.2264
     48  O        -11.0600   -2.0390   19.6240 O.2   350  HIS350     -0.2867
     49  CB       -13.9810   -3.6060   20.2940 C.3   350  HIS350      0.0745
     50  CG       -13.3580   -4.5130   19.2760 C.ar  350  HIS350      0.0817
     51  ND1      -13.6120   -4.3980   17.9300 N.ar  350  HIS350     -0.2268
     52  CD2      -12.4830   -5.5330   19.4180 C.ar  350  HIS350      0.1154
     53  CE1      -12.9210   -5.3210   17.2780 C.ar  350  HIS350      0.1986
     54  NE2      -12.2310   -6.0190   18.1530 N.ar  350  HIS350     -0.2212
     55  N         -0.7950   -7.7330   16.9640 N.3   359  ARG359     -0.1245
     56  CA        -1.6050   -8.5380   16.0610 C.3   359  ARG359      0.1563
     57  C         -1.1570   -8.3790   14.6120 C.2   359  ARG359      0.2260
     58  O         -1.1990   -7.2830   14.0540 O.2   359  ARG359     -0.2867
     59  CB        -3.0820   -8.1650   16.2000 C.3   359  ARG359      0.0307
     60  CG        -3.9990   -8.9210   15.2590 C.3   359  ARG359      0.0489
     61  CD        -5.3850   -9.1070   15.8590 C.3   359  ARG359      0.2205
     62  NE        -5.4050  -10.1540   16.8770 N.pl3 359  ARG359     -0.0865
     63  CZ        -6.5060  -10.5950   17.4770 C.cat 359  ARG359      0.5346
     64  NH1       -7.6890  -10.0800   17.1710 N.pl3 359  ARG359      0.1354
     65  NH2       -6.4260  -11.5530   18.3870 N.pl3 359  ARG359      0.1354
     66  N         -1.7230   -9.2490   10.6260 N.3   361  HIS361     -0.1241
     67  CA        -2.6980   -9.6690    9.6270 C.3   361  HIS361      0.1621
     68  C         -2.0150   -9.9590    8.2930 C.2   361  HIS361      0.2264
     69  O         -1.4360   -9.0620    7.6870 O.2   361  HIS361     -0.2867
     70  CB        -3.7680   -8.5940    9.4260 C.3   361  HIS361      0.0745
     71  CG        -4.8350   -8.5850   10.4750 C.ar  361  HIS361      0.0817
     72  ND1       -5.9330   -7.7590   10.4030 N.ar  361  HIS361     -0.2268
     73  CD2       -4.9740   -9.2970   11.6190 C.ar  361  HIS361      0.1154
     74  CE1       -6.7060   -7.9620   11.4540 C.ar  361  HIS361      0.1986
     75  NE2       -6.1460   -8.8910   12.2070 N.ar  361  HIS361     -0.2212
     76  N         -9.6000   -1.3980    7.6040 N.3   373  ILE373     -0.1245
     77  CA        -9.4960   -1.5190    9.0500 C.3   373  ILE373      0.1561
     78  C         -8.8830   -0.2510    9.6310 C.2   373  ILE373      0.2260
     79  O         -7.8550    0.2290    9.1530 O.2   373  ILE373     -0.2867
     80  CB        -8.6720   -2.7590    9.4460 C.3   373  ILE373      0.0252
     81  CG1       -8.4780   -2.8080   10.9640 C.3   373  ILE373      0.0019
     82  CG2       -7.3200   -2.7580    8.7330 C.3   373  ILE373      0.0019
     83  CD1       -7.9450   -4.1300   11.4740 C.3   373  ILE373      0.0001
     84  N         -5.8890   -4.2110    3.4470 N.3   382  TRP382     -0.1241
     85  CA        -5.0180   -5.3730    3.3500 C.3   382  TRP382      0.1605
     86  C         -4.4830   -5.5520    1.9370 C.2   382  TRP382      0.2264
     87  O         -5.0270   -5.0020    0.9800 O.2   382  TRP382     -0.2867
     88  CB        -5.7550   -6.6400    3.7710 C.3   382  TRP382      0.0550
     89  CG        -6.2230   -6.6330    5.1860 C.ar  382  TRP382      0.0003
     90  CD1       -5.5220   -7.0410    6.2800 C.ar  382  TRP382      0.0946
     91  CD2       -7.5040   -6.2060    5.6640 C.ar  382  TRP382      0.0152
     92  NE1       -6.2840   -6.8930    7.4100 N.ar  382  TRP382     -0.2442
     93  CE2       -7.5050   -6.3820    7.0610 C.ar  382  TRP382      0.0810
     94  CE3       -8.6470   -5.6930    5.0470 C.ar  382  TRP382      0.0012
     95  CZ2       -8.6060   -6.0630    7.8520 C.ar  382  TRP382      0.0191
     96  CZ3       -9.7400   -5.3750    5.8350 C.ar  382  TRP382      0.0001
     97  CH2       -9.7110   -5.5620    7.2220 C.ar  382  TRP382      0.0015
     98  N         -0.6960   -4.2230   13.9210 N.3   390  PHE390     -0.1241
     99  CA        -1.2240   -3.1930   14.8070 C.3   390  PHE390      0.1605
    100  C         -1.3580   -3.7000   16.2370 C.2   390  PHE390      0.2264
    101  O         -1.3910   -4.9040   16.4880 O.2   390  PHE390     -0.2867
    102  CB        -2.5760   -2.6810   14.2980 C.3   390  PHE390      0.0534
    103  CG        -3.6830   -3.6980   14.3520 C.ar  390  PHE390     -0.0203
    104  CD1       -3.7770   -4.6920   13.3950 C.ar  390  PHE390     -0.0042
    105  CD2       -4.6440   -3.6430   15.3470 C.ar  390  PHE390     -0.0042
    106  CE1       -4.7990   -5.6200   13.4360 C.ar  390  PHE390     -0.0003
    107  CE2       -5.6700   -4.5670   15.3910 C.ar  390  PHE390     -0.0003
    108  CZ        -5.7470   -5.5580   14.4340 C.ar  390  PHE390     -0.0000
    109  N         -9.8930   -0.4400   17.4860 N.3   396  HIS396     -0.1241
    110  CA        -9.8980   -0.6910   16.0530 C.3   396  HIS396      0.1621
    111  C        -11.2980   -1.0650   15.5710 C.2   396  HIS396      0.2264
    112  O        -12.1320   -1.5170   16.3520 O.2   396  HIS396     -0.2867
    113  CB        -8.8910   -1.7860   15.6940 C.3   396  HIS396      0.0745
    114  CG        -9.0520   -3.0440   16.4860 C.ar  396  HIS396      0.0817
    115  ND1       -8.7010   -3.1370   17.8160 N.ar  396  HIS396     -0.2268
    116  CD2       -9.5100   -4.2660   16.1330 C.ar  396  HIS396      0.1154
    117  CE1       -8.9470   -4.3590   18.2490 C.ar  396  HIS396      0.1986
    118  NE2       -9.4360   -5.0660   17.2460 N.ar  396  HIS396     -0.2212
    119  N        -13.6600   -2.4230   11.8370 N.3   398  VAL398     -0.1245
    120  CA       -13.5160   -3.1210   10.5630 C.3   398  VAL398      0.1561
    121  C        -14.7850   -3.0220    9.7140 C.2   398  VAL398      0.2260
    122  O        -15.8980   -3.1220   10.2260 O.2   398  VAL398     -0.2867
    123  CB       -13.1380   -4.5990   10.7970 C.3   398  VAL398      0.0252
    124  CG1      -12.8720   -5.3050    9.4750 C.3   398  VAL398      0.0019
    125  CG2      -11.9120   -4.7040   11.7060 C.3   398  VAL398      0.0019
    126  N        -13.5760  -11.8370    2.1860 N.3   406  ARG406     -0.1245
    127  CA       -12.2410  -11.4080    2.5760 C.3   406  ARG406      0.1563
    128  C        -11.6490  -12.4120    3.5550 C.2   406  ARG406      0.2260
    129  O        -12.2080  -12.6490    4.6250 O.2   406  ARG406     -0.2867
    130  CB       -12.2820  -10.0140    3.2030 C.3   406  ARG406      0.0307
    131  CG       -10.9200   -9.4630    3.6050 C.3   406  ARG406      0.0489
    132  CD       -10.9160   -8.9700    5.0410 C.3   406  ARG406      0.2205
    133  NE       -11.1080  -10.0560    5.9990 N.pl3 406  ARG406     -0.0865
    134  CZ       -11.1750   -9.8940    7.3160 C.cat 406  ARG406      0.5346
    135  NH1      -11.0680   -8.6850    7.8500 N.pl3 406  ARG406      0.1354
    136  NH2      -11.3530  -10.9430    8.1040 N.pl3 406  ARG406      0.1354
    137  N         -8.2070  -13.5100    5.7710 N.3   408  ILE408     -0.1245
    138  CA        -6.9180  -13.1010    6.3080 C.3   408  ILE408      0.1561
    139  C         -6.4160  -14.1410    7.2960 C.2   408  ILE408      0.2260
    140  O         -7.1890  -14.9400    7.8250 O.2   408  ILE408     -0.2867
    141  CB        -6.9930  -11.7140    6.9780 C.3   408  ILE408      0.0252
    142  CG1       -7.9610  -11.7370    8.1700 C.3   408  ILE408      0.0019
    143  CG2       -7.4030  -10.6590    5.9600 C.3   408  ILE408      0.0019
    144  CD1       -7.9550  -10.4680    8.9900 C.3   408  ILE408      0.0001
    145  N         -4.4720  -14.4220   10.9220 N.3   410  ILE410     -0.1245
    146  CA        -4.2140  -13.5880   12.0920 C.3   410  ILE410      0.1561
    147  C         -3.1780  -14.2650   12.9810 C.2   410  ILE410      0.2260
    148  O         -3.3430  -15.4200   13.3740 O.2   410  ILE410     -0.2867
    149  CB        -5.5160  -13.2980   12.8670 C.3   410  ILE410      0.0252
    150  CG1       -6.5190  -12.5890   11.9500 C.3   410  ILE410      0.0019
    151  CG2       -5.2270  -12.4550   14.1140 C.3   410  ILE410      0.0019
    152  CD1       -7.8520  -12.2700   12.5930 C.3   410  ILE410      0.0001
@<TRIPOS>BOND
     1    87    86    2
     2    86    85    1
     3   126   127    1
     4   127   130    1
     5   127   128    1
     6   130   131    1
     7    85    84    1
     8    85    88    1
     9   128   129    2
    10   131   132    1
    11    88    89    1
    12    33    32    2
    13   132   133    1
    14    94    91   ar
    15    94    96   ar
    16    32    31    1
    17    89    91   ar
    18    89    90   ar
    19    91    93   ar
    20   137   138    1
    21    96    97   ar
    22   143   141    1
    23   133   134    2
    24    90    92   ar
    25   138   141    1
    26   138   139    1
    27    30    31    1
    28    31    34    1
    29   141   142    1
    30    34    35    1
    31    93    92   ar
    32    93    95   ar
    33    97    95   ar
    34   139   140    2
    35   134   135    1
    36   134   136    1
    37    27    26    2
    38    35    36    1
    39    76    77    1
    40    69    68    2
    41   142   144    1
    42    68    67    1
    43    26    25    1
    44    36    37    1
    45    82    80    1
    46    77    80    1
    47    77    78    1
    48    79    78    2
    49    70    67    1
    50    70    71    1
    51    80    81    1
    52    24    25    1
    53   124   123    1
    54    67    66    1
    55    10    11    1
    56    25    28    1
    57   121   122    2
    58   121   120    1
    59    11    12    1
    60    11    14    1
    61    72    71   ar
    62    72    74   ar
    63    71    73   ar
    64    28    29    1
    65   120   123    1
    66   120   119    1
    67   123   125    1
    68   145   146    1
    69    81    83    1
    70    12    13    2
    71    14    15    1
    72    16    15   ar
    73    16    18   ar
    74    74    75   ar
    75    15    17   ar
    76    73    75   ar
    77    18    19   ar
    78   150   152    1
    79   150   149    1
    80    38    39    1
    81   146   149    1
    82   146   147    1
    83    44    42    1
    84    17    19   ar
    85    17    20   ar
    86   149   151    1
    87    19    21   ar
    88   147   148    2
    89   104   106   ar
    90   104   103   ar
    91    42    39    1
    92    42    43    1
    93    39    40    1
    94   106   108   ar
    95    20    22   ar
    96    41    40    2
    97    98    99    1
    98    58    57    2
    99    21    23   ar
   100   102   103    1
   101   102    99    1
   102   103   105   ar
   103   108   107   ar
   104     6     5    1
   105     6     7    1
   106    57    56    1
   107     1     2    1
   108    99   100    1
   109    22    23   ar
   110     5     2    1
   111    60    61    1
   112    60    59    1
   113   105   107   ar
   114   111   110    1
   115   111   112    2
   116     9     7   ar
   117     2     3    1
   118   113   110    1
   119   113   114    1
   120     7     8   ar
   121    61    62    1
   122   110   109    1
   123    56    59    1
   124    56    55    1
   125   116   114   ar
   126   116   118   ar
   127   100   101    2
   128   114   115   ar
   129     4     3    2
   130    62    63    2
   131    64    63    1
   132   118   117   ar
   133    53    51   ar
   134    53    54   ar
   135    63    65    1
   136   115   117   ar
   137    51    50   ar
   138    54    52   ar
   139    45    46    1
   140    50    52   ar
   141    50    49    1
   142    48    47    2
   143    49    46    1
   144    46    47    1
