@<TRIPOS>MOLECULE
tmp/5jz9A00.pdb
 147 140 0 0 0
SMALL
GASTEIGER

@<TRIPOS>ATOM
      1  N         -4.3550   -0.1990   -5.9170 N.3    38  GLY38      -0.1210
      2  CA        -4.7480   -0.2230   -7.3160 C.3    38  GLY38       0.1956
      3  C         -5.0230    1.1400   -7.9290 C.2    38  GLY38       0.2612
      4  O         -5.1380    2.1480   -7.2280 O.2    38  GLY38      -0.2717
      5  N         -5.1280    1.1540   -9.2560 N.am   39  GLY39      -0.1942
      6  CA        -5.2270    2.3790  -10.0390 C.3    39  GLY39       0.2014
      7  C         -6.6090    2.7990  -10.5240 C.2    39  GLY39       0.2639
      8  O         -6.7150    3.6790  -11.3750 O.2    39  GLY39      -0.2714
      9  N         -7.6620    2.1680  -10.0140 N.am   40  GLY40      -0.1954
     10  CA        -9.0180    2.5010  -10.4220 C.3    40  GLY40       0.1869
     11  C         -9.4290    3.9090  -10.0140 C.2    40  GLY40       0.2309
     12  O         -8.7470    4.5440   -9.2070 O.2    40  GLY40      -0.2863
     13  N         -9.6940    5.2390   -6.2290 N.3    43  ALA43      -0.1245
     14  CA        -8.9150    4.2860   -5.4550 C.3    43  ALA43       0.1562
     15  C         -8.0160    4.9940   -4.4580 C.2    43  ALA43       0.2260
     16  O         -7.4750    6.0650   -4.7380 O.2    43  ALA43      -0.2867
     17  CB        -8.0800    3.4100   -6.3800 C.3    43  ALA43       0.0290
     18  N         -8.9100    0.1430   -0.5470 N.3    48  ASN48      -0.1240
     19  CA        -8.2640   -0.9340   -1.2790 C.3    48  ASN48       0.1653
     20  C         -7.8340   -2.0780   -0.3570 C.2    48  ASN48       0.2266
     21  O         -7.9090   -3.2440   -0.7400 O.2    48  ASN48      -0.2867
     22  CB        -7.0610   -0.3800   -2.0460 C.3    48  ASN48       0.1155
     23  CG        -6.5890   -1.3030   -3.1470 C.2    48  ASN48       0.2627
     24  OD1       -7.2540   -1.4570   -4.1680 O.2    48  ASN48      -0.2716
     25  ND2       -5.4290   -1.9190   -2.9480 N.am   48  ASN48      -0.0877
     26  N         -3.7390    9.9460   -6.2870 N.3    70  TYR70      -0.1241
     27  CA        -4.7660    9.1400   -5.6290 C.3    70  TYR70       0.1605
     28  C         -4.9150    9.5130   -4.1550 C.2    70  TYR70       0.2264
     29  O         -4.0020   10.0730   -3.5540 O.2    70  TYR70      -0.2867
     30  CB        -4.4330    7.6510   -5.7650 C.3    70  TYR70       0.0534
     31  CG        -4.4350    7.1730   -7.1970 C.ar   70  TYR70      -0.0201
     32  CD1       -3.3060    7.3030   -7.9940 C.ar   70  TYR70      -0.0009
     33  CD2       -5.5730    6.6100   -7.7580 C.ar   70  TYR70      -0.0009
     34  CE1       -3.3090    6.8760   -9.3060 C.ar   70  TYR70       0.0417
     35  CE2       -5.5840    6.1820   -9.0660 C.ar   70  TYR70       0.0417
     36  CZ        -4.4500    6.3180   -9.8360 C.ar   70  TYR70       0.1957
     37  OH        -4.4600    5.8910  -11.1410 O.3    70  TYR70      -0.2866
     38  N         -0.9800   -4.2730   -5.7780 N.3   107  ASN107     -0.1225
     39  CA        -1.9130   -4.8480   -6.7340 C.3   107  ASN107      0.1785
     40  C         -2.1930   -3.8800   -7.8710 C.2   107  ASN107      0.2598
     41  O         -2.3400   -2.6720   -7.6620 O.2   107  ASN107     -0.2718
     42  CB        -3.2200   -5.2530   -6.0540 C.3   107  ASN107      0.1169
     43  CG        -4.1400   -4.0860   -5.8020 C.2   107  ASN107      0.2627
     44  OD1       -3.8400   -3.2070   -4.9960 O.2   107  ASN107     -0.2716
     45  ND2       -5.2880   -4.0850   -6.4710 N.am  107  ASN107     -0.0877
     46  N         -2.2370   -4.4280   -9.0810 N.am  108  SER108     -0.1938
     47  CA        -2.5410   -3.6630  -10.2780 C.3   108  SER108      0.2055
     48  C         -1.4830   -2.5710  -10.4870 C.2   108  SER108      0.2642
     49  O         -0.2940   -2.8830  -10.5630 O.2   108  SER108     -0.2714
     50  CB        -3.9540   -3.0830  -10.1730 C.3   108  SER108      0.2130
     51  OG        -4.4510   -2.7260  -11.4470 O.3   108  SER108     -0.2179
     52  N         -1.8970   -1.3080  -10.5760 N.am  109  LEU109     -0.1977
     53  CA        -0.9670   -0.2080  -10.8380 C.3   109  LEU109      0.1596
     54  C          0.1080   -0.1320   -9.7530 C.2   109  LEU109      0.2287
     55  O          1.2810    0.1020  -10.0450 O.2   109  LEU109     -0.2864
     56  CB        -1.7330    1.1150  -10.9370 C.3   109  LEU109      0.0297
     57  CG        -0.9710    2.4070  -11.2530 C.3   109  LEU109      0.0022
     58  CD1       -0.4960    2.4550  -12.6960 C.3   109  LEU109      0.0001
     59  CD2       -1.8640    3.5990  -10.9560 C.3   109  LEU109      0.0001
     60  N        -11.3840   -4.6860  -19.2210 N.3   148  GLY148     -0.1210
     61  CA       -11.2300   -3.8060  -18.0800 C.3   148  GLY148      0.1956
     62  C        -10.6870   -2.4410  -18.4440 C.2   148  GLY148      0.2611
     63  O        -11.2350   -1.4210  -18.0370 O.2   148  GLY148     -0.2717
     64  N         -9.6100   -2.4270  -19.2250 N.am  149  VAL149     -0.1979
     65  CA        -8.9460   -1.1860  -19.5960 C.3   149  VAL149      0.1595
     66  C         -9.8580   -0.3300  -20.4660 C.2   149  VAL149      0.2287
     67  O         -9.8510    0.8970  -20.3570 O.2   149  VAL149     -0.2864
     68  CB        -7.6120   -1.4630  -20.3310 C.3   149  VAL149      0.0276
     69  CG1       -7.0140   -0.1820  -20.9010 C.3   149  VAL149      0.0022
     70  CG2       -6.6230   -2.1310  -19.3900 C.3   149  VAL149      0.0022
     71  N        -12.4230    1.4750  -18.2840 N.3   152  LEU152     -0.1245
     72  CA       -11.7520    2.5720  -17.5920 C.3   152  LEU152      0.1561
     73  C        -11.6130    3.7920  -18.5050 C.2   152  LEU152      0.2260
     74  O        -11.9000    4.9150  -18.0930 O.2   152  LEU152     -0.2867
     75  CB       -10.3900    2.1200  -17.0620 C.3   152  LEU152      0.0270
     76  CG        -9.5780    3.1780  -16.3140 C.3   152  LEU152      0.0019
     77  CD1      -10.2420    3.5570  -15.0090 C.3   152  LEU152      0.0001
     78  CD2       -8.1970    2.6200  -16.0190 C.3   152  LEU152      0.0001
     79  N        -17.5840   -0.3090  -15.1490 N.3   167  PHE167     -0.1241
     80  CA       -16.1720   -0.5560  -14.9190 C.3   167  PHE167      0.1605
     81  C        -15.9810   -1.4580  -13.7020 C.2   167  PHE167      0.2264
     82  O        -15.2140   -2.4230  -13.7380 O.2   167  PHE167     -0.2867
     83  CB       -15.4250    0.7660  -14.7180 C.3   167  PHE167      0.0534
     84  CG       -14.0580    0.6040  -14.1180 C.ar  167  PHE167     -0.0203
     85  CD1      -12.9730    0.3000  -14.9170 C.ar  167  PHE167     -0.0042
     86  CD2      -13.8610    0.7330  -12.7540 C.ar  167  PHE167     -0.0042
     87  CE1      -11.7160    0.1460  -14.3710 C.ar  167  PHE167     -0.0003
     88  CE2      -12.6050    0.5720  -12.2060 C.ar  167  PHE167     -0.0003
     89  CZ       -11.5330    0.2800  -13.0160 C.ar  167  PHE167     -0.0000
     90  N        -14.3950   -5.7450  -12.5200 N.3   171  MET171     -0.1245
     91  CA       -13.2780   -5.8540  -11.5720 C.3   171  MET171      0.1570
     92  C        -13.3240   -7.1250  -10.7340 C.2   171  MET171      0.2261
     93  O        -12.3110   -7.5330  -10.1700 O.2   171  MET171     -0.2867
     94  CB       -13.2480   -4.6600  -10.6110 C.3   171  MET171      0.0387
     95  CG       -13.0340   -3.3290  -11.2700 C.3   171  MET171      0.0595
     96  SD       -11.4130   -3.2180  -12.0290 S.3   171  MET171     -0.1393
     97  CE       -11.9290   -3.1060  -13.7420 C.3   171  MET171      0.0692
     98  N        -17.0210    5.5910   -4.7170 N.3   186  ARG186     -0.1245
     99  CA       -15.9800    5.7400   -5.7320 C.3   186  ARG186      0.1563
    100  C        -16.2850    6.8920   -6.6790 C.2   186  ARG186      0.2260
    101  O        -15.3860    7.6510   -7.0380 O.2   186  ARG186     -0.2867
    102  CB       -15.7920    4.4500   -6.5390 C.3   186  ARG186      0.0307
    103  CG       -15.0720    3.3390   -5.7980 C.3   186  ARG186      0.0489
    104  CD       -13.5890    3.6600   -5.6560 C.3   186  ARG186      0.2205
    105  NE       -12.7230    2.5370   -6.0170 N.pl3 186  ARG186     -0.0865
    106  CZ       -12.4590    1.5030   -5.2200 C.cat 186  ARG186      0.5346
    107  NH1      -11.6530    0.5320   -5.6380 N.pl3 186  ARG186      0.1354
    108  NH2      -13.0010    1.4330   -4.0080 N.pl3 186  ARG186      0.1354
    109  N         -9.0190   -7.4940  -16.3080 N.3   237  VAL237     -0.1231
    110  CA        -8.2420   -6.2740  -16.5200 C.3   237  VAL237      0.1692
    111  C         -6.8300   -6.6550  -16.9370 C.2   237  VAL237      0.2592
    112  O         -6.3450   -6.2720  -17.9990 O.2   237  VAL237     -0.2718
    113  CB        -8.1800   -5.4090  -15.2460 C.3   237  VAL237      0.0266
    114  CG1       -7.3760   -4.1420  -15.4970 C.3   237  VAL237      0.0020
    115  CG2       -9.5730   -5.0640  -14.7660 C.3   237  VAL237      0.0020
    116  N         -6.1840   -7.4190  -16.0670 N.am  238  ASN238     -0.1974
    117  CA        -4.8850   -8.0060  -16.3380 C.3   238  ASN238      0.1688
    118  C         -5.0450   -9.5150  -16.2930 C.2   238  ASN238      0.2292
    119  O         -4.8820  -10.1270  -15.2380 O.2   238  ASN238     -0.2864
    120  CB        -3.8520   -7.5240  -15.3240 C.3   238  ASN238      0.1181
    121  CG        -3.5170   -6.0570  -15.4950 C.2   238  ASN238      0.2629
    122  OD1       -3.6480   -5.5020  -16.5870 O.2   238  ASN238     -0.2716
    123  ND2       -3.1070   -5.4120  -14.4100 N.am  238  ASN238     -0.0877
    124  N        -10.0360   -9.3770  -10.5770 N.3   263  HIS263     -0.1226
    125  CA        -8.8890   -8.4830  -10.5040 C.3   263  HIS263      0.1752
    126  C         -8.6040   -8.0050   -9.0720 C.2   263  HIS263      0.2596
    127  O         -7.4550   -7.7230   -8.7240 O.2   263  HIS263     -0.2718
    128  CB        -9.1400   -7.2920  -11.4350 C.3   263  HIS263      0.0759
    129  CG        -7.9650   -6.3810  -11.6020 C.ar  263  HIS263      0.0818
    130  ND1       -6.7340   -6.8260  -12.0250 N.ar  263  HIS263     -0.2268
    131  CD2       -7.8480   -5.0430  -11.4270 C.ar  263  HIS263      0.1154
    132  CE1       -5.8990   -5.8000  -12.0920 C.ar  263  HIS263      0.1986
    133  NE2       -6.5500   -4.7110  -11.7340 N.ar  263  HIS263     -0.2212
    134  N         -9.6470   -7.9290   -8.2480 N.am  264  TRP264     -0.1976
    135  CA        -9.5200   -7.4470   -6.8720 C.3   264  TRP264      0.1640
    136  C         -9.2230   -8.5800   -5.8910 C.2   264  TRP264      0.2290
    137  O        -10.0140   -8.8420   -4.9820 O.2   264  TRP264     -0.2864
    138  CB       -10.8050   -6.7390   -6.4380 C.3   264  TRP264      0.0576
    139  CG       -11.0120   -5.3860   -7.0340 C.ar  264  TRP264      0.0006
    140  CD1      -10.2090   -4.7400   -7.9340 C.ar  264  TRP264      0.0946
    141  CD2      -12.1070   -4.5060   -6.7700 C.ar  264  TRP264      0.0152
    142  NE1      -10.7430   -3.5080   -8.2460 N.ar  264  TRP264     -0.2442
    143  CE2      -11.9080   -3.3430   -7.5440 C.ar  264  TRP264      0.0810
    144  CE3      -13.2410   -4.5890   -5.9550 C.ar  264  TRP264      0.0012
    145  CZ2      -12.7980   -2.2760   -7.5240 C.ar  264  TRP264      0.0191
    146  CZ3      -14.1220   -3.5290   -5.9350 C.ar  264  TRP264      0.0001
    147  CH2      -13.8980   -2.3880   -6.7150 C.ar  264  TRP264      0.0015
@<TRIPOS>BOND
     1    69    68    1
     2    66    67    2
     3    66    65    1
     4    68    65    1
     5    68    70    1
     6    65    64    1
     7    64    62   am
     8    60    61    1
     9    73    74    2
    10    73    72    1
    11    62    61    1
    12    62    63    2
    13    71    72    1
    14   112   111    2
    15    72    75    1
    16    75    76    1
    17   111   110    1
    18   111   116   am
    19   122   121    2
    20   110   109    1
    21   110   113    1
    22   117   118    1
    23   117   116    1
    24   117   120    1
    25    76    78    1
    26    76    77    1
    27   118   119    2
    28   114   113    1
    29   121   120    1
    30   121   123   am
    31   113   115    1
    32    79    80    1
    33    80    83    1
    34    80    81    1
    35    85    87   ar
    36    85    84   ar
    37    83    84    1
    38    87    89   ar
    39    84    86   ar
    40    97    96    1
    41    82    81    2
    42    89    88   ar
    43    86    88   ar
    44    58    57    1
    45    90    91    1
    46   132   130   ar
    47   132   133   ar
    48    96    95    1
    49   130   129   ar
    50   133   131   ar
    51   129   128    1
    52   129   131   ar
    53    91    92    1
    54    91    94    1
    55    51    50    1
    56   128   125    1
    57     8     7    2
    58    95    94    1
    59    57    59    1
    60    57    56    1
    61    37    36    1
    62    56    53    1
    63    53    52    1
    64    53    54    1
    65    92    93    2
    66   124   125    1
    67    52    48   am
    68    49    48    2
    69     7     6    1
    70     7     9   am
    71   125   126    1
    72    48    47    1
    73    10     9    1
    74    10    11    1
    75    47    50    1
    76    47    46    1
    77    55    54    2
    78     6     5    1
    79    11    12    2
    80    36    34   ar
    81    36    35   ar
    82    34    32   ar
    83     5     3   am
    84    46    40   am
    85   126   127    2
    86   126   134   am
    87    35    33   ar
    88   134   135    1
    89   142   140   ar
    90   142   143   ar
    91    32    31   ar
    92   140   139   ar
    93     3     2    1
    94     3     4    2
    95    40    41    2
    96    40    39    1
    97    33    31   ar
    98   143   145   ar
    99   143   141   ar
   100   145   147   ar
   101     2     1    1
   102    31    30    1
   103   101   100    2
   104   139   141   ar
   105   139   138    1
   106   135   138    1
   107   135   136    1
   108   141   144   ar
   109    39    42    1
   110    39    38    1
   111   147   146   ar
   112   100    99    1
   113   102   103    1
   114   102    99    1
   115    45    43   am
   116    17    14    1
   117    26    27    1
   118    13    14    1
   119    42    43    1
   120   105   104    1
   121   105   106    2
   122   144   146   ar
   123   136   137    2
   124    43    44    2
   125   103   104    1
   126    30    27    1
   127    99    98    1
   128   107   106    1
   129    27    28    1
   130    14    15    1
   131   106   108    1
   132    16    15    2
   133    24    23    2
   134    28    29    2
   135    23    25   am
   136    23    22    1
   137    22    19    1
   138    19    18    1
   139    19    20    1
   140    21    20    2
