@<TRIPOS>MOLECULE
tmp/5jzaA00.pdb
 143 136 0 0 0
SMALL
GASTEIGER

@<TRIPOS>ATOM
      1  N        -19.2430   12.9130   -9.4130 N.3   296  TRP296     -0.1241
      2  CA       -17.8820   12.8200   -9.9160 C.3   296  TRP296      0.1605
      3  C        -17.5550   14.0560  -10.7480 C.2   296  TRP296      0.2264
      4  O        -18.1800   14.2970  -11.7810 O.2   296  TRP296     -0.2867
      5  CB       -17.7380   11.5440  -10.7390 C.3   296  TRP296      0.0550
      6  CG       -16.3850   11.2810  -11.2870 C.ar  296  TRP296      0.0003
      7  CD1      -15.1900   11.7080  -10.7890 C.ar  296  TRP296      0.0946
      8  CD2      -16.0850   10.5160  -12.4560 C.ar  296  TRP296      0.0152
      9  NE1      -14.1610   11.2530  -11.5800 N.ar  296  TRP296     -0.2442
     10  CE2      -14.6870   10.5170  -12.6100 C.ar  296  TRP296      0.0810
     11  CE3      -16.8670    9.8280  -13.3880 C.ar  296  TRP296      0.0012
     12  CZ2      -14.0540    9.8620  -13.6640 C.ar  296  TRP296      0.0191
     13  CZ3      -16.2370    9.1750  -14.4300 C.ar  296  TRP296      0.0001
     14  CH2      -14.8460    9.1950  -14.5590 C.ar  296  TRP296      0.0015
     15  N         -9.5520   15.5450   -9.3700 N.3   339  SER339     -0.1217
     16  CA       -10.7390   14.7200   -9.5570 C.3   339  SER339      0.1889
     17  C        -11.3430   14.3340   -8.2130 C.2   339  SER339      0.2288
     18  O        -10.7110   13.6490   -7.4060 O.2   339  SER339     -0.2866
     19  CB       -10.4000   13.4660  -10.3660 C.3   339  SER339      0.2089
     20  OG       -11.5380   12.6370  -10.5190 O.3   339  SER339     -0.2183
     21  N        -14.5050   12.4760   -6.1880 N.3   341  MET341     -0.1245
     22  CA       -15.5410   11.4650   -6.3050 C.3   341  MET341      0.1570
     23  C        -16.1970   11.2800   -4.9430 C.2   341  MET341      0.2261
     24  O        -15.5080   11.1490   -3.9290 O.2   341  MET341     -0.2867
     25  CB       -14.9490   10.1490   -6.8140 C.3   341  MET341      0.0387
     26  CG       -15.9890    9.1270   -7.2470 C.3   341  MET341      0.0595
     27  SD       -15.2850    7.6650   -8.0370 S.3   341  MET341     -0.1393
     28  CE       -14.6410    8.3710   -9.5520 C.3   341  MET341      0.0692
     29  N        -17.7800    3.9820  -11.7070 N.3   347  VAL347     -0.1245
     30  CA       -17.3930    4.3310  -13.0640 C.3   347  VAL347      0.1561
     31  C        -17.2970    3.0580  -13.8940 C.2   347  VAL347      0.2260
     32  O        -16.5510    2.1440  -13.5480 O.2   347  VAL347     -0.2867
     33  CB       -16.0620    5.1040  -13.0770 C.3   347  VAL347      0.0252
     34  CG1      -15.6820    5.4860  -14.4930 C.3   347  VAL347      0.0019
     35  CG2      -16.1650    6.3490  -12.2020 C.3   347  VAL347      0.0019
     36  N        -13.7140    1.1150  -18.6940 N.3   350  HIS350     -0.1241
     37  CA       -13.4490    1.8600  -19.9100 C.3   350  HIS350      0.1621
     38  C        -11.9560    2.0120  -20.1320 C.2   350  HIS350      0.2264
     39  O        -11.1380    1.6610  -19.2800 O.2   350  HIS350     -0.2867
     40  CB       -14.0990    3.2420  -19.8530 C.3   350  HIS350      0.0745
     41  CG       -13.4180    4.1780  -18.9080 C.ar  350  HIS350      0.0817
     42  ND1      -13.6290    4.1440  -17.5480 N.ar  350  HIS350     -0.2268
     43  CD2      -12.5080    5.1590  -19.1250 C.ar  350  HIS350      0.1154
     44  CE1      -12.8870    5.0700  -16.9670 C.ar  350  HIS350      0.1986
     45  NE2      -12.1990    5.7010  -17.9020 N.ar  350  HIS350     -0.2212
     46  N         -0.7450    7.5480  -16.7920 N.3   359  ARG359     -0.1245
     47  CA        -1.5740    8.3660  -15.9300 C.3   359  ARG359      0.1563
     48  C         -1.1900    8.1760  -14.4690 C.2   359  ARG359      0.2260
     49  O         -1.2610    7.0700  -13.9340 O.2   359  ARG359     -0.2867
     50  CB        -3.0480    8.0210  -16.1580 C.3   359  ARG359      0.0307
     51  CG        -4.0170    8.8070  -15.3160 C.3   359  ARG359      0.0489
     52  CD        -5.3620    8.9540  -16.0180 C.3   359  ARG359      0.2205
     53  NE        -5.3680   10.0610  -16.9710 N.pl3 359  ARG359     -0.0865
     54  CZ        -6.4640   10.5840  -17.5110 C.cat 359  ARG359      0.5346
     55  NH1       -7.6620   10.0990  -17.2090 N.pl3 359  ARG359      0.1354
     56  NH2       -6.3630   11.6000  -18.3570 N.pl3 359  ARG359      0.1354
     57  N         -1.8110    9.0730  -10.4370 N.3   361  HIS361     -0.1241
     58  CA        -2.7980    9.4850   -9.4450 C.3   361  HIS361      0.1621
     59  C         -2.1250    9.7630   -8.1100 C.2   361  HIS361      0.2264
     60  O         -1.5920    8.8530   -7.4760 O.2   361  HIS361     -0.2867
     61  CB        -3.8670    8.4100   -9.2520 C.3   361  HIS361      0.0745
     62  CG        -4.8760    8.3460  -10.3530 C.ar  361  HIS361      0.0817
     63  ND1       -5.9730    7.5130  -10.3040 N.ar  361  HIS361     -0.2268
     64  CD2       -4.9590    9.0090  -11.5300 C.ar  361  HIS361      0.1154
     65  CE1       -6.6860    7.6640  -11.4040 C.ar  361  HIS361      0.1986
     66  NE2       -6.0930    8.5660  -12.1650 N.ar  361  HIS361     -0.2212
     67  N         -5.8580    4.0590   -3.3480 N.3   382  TRP382     -0.1241
     68  CA        -5.0220    5.2470   -3.2520 C.3   382  TRP382      0.1605
     69  C         -4.5070    5.4200   -1.8310 C.2   382  TRP382      0.2264
     70  O         -5.0990    4.9150   -0.8760 O.2   382  TRP382     -0.2867
     71  CB        -5.7890    6.5000   -3.6680 C.3   382  TRP382      0.0550
     72  CG        -6.2500    6.5000   -5.0860 C.ar  382  TRP382      0.0003
     73  CD1       -5.5400    6.9020   -6.1780 C.ar  382  TRP382      0.0946
     74  CD2       -7.5320    6.0900   -5.5690 C.ar  382  TRP382      0.0152
     75  NE1       -6.3000    6.7650   -7.3120 N.ar  382  TRP382     -0.2442
     76  CE2       -7.5280    6.2670   -6.9670 C.ar  382  TRP382      0.0810
     77  CE3       -8.6840    5.5910   -4.9570 C.ar  382  TRP382      0.0012
     78  CZ2       -8.6310    5.9620   -7.7630 C.ar  382  TRP382      0.0191
     79  CZ3       -9.7780    5.2860   -5.7500 C.ar  382  TRP382      0.0001
     80  CH2       -9.7430    5.4740   -7.1370 C.ar  382  TRP382      0.0015
     81  N         -0.6870    4.0840  -13.7460 N.3   390  PHE390     -0.1241
     82  CA        -1.1940    3.0410  -14.6210 C.3   390  PHE390      0.1605
     83  C         -1.3320    3.5370  -16.0520 C.2   390  PHE390      0.2264
     84  O         -1.3430    4.7410  -16.3170 O.2   390  PHE390     -0.2867
     85  CB        -2.5320    2.5030  -14.0980 C.3   390  PHE390      0.0534
     86  CG        -3.6680    3.4840  -14.1770 C.ar  390  PHE390     -0.0203
     87  CD1       -3.7810    4.5170  -13.2600 C.ar  390  PHE390     -0.0042
     88  CD2       -4.6400    3.3540  -15.1520 C.ar  390  PHE390     -0.0042
     89  CE1       -4.8320    5.4130  -13.3300 C.ar  390  PHE390     -0.0003
     90  CE2       -5.6940    4.2420  -15.2250 C.ar  390  PHE390     -0.0003
     91  CZ        -5.7910    5.2740  -14.3130 C.ar  390  PHE390     -0.0000
     92  N         -3.7350    3.9640  -18.7940 N.3   392  ASP392     -0.1239
     93  CA        -5.1910    4.0060  -18.8550 C.3   392  ASP392      0.1674
     94  C         -5.7150    3.6100  -20.2410 C.2   392  ASP392      0.2266
     95  O         -6.9150    3.6840  -20.4940 O.2   392  ASP392     -0.2867
     96  CB        -5.7030    5.3980  -18.4300 C.3   392  ASP392      0.1410
     97  CG        -5.7520    6.3970  -19.5710 C.2   392  ASP392      0.3668
     98  OD1       -4.7530    6.5260  -20.3050 O.co2 392  ASP392     -0.2456
     99  OD2       -6.7990    7.0680  -19.7210 O.co2 392  ASP392     -0.2456
    100  N         -9.8930    0.0730  -17.1440 N.3   396  HIS396     -0.1241
    101  CA        -9.9120    0.3270  -15.7180 C.3   396  HIS396      0.1621
    102  C        -11.3160    0.7060  -15.2610 C.2   396  HIS396      0.2264
    103  O        -12.1520    1.1360  -16.0590 O.2   396  HIS396     -0.2867
    104  CB        -8.9050    1.4160  -15.3510 C.3   396  HIS396      0.0745
    105  CG        -9.0600    2.6780  -16.1380 C.ar  396  HIS396      0.0817
    106  ND1       -8.6960    2.7800  -17.4630 N.ar  396  HIS396     -0.2268
    107  CD2       -9.5300    3.8950  -15.7810 C.ar  396  HIS396      0.1154
    108  CE1       -8.9440    4.0060  -17.8900 C.ar  396  HIS396      0.1986
    109  NE2       -9.4480    4.7030  -16.8880 N.ar  396  HIS396     -0.2212
    110  N        -13.7040    2.0100  -11.5160 N.3   398  VAL398     -0.1245
    111  CA       -13.5610    2.7170  -10.2450 C.3   398  VAL398      0.1561
    112  C        -14.8230    2.6380   -9.3970 C.2   398  VAL398      0.2260
    113  O        -15.9410    2.7110   -9.9110 O.2   398  VAL398     -0.2867
    114  CB       -13.1740    4.1880  -10.4900 C.3   398  VAL398      0.0252
    115  CG1      -13.0180    4.9400   -9.1680 C.3   398  VAL398      0.0019
    116  CG2      -11.8880    4.2590  -11.3020 C.3   398  VAL398      0.0019
    117  N        -13.6500   11.6880   -1.8970 N.3   406  ARG406     -0.1245
    118  CA       -12.3140   11.2510   -2.2680 C.3   406  ARG406      0.1563
    119  C        -11.7300   12.2270   -3.2850 C.2   406  ARG406      0.2260
    120  O        -12.3360   12.4850   -4.3240 O.2   406  ARG406     -0.2867
    121  CB       -12.3540    9.8330   -2.8430 C.3   406  ARG406      0.0307
    122  CG       -11.0040    9.2890   -3.2690 C.3   406  ARG406      0.0489
    123  CD       -11.0530    8.7520   -4.6830 C.3   406  ARG406      0.2205
    124  NE       -11.2200    9.8110   -5.6720 N.pl3 406  ARG406     -0.0865
    125  CZ       -11.3340    9.5940   -6.9780 C.cat 406  ARG406      0.5346
    126  NH1      -11.3030    8.3540   -7.4420 N.pl3 406  ARG406      0.1354
    127  NH2      -11.4810   10.6080   -7.8180 N.pl3 406  ARG406      0.1354
    128  N         -8.3110   13.2040   -5.6230 N.3   408  ILE408     -0.1245
    129  CA        -7.0160   12.8240   -6.1740 C.3   408  ILE408      0.1561
    130  C         -6.5440   13.8830   -7.1570 C.2   408  ILE408      0.2260
    131  O         -7.3190   14.7320   -7.5970 O.2   408  ILE408     -0.2867
    132  CB        -7.0630   11.4340   -6.8580 C.3   408  ILE408      0.0252
    133  CG1       -8.0090   11.4470   -8.0670 C.3   408  ILE408      0.0019
    134  CG2       -7.4630   10.3630   -5.8490 C.3   408  ILE408      0.0019
    135  CD1       -7.9550   10.1770   -8.9060 C.3   408  ILE408      0.0001
    136  N         -4.6850   14.0850  -10.8330 N.3   410  ILE410     -0.1245
    137  CA        -4.3630   13.2710  -11.9960 C.3   410  ILE410      0.1561
    138  C         -3.3330   13.9960  -12.8490 C.2   410  ILE410      0.2260
    139  O         -3.5480   15.1330  -13.2680 O.2   410  ILE410     -0.2867
    140  CB        -5.6310   12.9390  -12.8030 C.3   410  ILE410      0.0252
    141  CG1       -6.6510   12.2540  -11.8860 C.3   410  ILE410      0.0019
    142  CG2       -5.2920   12.0620  -14.0150 C.3   410  ILE410      0.0019
    143  CD1       -7.9340   11.8560  -12.5730 C.3   410  ILE410      0.0001
@<TRIPOS>BOND
     1    95    94    2
     2    98    97   ar
     3    94    93    1
     4    38    37    1
     5    38    39    2
     6    37    40    1
     7    37    36    1
     8    40    41    1
     9    99    97   ar
    10    97    96    1
    11    43    41   ar
    12    43    45   ar
    13    41    42   ar
    14    93    92    1
    15    93    96    1
    16    56    54    1
    17    45    44   ar
    18   108   106   ar
    19   108   109   ar
    20    42    44   ar
    21    54    55    1
    22    54    53    2
    23   106   105   ar
    24   100   101    1
    25    53    52    1
    26   109   107   ar
    27    46    47    1
    28    84    83    2
    29    50    47    1
    30    50    51    1
    31   105   107   ar
    32   105   104    1
    33   103   102    2
    34    83    82    1
    35    52    51    1
    36    47    48    1
    37   101   104    1
    38   101   102    1
    39    90    88   ar
    40    90    91   ar
    41    88    86   ar
    42    82    85    1
    43    82    81    1
    44    14    13   ar
    45    14    12   ar
    46    34    33    1
    47    48    49    2
    48    13    11   ar
    49    91    89   ar
    50    86    85    1
    51    86    87   ar
    52   142   140    1
    53    31    32    2
    54    31    30    1
    55    12    10   ar
    56    11     8   ar
    57    89    87   ar
    58   139   138    2
    59    33    30    1
    60    33    35    1
    61    30    29    1
    62   138   137    1
    63   140   137    1
    64   140   141    1
    65    10     8   ar
    66    10     9   ar
    67   143   141    1
    68     8     6   ar
    69    66    64   ar
    70    66    65   ar
    71   137   136    1
    72     4     3    2
    73     9     7   ar
    74    64    62   ar
    75   110   111    1
    76    65    63   ar
    77   116   114    1
    78     6     7   ar
    79     6     5    1
    80     3     2    1
    81     5     2    1
    82    20    19    1
    83   114   111    1
    84   114   115    1
    85    57    58    1
    86    19    16    1
    87    62    63   ar
    88    62    61    1
    89   111   112    1
    90     2     1    1
    91   113   112    2
    92    16    15    1
    93    16    17    1
    94    28    27    1
    95    58    61    1
    96    58    59    1
    97   135   133    1
    98    17    18    2
    99    59    60    2
   100   133   132    1
   101    27    26    1
   102   127   125    1
   103    78    80   ar
   104    78    76   ar
   105   131   130    2
   106   126   125    1
   107    75    76   ar
   108    75    73   ar
   109    26    25    1
   110   130   129    1
   111    80    79   ar
   112   125   124    2
   113    76    74   ar
   114   132   129    1
   115   132   134    1
   116    25    22    1
   117    22    21    1
   118    22    23    1
   119    73    72   ar
   120   129   128    1
   121    79    77   ar
   122   124   123    1
   123    74    72   ar
   124    74    77   ar
   125    72    71    1
   126    23    24    2
   127   123   122    1
   128   120   119    2
   129    71    68    1
   130    67    68    1
   131   119   118    1
   132   122   121    1
   133    68    69    1
   134   121   118    1
   135   118   117    1
   136    69    70    2
