@<TRIPOS>MOLECULE
tmp/5jzbA00.pdb
 128 119 0 0 0
SMALL
GASTEIGER

@<TRIPOS>ATOM
      1  N          5.1840    0.7220    9.3300 N.3    39  GLY39      -0.1210
      2  CA         5.6900    1.9460    9.9220 C.3    39  GLY39       0.1956
      3  C          7.2070    1.8720    9.9780 C.2    39  GLY39       0.2612
      4  O          7.8200    1.1350    9.2010 O.2    39  GLY39      -0.2717
      5  N          7.8130    2.5760   10.9250 N.am   40  GLY40      -0.1956
      6  CA         9.2590    2.6250   11.0130 C.3    40  GLY40       0.1869
      7  C          9.7580    3.8940   10.3420 C.2    40  GLY40       0.2309
      8  O          9.1130    4.3950    9.4200 O.2    40  GLY40      -0.2863
      9  N          3.8010    9.8110    6.4470 N.3    70  TYR70      -0.1241
     10  CA         4.8160    8.9880    5.7920 C.3    70  TYR70       0.1605
     11  C          4.9500    9.4280    4.3430 C.2    70  TYR70       0.2264
     12  O          4.0040    9.9470    3.7530 O.2    70  TYR70      -0.2867
     13  CB         4.4620    7.5000    5.8760 C.3    70  TYR70       0.0534
     14  CG         4.4960    6.9740    7.2880 C.ar   70  TYR70      -0.0201
     15  CD1        3.4150    7.1510    8.1390 C.ar   70  TYR70      -0.0009
     16  CD2        5.6280    6.3460    7.7870 C.ar   70  TYR70      -0.0009
     17  CE1        3.4450    6.6750    9.4320 C.ar   70  TYR70       0.0417
     18  CE2        5.6750    5.8800    9.0840 C.ar   70  TYR70       0.0417
     19  CZ         4.5790    6.0440    9.9020 C.ar   70  TYR70       0.1957
     20  OH         4.6220    5.5990   11.2010 O.3    70  TYR70      -0.2866
     21  N         -4.5290    4.7770   13.1660 N.3    83  ASN83      -0.1240
     22  CA        -5.1560    3.8780   12.2060 C.3    83  ASN83       0.1653
     23  C         -6.4900    4.4420   11.7370 C.2    83  ASN83       0.2266
     24  O         -6.8450    4.3400   10.5620 O.2    83  ASN83      -0.2867
     25  CB        -5.3460    2.4960   12.8160 C.3    83  ASN83       0.1155
     26  CG        -4.0310    1.8580   13.2070 C.2    83  ASN83       0.2627
     27  OD1       -3.8360    1.4870   14.3610 O.2    83  ASN83      -0.2716
     28  ND2       -3.1140    1.7430   12.2510 N.am   83  ASN83      -0.0877
     29  N          2.2660   -4.4350    8.8140 N.3   108  SER108     -0.1202
     30  CA         2.5450   -3.8090   10.0990 C.3   108  SER108      0.2020
     31  C          1.6060   -2.6520   10.5260 C.2   108  SER108      0.2618
     32  O          0.4150   -2.8890   10.7460 O.2   108  SER108     -0.2717
     33  CB         3.9980   -3.3140   10.0260 C.3   108  SER108      0.2103
     34  OG         4.3620   -2.4940   11.1170 O.3   108  SER108     -0.2182
     35  N          2.1040   -1.4160   10.6000 N.am  109  LEU109     -0.1979
     36  CA         1.2560   -0.2320   10.8440 C.3   109  LEU109      0.1596
     37  C          0.0640   -0.1490    9.8740 C.2   109  LEU109      0.2287
     38  O         -1.0690    0.1470   10.2650 O.2   109  LEU109     -0.2864
     39  CB         2.0730    1.0660   10.8300 C.3   109  LEU109      0.0297
     40  CG         1.2290    2.3170   11.1090 C.3   109  LEU109      0.0022
     41  CD1        0.7440    2.3040   12.5640 C.3   109  LEU109      0.0001
     42  CD2        2.0460    3.5740   10.8940 C.3   109  LEU109      0.0001
     43  N         -0.2770   -4.6250   13.0080 N.3   134  GLY134     -0.1210
     44  CA        -0.5570   -4.0310   14.3000 C.3   134  GLY134      0.1956
     45  C         -2.0590   -3.9910   14.4790 C.2   134  GLY134      0.2612
     46  O         -2.8030   -4.3530   13.5630 O.2   134  GLY134     -0.2717
     47  N         -2.5160   -3.5500   15.6450 N.am  135  GLY135     -0.1956
     48  CA        -3.9250   -3.2600   15.8020 C.3   135  GLY135      0.1869
     49  C         -4.6810   -4.4930   16.2310 C.2   135  GLY135      0.2309
     50  O         -5.1290   -4.5980   17.3710 O.2   135  GLY135     -0.2863
     51  N          9.4440   -2.4300   19.3060 N.3   149  VAL149     -0.1245
     52  CA         8.7920   -1.1970   19.7330 C.3   149  VAL149      0.1561
     53  C          9.7240   -0.3340   20.5690 C.2   149  VAL149      0.2260
     54  O          9.6830    0.8950   20.4630 O.2   149  VAL149     -0.2867
     55  CB         7.5030   -1.4890   20.5340 C.3   149  VAL149      0.0252
     56  CG1        6.9050   -0.2070   21.1130 C.3   149  VAL149      0.0019
     57  CG2        6.4860   -2.1650   19.6430 C.3   149  VAL149      0.0019
     58  N         12.2340    1.4770   18.2920 N.3   152  LEU152     -0.1245
     59  CA        11.5520    2.5550   17.5800 C.3   152  LEU152      0.1561
     60  C         11.3740    3.7830   18.4690 C.2   152  LEU152      0.2260
     61  O         11.5970    4.9140   18.0350 O.2   152  LEU152     -0.2867
     62  CB        10.1750    2.0910   17.1000 C.3   152  LEU152      0.0270
     63  CG         9.3550    3.1220   16.3160 C.3   152  LEU152      0.0019
     64  CD1       10.1350    3.6830   15.1320 C.3   152  LEU152      0.0001
     65  CD2        8.0140    2.5490   15.8740 C.3   152  LEU152      0.0001
     66  N         17.2260   -0.3280   15.1300 N.3   167  PHE167     -0.1241
     67  CA        15.8140   -0.6370   14.9370 C.3   167  PHE167      0.1605
     68  C         15.6080   -1.5270   13.7180 C.2   167  PHE167      0.2264
     69  O         14.8570   -2.5110   13.7570 O.2   167  PHE167     -0.2867
     70  CB        14.9870    0.6350   14.7590 C.3   167  PHE167      0.0534
     71  CG        13.6170    0.3770   14.2100 C.ar  167  PHE167     -0.0203
     72  CD1       12.6070   -0.1050   15.0250 C.ar  167  PHE167     -0.0042
     73  CD2       13.3460    0.5850   12.8680 C.ar  167  PHE167     -0.0042
     74  CE1       11.3500   -0.3540   14.5120 C.ar  167  PHE167     -0.0003
     75  CE2       12.0910    0.3370   12.3530 C.ar  167  PHE167     -0.0003
     76  CZ        11.0930   -0.1340   13.1750 C.ar  167  PHE167     -0.0000
     77  N         13.9920   -5.6360   12.6580 N.3   171  MET171     -0.1245
     78  CA        12.8740   -5.7510   11.7220 C.3   171  MET171      0.1570
     79  C         12.9280   -6.9660   10.8050 C.2   171  MET171      0.2261
     80  O         11.9120   -7.3470   10.2310 O.2   171  MET171     -0.2867
     81  CB        12.7660   -4.4940   10.8670 C.3   171  MET171      0.0387
     82  CG        11.7120   -3.5090   11.3820 C.3   171  MET171      0.0595
     83  SD        11.3020   -2.2020   10.2150 S.3   171  MET171     -0.1393
     84  CE        11.1500   -3.0900    8.6660 C.3   171  MET171      0.0692
     85  N          2.6520   11.5250   16.2090 N.3   202  MET202     -0.1245
     86  CA         2.3730   10.1270   16.4890 C.3   202  MET202      0.1570
     87  C          2.5080    9.8580   17.9800 C.2   202  MET202      0.2261
     88  O          1.6840    9.1590   18.5660 O.2   202  MET202     -0.2867
     89  CB         3.2920    9.1910   15.6970 C.3   202  MET202      0.0387
     90  CG         3.0240    7.7030   15.9890 C.3   202  MET202      0.0595
     91  SD         1.5520    7.0280   15.1960 S.3   202  MET202     -0.1393
     92  CE         1.9950    7.1380   13.4700 C.3   202  MET202      0.0692
     93  N         -0.9150    8.8830   21.0860 N.3   206  PHE206     -0.1241
     94  CA        -1.0150    7.7360   21.9760 C.3   206  PHE206      0.1605
     95  C         -1.7310    8.0940   23.2760 C.2   206  PHE206      0.2264
     96  O         -2.3560    7.2370   23.8950 O.2   206  PHE206     -0.2867
     97  CB         0.3690    7.1630   22.2930 C.3   206  PHE206      0.0534
     98  CG         1.1230    6.6750   21.0840 C.ar  206  PHE206     -0.0203
     99  CD1        0.4500    6.2210   19.9600 C.ar  206  PHE206     -0.0042
    100  CD2        2.5080    6.6200   21.0950 C.ar  206  PHE206     -0.0042
    101  CE1        1.1470    5.7600   18.8570 C.ar  206  PHE206     -0.0003
    102  CE2        3.2080    6.1530   19.9960 C.ar  206  PHE206     -0.0003
    103  CZ         2.5250    5.7200   18.8790 C.ar  206  PHE206     -0.0000
    104  N          8.9230   -7.3300   16.3010 N.3   237  VAL237     -0.1231
    105  CA         8.2000   -6.0690   16.4700 C.3   237  VAL237      0.1692
    106  C          6.8070   -6.4170   16.9570 C.2   237  VAL237      0.2592
    107  O          6.3580   -5.9500   18.0110 O.2   237  VAL237     -0.2718
    108  CB         8.1120   -5.2470   15.1660 C.3   237  VAL237      0.0266
    109  CG1        7.2960   -3.9680   15.3960 C.3   237  VAL237      0.0020
    110  CG2        9.5060   -4.8810   14.6600 C.3   237  VAL237      0.0020
    111  N          6.1580   -7.2720   16.1660 N.am  238  ASN238     -0.1974
    112  CA         4.8410   -7.8130   16.4430 C.3   238  ASN238      0.1688
    113  C          4.9600   -9.3290   16.4200 C.2   238  ASN238      0.2292
    114  O          4.7500   -9.9520   15.3800 O.2   238  ASN238     -0.2864
    115  CB         3.8140   -7.3830   15.3950 C.3   238  ASN238      0.1181
    116  CG         3.4810   -5.9060   15.4580 C.2   238  ASN238      0.2629
    117  OD1        3.6770   -5.2500   16.4810 O.2   238  ASN238     -0.2716
    118  ND2        2.9430   -5.3800   14.3620 N.am  238  ASN238     -0.0877
    119  N          9.6400   -9.1080   10.6480 N.3   263  HIS263     -0.1241
    120  CA         8.5000   -8.2070   10.5570 C.3   263  HIS263      0.1621
    121  C          8.2140   -7.7720    9.1080 C.2   263  HIS263      0.2264
    122  O          7.0840   -7.4310    8.7550 O.2   263  HIS263     -0.2867
    123  CB         8.7850   -7.0000   11.4620 C.3   263  HIS263      0.0745
    124  CG         7.6510   -6.0340   11.6030 C.ar  263  HIS263      0.0817
    125  ND1        6.3960   -6.4180   12.0190 N.ar  263  HIS263     -0.2268
    126  CD2        7.5940   -4.6920   11.4230 C.ar  263  HIS263      0.1154
    127  CE1        5.6120   -5.3570   12.0800 C.ar  263  HIS263      0.1986
    128  NE2        6.3130   -4.2980   11.7190 N.ar  263  HIS263     -0.2212
@<TRIPOS>BOND
     1    12    11    2
     2    11    10    1
     3    10    13    1
     4    10     9    1
     5    13    14    1
     6    14    16   ar
     7    14    15   ar
     8    16    18   ar
     9    15    17   ar
    10    84    83    1
    11   122   121    2
    12    29    30    1
    13    18    19   ar
    14   121   120    1
    15     4     3    2
    16     1     2    1
    17     8     7    2
    18    17    19   ar
    19    37    38    2
    20    37    36    1
    21    19    20    1
    22     2     3    1
    23     3     5   am
    24    33    30    1
    25    33    34    1
    26    30    31    1
    27    83    82    1
    28    80    79    2
    29     7     6    1
    30    31    35   am
    31    31    32    2
    32   120   119    1
    33   120   123    1
    34    24    23    2
    35    35    36    1
    36    79    78    1
    37    39    36    1
    38    39    40    1
    39    81    82    1
    40    81    78    1
    41    42    40    1
    42     5     6    1
    43    40    41    1
    44   126   124   ar
    45   126   128   ar
    46   123   124    1
    47   124   125   ar
    48   128   127   ar
    49    78    77    1
    50    23    22    1
    51   125   127   ar
    52    22    25    1
    53    22    21    1
    54    28    26   am
    55    75    73   ar
    56    75    76   ar
    57    25    26    1
    58    73    71   ar
    59    43    44    1
    60    76    74   ar
    61    26    27    2
    62    92    91    1
    63    46    45    2
    64    68    69    2
    65    68    67    1
    66    71    70    1
    67    71    72   ar
    68    44    45    1
    69   118   116   am
    70    45    47   am
    71    74    72   ar
    72   110   108    1
    73    70    67    1
    74    67    66    1
    75    64    63    1
    76   108   109    1
    77   108   105    1
    78    91    90    1
    79   114   113    2
    80   115   116    1
    81   115   112    1
    82   116   117    2
    83    47    48    1
    84    89    90    1
    85    89    86    1
    86    48    49    1
    87    65    63    1
    88   111   112    1
    89   111   106   am
    90    85    86    1
    91    49    50    2
    92   104   105    1
    93    63    62    1
    94   113   112    1
    95   105   106    1
    96    86    87    1
    97   106   107    2
    98    62    59    1
    99    59    58    1
   100    59    60    1
   101    87    88    2
   102    61    60    2
   103   101   103   ar
   104   101    99   ar
   105   103   102   ar
   106    51    52    1
   107    57    55    1
   108    52    55    1
   109    52    53    1
   110    99    98   ar
   111   102   100   ar
   112    54    53    2
   113    55    56    1
   114    98   100   ar
   115    98    97    1
   116    93    94    1
   117    94    97    1
   118    94    95    1
   119    95    96    2
