@<TRIPOS>MOLECULE
tmp/5jzjA00.pdb
 166 155 0 0 0
SMALL
GASTEIGER

@<TRIPOS>ATOM
      1  N         33.3720   23.8800   68.8090 N.3    23  ILE23      -0.1231
      2  CA        33.5470   25.2600   68.3420 C.3    23  ILE23       0.1692
      3  C         33.3070   25.3790   66.8530 C.2    23  ILE23       0.2593
      4  O         33.2200   26.4850   66.3170 O.2    23  ILE23      -0.2718
      5  CB        34.9390   25.8000   68.7150 C.3    23  ILE23       0.0266
      6  CG1       36.0620   24.8410   68.2330 C.3    23  ILE23       0.0019
      7  CG2       34.9920   26.0870   70.1940 C.3    23  ILE23       0.0020
      8  CD1       37.4370   25.3970   68.2730 C.3    23  ILE23       0.0001
      9  N         33.2160   24.2410   66.2010 N.am   24  GLY24      -0.1942
     10  CA        32.9830   24.1890   64.7780 C.3    24  GLY24       0.2014
     11  C         32.6520   22.7920   64.3350 C.2    24  GLY24       0.2639
     12  O         32.8880   21.8200   65.0560 O.2    24  GLY24      -0.2714
     13  N         32.0790   22.7000   63.1420 N.am   25  ASP25      -0.1957
     14  CA        31.6860   21.4300   62.5480 C.3    25  ASP25       0.1840
     15  C         31.7880   21.5240   61.0320 C.2    25  ASP25       0.2623
     16  O         31.8560   22.6270   60.4770 O.2    25  ASP25      -0.2715
     17  CB        30.2510   21.0640   62.9750 C.3    25  ASP25       0.1450
     18  CG        30.0440   19.6010   63.3080 C.2    25  ASP25       0.3671
     19  OD1       30.1780   18.7570   62.3930 O.co2  25  ASP25      -0.2456
     20  OD2       29.6770   19.3050   64.4650 O.co2  25  ASP25      -0.2456
     21  N         31.7920   20.3790   60.3940 N.am   26  GLY26      -0.1940
     22  CA        31.8290   20.2570   58.9440 C.3    26  GLY26       0.2014
     23  C         31.1410   18.9660   58.5730 C.2    26  GLY26       0.2639
     24  O         30.5970   18.2870   59.4490 O.2    26  GLY26      -0.2714
     25  N         31.1710   18.6060   57.2860 N.am   27  ASN27      -0.1958
     26  CA        30.5590   17.3650   56.8100 C.3    27  ASN27       0.1819
     27  C         31.2280   16.1290   57.3860 C.2    27  ASN27       0.2621
     28  O         30.5650   15.1120   57.5700 O.2    27  ASN27      -0.2715
     29  CB        30.6440   17.2840   55.2880 C.3    27  ASN27       0.1195
     30  CG        29.6950   18.1970   54.5760 C.2    27  ASN27       0.2630
     31  OD1       28.4740   18.1610   54.7930 O.2    27  ASN27      -0.2716
     32  ND2       30.2360   19.0150   53.6810 N.am   27  ASN27      -0.0877
     33  N         32.5490   16.2120   57.6350 N.am   28  PHE28      -0.1960
     34  CA        33.3400   15.0660   58.0580 C.3    28  PHE28       0.1771
     35  C         33.8990   15.1870   59.4690 C.2    28  PHE28       0.2619
     36  O         34.2590   14.1640   60.0570 O.2    28  PHE28      -0.2715
     37  CB        34.5080   14.8810   57.0740 C.3    28  PHE28       0.0574
     38  CG        34.1180   14.4800   55.6400 C.ar   28  PHE28      -0.0200
     39  CD1       32.9110   13.8580   55.4040 C.ar   28  PHE28      -0.0042
     40  CD2       35.0310   14.7110   54.6150 C.ar   28  PHE28      -0.0042
     41  CE1       32.6320   13.4730   54.1090 C.ar   28  PHE28      -0.0003
     42  CE2       34.7410   14.3190   53.3300 C.ar   28  PHE28      -0.0003
     43  CZ        33.5280   13.6950   53.0940 C.ar   28  PHE28      -0.0000
     44  N         34.0160   16.4140   60.0030 N.am   29  ALA29      -0.1977
     45  CA        34.6540   16.5480   61.2970 C.3    29  ALA29       0.1597
     46  C         33.8740   17.3610   62.3040 C.2    29  ALA29       0.2287
     47  O         33.0870   18.2440   61.9490 O.2    29  ALA29      -0.2864
     48  CB        36.0370   17.1720   61.1160 C.3    29  ALA29       0.0319
     49  N         34.9730   19.6730   65.6070 N.3    31  VAL31      -0.1245
     50  CA        36.1270   20.3550   66.1890 C.3    31  VAL31       0.1561
     51  C         35.7370   20.9070   67.5350 C.2    31  VAL31       0.2260
     52  O         34.7450   21.6310   67.6450 O.2    31  VAL31      -0.2867
     53  CB        36.6800   21.4710   65.2550 C.3    31  VAL31       0.0252
     54  CG1       37.8790   22.1690   65.8940 C.3    31  VAL31       0.0019
     55  CG2       37.0400   20.9110   63.8810 C.3    31  VAL31       0.0019
     56  N         42.8980   22.9960   69.5860 N.3    44  ALA44      -0.1245
     57  CA        41.6800   22.5060   68.9750 C.3    44  ALA44       0.1562
     58  C         41.8180   20.9970   68.8350 C.2    44  ALA44       0.2260
     59  O         42.9170   20.4900   68.5420 O.2    44  ALA44      -0.2867
     60  CB        41.4500   23.1670   67.6130 C.3    44  ALA44       0.0290
     61  N         40.3670   18.1470   66.5660 N.3    46  LYS46      -0.1245
     62  CA        39.5700   17.8190   65.3900 C.3    46  LYS46       0.1561
     63  C         39.3250   16.2940   65.3580 C.2    46  LYS46       0.2260
     64  O         40.2690   15.5020   65.3880 O.2    46  LYS46      -0.2867
     65  CB        40.2420   18.3230   64.1080 C.3    46  LYS46       0.0271
     66  CG        39.4710   17.9420   62.8540 C.3    46  LYS46       0.0035
     67  CD        39.9590   18.7280   61.6570 C.3    46  LYS46       0.0206
     68  CE        39.4940   18.1020   60.3710 C.3    46  LYS46       0.1093
     69  NZ        39.8770   18.9510   59.1940 N.3    46  LYS46      -0.1314
     70  N         44.6240   13.3040   54.6450 N.3    63  GLU63      -0.1245
     71  CA        44.8860   14.5700   55.3480 C.3    63  GLU63       0.1567
     72  C         46.1690   14.6070   56.2260 C.2    63  GLU63       0.2260
     73  O         46.9440   15.5500   56.0830 O.2    63  GLU63      -0.2867
     74  CB        43.6830   14.9560   56.1930 C.3    63  GLU63       0.0388
     75  CG        43.7360   16.3720   56.7510 C.3    63  GLU63       0.1160
     76  CD        42.3950   16.8560   57.2670 C.2    63  GLU63       0.3649
     77  OE1       41.3610   16.3040   56.8350 O.co2  63  GLU63      -0.2457
     78  OE2       42.3710   17.7950   58.0930 O.co2  63  GLU63      -0.2457
     79  N         47.1960   26.3730   59.7210 N.3    76  VAL76      -0.1245
     80  CA        46.9260   25.7920   61.0450 C.3    76  VAL76       0.1561
     81  C         47.9360   24.6580   61.3060 C.2    76  VAL76       0.2260
     82  O         48.0570   23.7300   60.5090 O.2    76  VAL76      -0.2867
     83  CB        45.4630   25.2900   61.2110 C.3    76  VAL76       0.0252
     84  CG1       45.2450   24.7050   62.6000 C.3    76  VAL76       0.0019
     85  CG2       44.4490   26.3970   60.9430 C.3    76  VAL76       0.0019
     86  N         45.3490   20.3130   67.1600 N.3    92  MET92      -0.1230
     87  CA        45.8440   21.3860   66.3050 C.3    92  MET92       0.1702
     88  C         45.9010   22.7040   67.0360 C.2    92  MET92       0.2592
     89  O         45.3140   22.8550   68.1070 O.2    92  MET92      -0.2718
     90  CB        44.9330   21.5270   65.0650 C.3    92  MET92       0.0401
     91  CG        44.3070   20.2050   64.6260 C.3    92  MET92       0.0596
     92  SD        43.6220   20.1980   62.9760 S.3    92  MET92      -0.1393
     93  CE        42.6080   21.6400   63.0460 C.3    92  MET92       0.0692
     94  N         46.6030   23.6640   66.4530 N.am   93  GLU93      -0.1966
     95  CA        46.6820   25.0310   66.9410 C.3    93  GLU93       0.1733
     96  C         45.2520   25.5850   67.0070 C.2    93  GLU93       0.2616
     97  O         44.4750   25.3950   66.0690 O.2    93  GLU93      -0.2715
     98  CB        47.5080   25.8160   65.9110 C.3    93  GLU93       0.0429
     99  CG        47.4930   27.3100   66.0380 C.3    93  GLU93       0.1163
    100  CD        48.3360   27.9870   64.9770 C.2    93  GLU93       0.3649
    101  OE1       48.7160   29.1570   65.1970 O.co2  93  GLU93      -0.2457
    102  OE2       48.6560   27.3460   63.9510 O.co2  93  GLU93      -0.2457
    103  N         44.8950   26.2320   68.1100 N.am   94  LEU94      -0.1963
    104  CA        43.5500   26.7910   68.2210 C.3    94  LEU94       0.1728
    105  C         43.5430   28.1860   67.6550 C.2    94  LEU94       0.2616
    106  O         44.3840   29.0050   68.0100 O.2    94  LEU94      -0.2715
    107  CB        43.0490   26.7940   69.6760 C.3    94  LEU94       0.0311
    108  CG        41.7030   27.4830   69.9540 C.3    94  LEU94       0.0022
    109  CD1       40.5630   26.7350   69.3410 C.3    94  LEU94       0.0001
    110  CD2       41.4630   27.6260   71.4540 C.3    94  LEU94       0.0001
    111  N         42.5700   28.4670   66.7920 N.am   95  VAL95      -0.1977
    112  CA        42.4310   29.8060   66.2480 C.3    95  VAL95       0.1596
    113  C         41.1120   30.3280   66.8200 C.2    95  VAL95       0.2287
    114  O         40.0220   29.9060   66.4390 O.2    95  VAL95      -0.2864
    115  CB        42.5490   29.8270   64.7040 C.3    95  VAL95       0.0276
    116  CG1       42.5620   31.2640   64.2050 C.3    95  VAL95       0.0022
    117  CG2       43.8250   29.1150   64.2600 C.3    95  VAL95       0.0022
    118  N         37.4760   32.1220   65.0560 N.3    98  GLY98      -0.1210
    119  CA        36.5010   31.3890   64.2520 C.3    98  GLY98       0.1956
    120  C         36.8710   31.3900   62.7740 C.2    98  GLY98       0.2611
    121  O         38.0290   31.6550   62.4210 O.2    98  GLY98      -0.2717
    122  N         35.9040   31.0870   61.9010 N.am   99  ASP99      -0.1973
    123  CA        36.2450   31.0110   60.4830 C.3    99  ASP99       0.1709
    124  C         35.7680   32.2320   59.6970 C.2    99  ASP99       0.2293
    125  O         34.9240   33.0150   60.1540 O.2    99  ASP99      -0.2864
    126  CB        35.7370   29.6960   59.8700 C.3    99  ASP99       0.1436
    127  CG        34.2320   29.5790   59.8080 C.2    99  ASP99       0.3671
    128  OD1       33.6030   30.4470   59.1880 O.co2  99  ASP99      -0.2456
    129  OD2       33.6980   28.5570   60.2830 O.co2  99  ASP99      -0.2456
    130  N         34.9720   28.9870   54.7930 N.3   142  GLU142     -0.1231
    131  CA        34.7860   28.1180   55.9660 C.3   142  GLU142      0.1699
    132  C         36.0950   27.4000   56.3800 C.2   142  GLU142      0.2592
    133  O         36.2080   26.9270   57.5170 O.2   142  GLU142     -0.2718
    134  CB        33.6700   27.1210   55.7000 C.3   142  GLU142      0.0402
    135  CG        33.9940   26.0780   54.6530 C.3   142  GLU142      0.1161
    136  CD        32.7700   25.3010   54.2170 C.2   142  GLU142      0.3649
    137  OE1       31.8270   25.9350   53.6940 O.co2 142  GLU142     -0.2457
    138  OE2       32.7680   24.0570   54.3620 O.co2 142  GLU142     -0.2457
    139  N         37.0710   27.3180   55.4580 N.am  143  ASN143     -0.1974
    140  CA        38.3660   26.7000   55.6940 C.3   143  ASN143      0.1688
    141  C         39.4770   27.7180   55.9690 C.2   143  ASN143      0.2292
    142  O         40.6570   27.3340   56.0330 O.2   143  ASN143     -0.2864
    143  CB        38.7420   25.7820   54.5350 C.3   143  ASN143      0.1181
    144  CG        37.8260   24.5850   54.5270 C.2   143  ASN143      0.2629
    145  OD1       37.2400   24.2290   55.5810 O.2   143  ASN143     -0.2716
    146  ND2       37.7170   23.9150   53.3970 N.am  143  ASN143     -0.0877
    147  N         40.7130   30.4610   58.8830 N.3   145  LEU145     -0.1245
    148  CA        40.4930   30.8310   60.2800 C.3   145  LEU145      0.1561
    149  C         41.0660   32.1860   60.5660 C.2   145  LEU145      0.2260
    150  O         42.0920   32.5610   59.9940 O.2   145  LEU145     -0.2867
    151  CB        41.0960   29.7870   61.2000 C.3   145  LEU145      0.0270
    152  CG        40.6490   28.3290   60.9390 C.3   145  LEU145      0.0019
    153  CD1       41.2760   27.4320   61.9110 C.3   145  LEU145      0.0001
    154  CD2       39.1350   28.1830   60.9970 C.3   145  LEU145      0.0001
    155  N         41.8680   22.8420   56.9540 N.3   160  ASP160     -0.1239
    156  CA        41.1510   21.7680   56.2610 C.3   160  ASP160      0.1674
    157  C         41.8860   21.2540   55.0150 C.2   160  ASP160      0.2266
    158  O         41.5470   21.6050   53.8660 O.2   160  ASP160     -0.2867
    159  CB        39.7360   22.2110   55.8730 C.3   160  ASP160      0.1410
    160  CG        38.8220   21.0770   55.4110 C.2   160  ASP160      0.3668
    161  OD1       39.3220   19.9520   55.2160 O.co2 160  ASP160     -0.2456
    162  OD2       37.5890   21.2960   55.3400 O.co2 160  ASP160     -0.2456
    163  N         41.6750   18.3250   53.8370 N.3   162  GLY162     -0.1225
    164  CA        40.9890   17.0790   53.4760 C.3   162  GLY162      0.1811
    165  C         41.0800   16.6990   52.0060 C.2   162  GLY162      0.2280
    166  O         41.0120   15.5120   51.6750 O.2   162  GLY162     -0.2866
@<TRIPOS>BOND
     1   166   165    2
     2   165   164    1
     3    43    42   ar
     4    43    41   ar
     5    42    40   ar
     6   146   144   am
     7   164   163    1
     8    32    30   am
     9   137   136   ar
    10   158   157    2
    11    41    39   ar
    12   136   138   ar
    13   136   135    1
    14   144   143    1
    15   144   145    2
    16   143   140    1
    17    30    31    2
    18    30    29    1
    19    40    38   ar
    20    70    71    1
    21   135   134    1
    22   130   131    1
    23   157   156    1
    24   161   160   ar
    25    29    26    1
    26   162   160   ar
    27    71    74    1
    28    71    72    1
    29    39    38   ar
    30   160   159    1
    31   139   140    1
    32   139   132   am
    33    38    37    1
    34   140   141    1
    35   134   131    1
    36   159   156    1
    37   131   132    1
    38   141   142    2
    39    73    72    2
    40    74    75    1
    41   156   155    1
    42   132   133    2
    43    75    76    1
    44    26    25    1
    45    26    27    1
    46    77    76   ar
    47    37    34    1
    48    76    78   ar
    49    25    23   am
    50    27    28    2
    51    27    33   am
    52    33    34    1
    53    34    35    1
    54    23    22    1
    55    23    24    2
    56   147   148    1
    57    22    21    1
    58   128   127   ar
    59    69    68    1
    60    35    44   am
    61    35    36    2
    62   124   125    2
    63   124   123    1
    64    79    80    1
    65   127   126    1
    66   127   129   ar
    67   126   123    1
    68   150   149    2
    69    44    45    1
    70   148   149    1
    71   148   151    1
    72    68    67    1
    73    21    15   am
    74    16    15    2
    75   123   122    1
    76    82    81    2
    77   152   154    1
    78   152   151    1
    79   152   153    1
    80    85    83    1
    81    15    14    1
    82    80    83    1
    83    80    81    1
    84    48    45    1
    85    83    84    1
    86    45    46    1
    87    67    66    1
    88   122   120   am
    89    47    46    2
    90    19    18   ar
    91   121   120    2
    92    14    17    1
    93    14    13    1
    94   120   119    1
    95    66    65    1
    96    17    18    1
    97    92    93    1
    98    92    91    1
    99    13    11   am
   100    18    20   ar
   101    55    53    1
   102   102   100   ar
   103    65    62    1
   104   116   115    1
   105   119   118    1
   106   117   115    1
   107    11    10    1
   108    11    12    2
   109    91    90    1
   110   115   112    1
   111    10     9    1
   112   100   101   ar
   113   100    99    1
   114    90    87    1
   115    53    54    1
   116    53    50    1
   117    63    64    2
   118    63    62    1
   119    62    61    1
   120    49    50    1
   121    98    99    1
   122    98    95    1
   123    97    96    2
   124    50    51    1
   125     9     3   am
   126   112   111    1
   127   112   113    1
   128    87    88    1
   129    87    86    1
   130     4     3    2
   131   114   113    2
   132    94    95    1
   133    94    88   am
   134   111   105   am
   135     3     2    1
   136    95    96    1
   137    96   103   am
   138    88    89    2
   139    51    52    2
   140    60    57    1
   141   105   106    2
   142   105   104    1
   143   103   104    1
   144   104   107    1
   145     6     8    1
   146     6     5    1
   147     2     5    1
   148     2     1    1
   149    59    58    2
   150     5     7    1
   151    58    57    1
   152    57    56    1
   153   109   108    1
   154   107   108    1
   155   108   110    1
