@<TRIPOS>MOLECULE
tmp/5jznB00.pdb
 171 157 0 0 0
SMALL
GASTEIGER

@<TRIPOS>ATOM
      1  N         14.4500   93.0170  -35.6880 N.3    15  ARG15      -0.1245
      2  CA        14.4920   94.0420  -36.7240 C.3    15  ARG15       0.1563
      3  C         14.0110   95.4240  -36.2830 C.2    15  ARG15       0.2260
      4  O         13.2110   95.5720  -35.3640 O.2    15  ARG15      -0.2867
      5  CB        13.6370   93.5890  -37.9250 C.3    15  ARG15       0.0307
      6  CG        12.2000   93.3080  -37.5160 C.3    15  ARG15       0.0489
      7  CD        11.5700   92.7660  -38.7700 C.3    15  ARG15       0.2205
      8  NE        10.1440   92.5440  -38.7550 N.pl3  15  ARG15      -0.0865
      9  CZ         9.3390   93.1750  -39.5950 C.cat  15  ARG15       0.5346
     10  NH1        9.7990   94.0790  -40.4560 N.pl3  15  ARG15       0.1354
     11  NH2        8.0470   92.8720  -39.5890 N.pl3  15  ARG15       0.1354
     12  N         11.8620   98.6420  -36.5900 N.3    17  ILE17      -0.1231
     13  CA        10.4960   98.8810  -37.0790 C.3    17  ILE17       0.1692
     14  C         10.2510  100.3770  -37.2900 C.2    17  ILE17       0.2593
     15  O          9.2320  100.7600  -37.8560 O.2    17  ILE17      -0.2718
     16  CB         9.4110   98.2600  -36.1950 C.3    17  ILE17       0.0266
     17  CG1        9.5810   98.6220  -34.7290 C.3    17  ILE17       0.0019
     18  CG2        9.4020   96.7550  -36.3890 C.3    17  ILE17       0.0020
     19  CD1        8.3590   98.2690  -33.9140 C.3    17  ILE17       0.0001
     20  N         11.1760  101.2160  -36.8300 N.am   18  GLY18      -0.1942
     21  CA        11.0570  102.6480  -37.0370 C.3    18  GLY18       0.2014
     22  C         12.4070  103.2420  -36.6890 C.2    18  GLY18       0.2638
     23  O         13.1730  102.6630  -35.9190 O.2    18  GLY18      -0.2714
     24  N         12.6610  104.4410  -37.2120 N.am   19  ASP19      -0.1971
     25  CA        13.9130  105.1670  -37.0010 C.3    19  ASP19       0.1709
     26  C         13.6440  106.6660  -37.0950 C.2    19  ASP19       0.2293
     27  O         12.9370  107.0980  -38.0000 O.2    19  ASP19      -0.2864
     28  CB        14.9410  104.6950  -38.0440 C.3    19  ASP19       0.1436
     29  CG        16.3460  105.2020  -37.7870 C.2    19  ASP19       0.3671
     30  OD1       16.5290  106.1650  -37.0130 O.co2  19  ASP19      -0.2456
     31  OD2       17.2830  104.6010  -38.3590 O.co2  19  ASP19      -0.2456
     32  N         14.3120  108.8820  -31.8810 N.3    23  ALA23      -0.1245
     33  CA        14.1770  107.5410  -31.3180 C.3    23  ALA23       0.1562
     34  C         14.4830  106.4480  -32.3430 C.2    23  ALA23       0.2260
     35  O         14.2750  106.6510  -33.5330 O.2    23  ALA23      -0.2867
     36  CB        12.7650  107.3540  -30.7530 C.3    23  ALA23       0.0290
     37  N         13.3010  102.3900  -32.9410 N.3    25  VAL25      -0.1245
     38  CA        12.4920  101.3340  -32.3480 C.3    25  VAL25       0.1561
     39  C         12.7510   99.9750  -33.0040 C.2    25  VAL25       0.2260
     40  O         12.6790   99.8540  -34.2220 O.2    25  VAL25      -0.2867
     41  CB        10.9900  101.6810  -32.4020 C.3    25  VAL25       0.0252
     42  CG1       10.1650  100.6050  -31.7370 C.3    25  VAL25       0.0019
     43  CG2       10.7530  102.9940  -31.7180 C.3    25  VAL25       0.0019
     44  N         12.1300   95.5220  -32.8710 N.3    27  GLU27      -0.1245
     45  CA        11.3990   94.3760  -32.3510 C.3    27  GLU27       0.1567
     46  C         12.3500   93.6040  -31.4440 C.2    27  GLU27       0.2260
     47  O         13.5500   93.5590  -31.7040 O.2    27  GLU27      -0.2867
     48  CB        10.9030   93.4810  -33.4850 C.3    27  GLU27       0.0388
     49  CG         9.4590   93.7090  -33.9240 C.3    27  GLU27       0.1160
     50  CD         9.0700   92.8470  -35.1260 C.2    27  GLU27       0.3649
     51  OE1        9.9690   92.2000  -35.7070 O.co2  27  GLU27      -0.2457
     52  OE2        7.8670   92.8010  -35.4770 O.co2  27  GLU27      -0.2457
     53  N          8.5330   95.6750  -27.9050 N.3    38  ALA38      -0.1245
     54  CA         9.2030   96.6810  -28.7260 C.3    38  ALA38       0.1562
     55  C         10.3270   97.2830  -27.8990 C.2    38  ALA38       0.2260
     56  O         10.1230   97.5600  -26.7220 O.2    38  ALA38      -0.2867
     57  CB         8.2250   97.7570  -29.1870 C.3    38  ALA38       0.0290
     58  N         12.3800  100.6210  -27.6250 N.3    40  LYS40      -0.1245
     59  CA        12.5490  101.9850  -28.0780 C.3    40  LYS40       0.1561
     60  C         13.8160  102.6070  -27.5030 C.2    40  LYS40       0.2260
     61  O         13.9950  102.6930  -26.2870 O.2    40  LYS40      -0.2867
     62  CB        11.2900  102.7640  -27.7200 C.3    40  LYS40       0.0271
     63  CG        11.2390  104.2380  -28.0540 C.3    40  LYS40       0.0035
     64  CD         9.7630  104.6280  -27.9140 C.3    40  LYS40       0.0206
     65  CE         9.4810  106.1150  -27.8320 C.3    40  LYS40       0.1093
     66  NZ         7.9960  106.3080  -27.8200 N.3    40  LYS40      -0.1314
     67  N         -0.4440  102.4390  -24.8720 N.3    70  VAL70      -0.1245
     68  CA         0.6730  101.5150  -25.0030 C.3    70  VAL70       0.1561
     69  C          1.3330  101.3430  -23.6610 C.2    70  VAL70       0.2260
     70  O          1.7090  102.3070  -23.0050 O.2    70  VAL70      -0.2867
     71  CB         1.7190  102.0190  -26.0170 C.3    70  VAL70       0.0252
     72  CG1        2.8460  101.0220  -26.1450 C.3    70  VAL70       0.0019
     73  CG2        1.0730  102.2620  -27.3610 C.3    70  VAL70       0.0019
     74  N          8.5690   98.1720  -24.3680 N.3    86  MET86      -0.1230
     75  CA         7.1410   98.4270  -24.4150 C.3    86  MET86       0.1702
     76  C          6.3890   97.2970  -25.0960 C.2    86  MET86       0.2592
     77  O          6.9930   96.5160  -25.8320 O.2    86  MET86      -0.2718
     78  CB         6.9260   99.7300  -25.1800 C.3    86  MET86       0.0401
     79  CG         7.6200  100.8900  -24.5090 C.3    86  MET86       0.0596
     80  SD         7.1890  102.4790  -25.1550 S.3    86  MET86      -0.1393
     81  CE         5.5340  102.6240  -24.4810 C.3    86  MET86       0.0692
     82  N          5.0880   97.1830  -24.8290 N.am   87  GLU87      -0.1966
     83  CA         4.2810   96.1720  -25.5090 C.3    87  GLU87       0.1733
     84  C          4.3620   96.3710  -27.0170 C.2    87  GLU87       0.2616
     85  O          4.3210   97.5010  -27.5070 O.2    87  GLU87      -0.2715
     86  CB         2.7920   96.1530  -25.1070 C.3    87  GLU87       0.0429
     87  CG         1.9360   97.2540  -25.7130 C.3    87  GLU87       0.1163
     88  CD         0.4710   97.1750  -25.3130 C.2    87  GLU87       0.3649
     89  OE1       -0.1970   96.2100  -25.7550 O.co2  87  GLU87      -0.2457
     90  OE2       -0.0170   98.0680  -24.5870 O.co2  87  GLU87      -0.2457
     91  N          4.5480   95.2840  -27.7510 N.am   88  LEU88      -0.1963
     92  CA         4.6100   95.3870  -29.1950 C.3    88  LEU88       0.1728
     93  C          3.1620   95.2850  -29.7020 C.2    88  LEU88       0.2616
     94  O          2.4120   94.3900  -29.3090 O.2    88  LEU88      -0.2715
     95  CB         5.4890   94.2990  -29.7980 C.3    88  LEU88       0.0311
     96  CG         5.4930   94.2620  -31.3230 C.3    88  LEU88       0.0022
     97  CD1        6.1820   95.4950  -31.8620 C.3    88  LEU88       0.0001
     98  CD2        6.1570   93.0050  -31.8390 C.3    88  LEU88       0.0001
     99  N          2.7870   96.2110  -30.5830 N.am   89  VAL89      -0.1963
    100  CA         1.4640   96.2300  -31.2110 C.3    89  VAL89       0.1727
    101  C          1.6840   95.9200  -32.6870 C.2    89  VAL89       0.2616
    102  O          2.1570   96.7600  -33.4580 O.2    89  VAL89      -0.2715
    103  CB         0.7290   97.5930  -31.0300 C.3    89  VAL89       0.0290
    104  CG1       -0.6820   97.5120  -31.5740 C.3    89  VAL89       0.0023
    105  CG2        0.6950   98.0070  -29.5630 C.3    89  VAL89       0.0023
    106  N          1.3480   94.6860  -33.0540 N.am   90  LYS90      -0.1977
    107  CA         1.6160   94.1300  -34.3810 C.3    90  LYS90       0.1596
    108  C          0.9120   94.8070  -35.5640 C.2    90  LYS90       0.2287
    109  O          1.4250   94.7620  -36.6820 O.2    90  LYS90      -0.2864
    110  CB         1.2510   92.6390  -34.3830 C.3    90  LYS90       0.0298
    111  CG         2.1470   91.7310  -33.5390 C.3    90  LYS90       0.0038
    112  CD         3.3400   91.2020  -34.3350 C.3    90  LYS90       0.0206
    113  CE         3.9210   89.9300  -33.7050 C.3    90  LYS90       0.1093
    114  NZ         2.9360   88.8030  -33.6430 N.3    90  LYS90      -0.1314
    115  N          0.8150   97.7740  -36.4660 N.3    92  GLY92      -0.1210
    116  CA         1.4970   98.9640  -36.9430 C.3    92  GLY92       0.1956
    117  C          0.8060  100.2370  -36.5030 C.2    92  GLY92       0.2611
    118  O         -0.0370  100.2200  -35.6020 O.2    92  GLY92      -0.2717
    119  N          1.1130  101.3440  -37.1680 N.am   93  ASP93      -0.1973
    120  CA         0.5280  102.6050  -36.7490 C.3    93  ASP93       0.1709
    121  C         -0.6160  103.0670  -37.6700 C.2    93  ASP93       0.2293
    122  O         -0.8210  102.5370  -38.7770 O.2    93  ASP93      -0.2864
    123  CB         1.6030  103.6870  -36.6560 C.3    93  ASP93       0.1436
    124  CG         2.1900  104.0490  -38.0000 C.2    93  ASP93       0.3671
    125  OD1        1.8590  103.3870  -39.0050 O.co2  93  ASP93      -0.2456
    126  OD2        2.9960  105.0020  -38.0540 O.co2  93  ASP93      -0.2456
    127  N          0.1780  104.5220  -41.2850 N.3    96  ASP96      -0.1239
    128  CA         0.2420  103.5560  -42.3760 C.3    96  ASP96       0.1674
    129  C         -1.1480  103.0780  -42.7030 C.2    96  ASP96       0.2266
    130  O         -1.4400  102.7770  -43.8520 O.2    96  ASP96      -0.2867
    131  CB         1.1260  102.3620  -42.0280 C.3    96  ASP96       0.1410
    132  CG         2.6030  102.7110  -41.9950 C.2    96  ASP96       0.3668
    133  OD1        3.0240  103.6390  -42.7160 O.co2  96  ASP96      -0.2456
    134  OD2        3.3440  102.0620  -41.2240 O.co2  96  ASP96      -0.2456
    135  N          0.4450  108.9340  -36.4790 N.3   136  GLU136     -0.1231
    136  CA         1.7070  108.2290  -36.2940 C.3   136  GLU136      0.1699
    137  C          1.9820  107.8350  -34.8580 C.2   136  GLU136      0.2592
    138  O          2.8060  106.9500  -34.6100 O.2   136  GLU136     -0.2718
    139  CB         2.8620  109.0780  -36.8040 C.3   136  GLU136      0.0402
    140  CG         2.6420  110.5620  -36.6080 C.3   136  GLU136      0.1161
    141  CD         3.6510  111.4090  -37.3650 C.2   136  GLU136      0.3649
    142  OE1        3.2170  112.3090  -38.1290 O.co2 136  GLU136     -0.2457
    143  OE2        4.8740  111.1820  -37.1710 O.co2 136  GLU136     -0.2457
    144  N          1.2960  108.4860  -33.9190 N.am  137  ASN137     -0.1974
    145  CA         1.4460  108.1910  -32.4990 C.3   137  ASN137      0.1688
    146  C          0.3000  107.3170  -31.9980 C.2   137  ASN137      0.2292
    147  O          0.1120  107.1310  -30.8040 O.2   137  ASN137     -0.2864
    148  CB         1.4780  109.4860  -31.6990 C.3   137  ASN137      0.1181
    149  CG         2.7160  110.2940  -31.9570 C.2   137  ASN137      0.2629
    150  OD1        3.7480  109.7700  -32.3770 O.2   137  ASN137     -0.2716
    151  ND2        2.6280  111.5870  -31.6980 N.am  137  ASN137     -0.0877
    152  N         -1.3390  103.4330  -32.3550 N.3   139  LEU139     -0.1245
    153  CA        -1.0490  102.1000  -32.8530 C.3   139  LEU139      0.1561
    154  C         -2.3130  101.2830  -33.0320 C.2   139  LEU139      0.2260
    155  O         -3.2520  101.4100  -32.2590 O.2   139  LEU139     -0.2867
    156  CB        -0.0890  101.3750  -31.9100 C.3   139  LEU139      0.0270
    157  CG         1.2160  102.0940  -31.5790 C.3   139  LEU139      0.0019
    158  CD1        2.0540  101.2600  -30.6690 C.3   139  LEU139      0.0001
    159  CD2        1.9770  102.2900  -32.8640 C.3   139  LEU139      0.0001
    160  N          0.3470  106.1290  -28.1850 N.3   153  GLY153     -0.1210
    161  CA         1.7230  106.0130  -27.7230 C.3   153  GLY153      0.1956
    162  C          2.5040  107.3210  -27.7350 C.2   153  GLY153      0.2611
    163  O          1.9210  108.4010  -27.8560 O.2   153  GLY153     -0.2717
    164  N          3.8260  107.2200  -27.6060 N.am  154  ASP154     -0.1973
    165  CA         4.7330  108.3740  -27.6830 C.3   154  ASP154      0.1709
    166  C          4.2970  109.5720  -26.8170 C.2   154  ASP154      0.2293
    167  O          3.6080  110.4690  -27.3040 O.2   154  ASP154     -0.2864
    168  CB         4.9690  108.8330  -29.1040 C.3   154  ASP154      0.1436
    169  CG         6.1230  109.8090  -29.1790 C.2   154  ASP154      0.3671
    170  OD1        5.9290  111.0050  -28.8460 O.co2 154  ASP154     -0.2456
    171  OD2        7.2440  109.3610  -29.5040 O.co2 154  ASP154     -0.2456
@<TRIPOS>BOND
     1   130   129    2
     2   133   132   ar
     3   129   128    1
     4   128   131    1
     5   128   127    1
     6   131   132    1
     7   132   134   ar
     8    10     9    1
     9     9    11    1
    10     9     8    2
    11   125   124   ar
    12   122   121    2
    13     7     8    1
    14     7     6    1
    15    31    29   ar
    16   142   141   ar
    17   126   124   ar
    18    28    29    1
    19    28    25    1
    20   124   123    1
    21    27    26    2
    22     5     6    1
    23     5     2    1
    24    15    14    2
    25    29    30   ar
    26   121   120    1
    27   141   143   ar
    28   141   140    1
    29    14    13    1
    30    14    20   am
    31    24    25    1
    32    24    22   am
    33   119   120    1
    34   119   117   am
    35    26    25    1
    36    13    12    1
    37    13    16    1
    38    21    20    1
    39    21    22    1
    40   116   117    1
    41   116   115    1
    42   139   140    1
    43   139   136    1
    44   120   123    1
    45     2     3    1
    46     2     1    1
    47    22    23    2
    48   109   108    2
    49   117   118    2
    50   135   136    1
    51    18    16    1
    52   136   137    1
    53     3     4    2
    54    16    17    1
    55    51    50   ar
    56   108   107    1
    57    52    50   ar
    58    50    49    1
    59   137   138    2
    60   137   144   am
    61    17    19    1
    62   110   107    1
    63   110   111    1
    64   107   106    1
    65   112   113    1
    66   112   111    1
    67    40    39    2
    68    49    48    1
    69   144   145    1
    70   113   114    1
    71    35    34    2
    72    48    45    1
    73   102   101    2
    74   106   101   am
    75   154   153    1
    76   154   155    2
    77    39    38    1
    78    37    38    1
    79    44    45    1
    80   159   157    1
    81   153   152    1
    82   153   156    1
    83   101   100    1
    84   145   146    1
    85   145   148    1
    86    41    38    1
    87    41    42    1
    88    41    43    1
    89   150   149    2
    90    45    46    1
    91    34    33    1
    92   146   147    2
    93   149   148    1
    94   149   151   am
    95   156   157    1
    96    32    33    1
    97    97    96    1
    98    98    96    1
    99    47    46    2
   100   157   158    1
   101   104   103    1
   102    96    95    1
   103    33    36    1
   104   100   103    1
   105   100    99    1
   106   103   105    1
   107    99    93   am
   108    95    92    1
   109    93    94    2
   110    93    92    1
   111   171   169   ar
   112    92    91    1
   113    57    54    1
   114   169   168    1
   115   169   170   ar
   116   168   165    1
   117    54    53    1
   118    54    55    1
   119   160   161    1
   120    59    62    1
   121    59    58    1
   122    59    60    1
   123    63    64    1
   124    63    62    1
   125    64    65    1
   126    55    56    2
   127   163   162    2
   128    65    66    1
   129    91    84   am
   130   162   161    1
   131   162   164   am
   132   165   164    1
   133   165   166    1
   134    85    84    2
   135    60    61    2
   136    73    71    1
   137   167   166    2
   138    84    83    1
   139    72    71    1
   140    71    68    1
   141    77    76    2
   142    89    88   ar
   143    87    88    1
   144    87    86    1
   145    83    86    1
   146    83    82    1
   147    88    90   ar
   148    78    79    1
   149    78    75    1
   150    80    79    1
   151    80    81    1
   152    76    82   am
   153    76    75    1
   154    68    67    1
   155    68    69    1
   156    75    74    1
   157    69    70    2
