@<TRIPOS>MOLECULE
tmp/5jzsB00.pdb
 126 121 0 0 0
SMALL
GASTEIGER

@<TRIPOS>ATOM
      1  N        -20.3910  -18.5220  -40.2860 N.3    38  GLY38      -0.1210
      2  CA       -20.3300  -18.0800  -38.8980 C.3    38  GLY38       0.1956
      3  C        -21.6920  -17.6480  -38.3800 C.2    38  GLY38       0.2612
      4  O        -22.6430  -17.4610  -39.1500 O.2    38  GLY38      -0.2717
      5  N        -21.8000  -17.4450  -37.0740 N.am   39  GLY39      -0.1942
      6  CA       -23.1160  -17.3510  -36.4780 C.3    39  GLY39       0.2014
      7  C        -23.5370  -16.0640  -35.7990 C.2    39  GLY39       0.2639
      8  O        -24.1550  -16.1160  -34.7290 O.2    39  GLY39      -0.2714
      9  N        -23.2460  -14.9060  -36.3830 N.am   40  GLY40      -0.1954
     10  CA       -23.8300  -13.7050  -35.7990 C.3    40  GLY40       0.1869
     11  C        -25.3290  -13.6230  -36.0810 C.2    40  GLY40       0.2309
     12  O        -25.8670  -14.3840  -36.8850 O.2    40  GLY40      -0.2863
     13  N        -30.6850  -19.8340  -39.7420 N.3    70  TYR70      -0.1241
     14  CA       -29.9960  -18.7420  -40.4240 C.3    70  TYR70       0.1605
     15  C        -30.3950  -18.6560  -41.8740 C.2    70  TYR70       0.2264
     16  O        -30.7590  -19.6670  -42.4790 O.2    70  TYR70      -0.2867
     17  CB       -28.4650  -18.9240  -40.3040 C.3    70  TYR70       0.0534
     18  CG       -27.9310  -18.8140  -38.8840 C.ar   70  TYR70      -0.0201
     19  CD1      -27.9500  -19.9060  -38.0260 C.ar   70  TYR70      -0.0009
     20  CD2      -27.3940  -17.6190  -38.4090 C.ar   70  TYR70      -0.0009
     21  CE1      -27.4680  -19.8150  -36.7270 C.ar   70  TYR70       0.0417
     22  CE2      -26.9070  -17.5180  -37.1090 C.ar   70  TYR70       0.0417
     23  CZ       -26.9470  -18.6280  -36.2780 C.ar   70  TYR70       0.1957
     24  OH       -26.4710  -18.5560  -34.9900 O.3    70  TYR70      -0.2866
     25  N        -16.2470  -20.0650  -37.2760 N.3   108  SER108     -0.1202
     26  CA       -16.9320  -19.8280  -36.0150 C.3   108  SER108      0.2020
     27  C        -17.9160  -20.9570  -35.6670 C.2   108  SER108      0.2618
     28  O        -17.5270  -22.1080  -35.5200 O.2   108  SER108     -0.2717
     29  CB       -17.6000  -18.4520  -36.0180 C.3   108  SER108      0.2103
     30  OG       -17.9090  -18.0520  -34.7000 O.3   108  SER108     -0.2182
     31  N        -19.1880  -20.6130  -35.5340 N.am  109  LEU109     -0.1979
     32  CA       -20.2230  -21.5520  -35.1540 C.3   109  LEU109      0.1596
     33  C        -20.2660  -22.6760  -36.1760 C.2   109  LEU109      0.2287
     34  O        -20.4720  -23.8340  -35.8300 O.2   109  LEU109     -0.2864
     35  CB       -21.5650  -20.8320  -35.1040 C.3   109  LEU109      0.0297
     36  CG       -22.8350  -21.6600  -34.9580 C.3   109  LEU109      0.0022
     37  CD1      -22.9350  -22.2210  -33.5490 C.3   109  LEU109      0.0001
     38  CD2      -24.0420  -20.7990  -35.2820 C.3   109  LEU109      0.0001
     39  N        -16.8260  -10.6170  -26.9010 N.3   148  GLY148     -0.1210
     40  CA       -17.6650  -10.8140  -28.0650 C.3   148  GLY148      0.1956
     41  C        -18.9550  -11.5340  -27.7350 C.2   148  GLY148      0.2611
     42  O        -20.0160  -11.1700  -28.2220 O.2   148  GLY148     -0.2717
     43  N        -18.8600  -12.5590  -26.8990 N.am  149  VAL149     -0.1979
     44  CA       -20.0310  -13.3190  -26.4790 C.3   149  VAL149      0.1595
     45  C        -20.9970  -12.4550  -25.6780 C.2   149  VAL149      0.2287
     46  O        -22.2010  -12.5640  -25.8280 O.2   149  VAL149     -0.2864
     47  CB       -19.6480  -14.5900  -25.7000 C.3   149  VAL149      0.0276
     48  CG1      -20.8800  -15.2530  -25.1140 C.3   149  VAL149      0.0022
     49  CG2      -18.9220  -15.5600  -26.6130 C.3   149  VAL149      0.0022
     50  N        -23.1010  -10.2360  -27.9500 N.3   152  LEU152     -0.1245
     51  CA       -24.1440  -11.0060  -28.5990 C.3   152  LEU152      0.1561
     52  C        -25.3040  -11.1930  -27.6350 C.2   152  LEU152      0.2260
     53  O        -26.4610  -11.0620  -28.0120 O.2   152  LEU152     -0.2867
     54  CB       -23.5970  -12.3610  -29.0380 C.3   152  LEU152      0.0270
     55  CG       -24.4440  -13.2130  -29.9790 C.3   152  LEU152      0.0019
     56  CD1      -25.2460  -12.3510  -30.9360 C.3   152  LEU152      0.0001
     57  CD2      -23.5530  -14.1690  -30.7470 C.3   152  LEU152      0.0001
     58  N        -21.8500   -5.1620  -31.5610 N.3   167  PHE167     -0.1241
     59  CA       -21.4230   -6.5590  -31.6950 C.3   167  PHE167      0.1605
     60  C        -20.5210   -6.7880  -32.9090 C.2   167  PHE167      0.2264
     61  O        -19.5060   -7.4770  -32.8230 O.2   167  PHE167     -0.2867
     62  CB       -22.6250   -7.4960  -31.7770 C.3   167  PHE167      0.0534
     63  CG       -22.2790   -8.8780  -32.2350 C.ar  167  PHE167     -0.0203
     64  CD1      -21.7510   -9.8070  -31.3420 C.ar  167  PHE167     -0.0042
     65  CD2      -22.4940   -9.2560  -33.5480 C.ar  167  PHE167     -0.0042
     66  CE1      -21.4430  -11.0960  -31.7520 C.ar  167  PHE167     -0.0003
     67  CE2      -22.1820  -10.5380  -33.9740 C.ar  167  PHE167     -0.0003
     68  CZ       -21.6590  -11.4660  -33.0730 C.ar  167  PHE167     -0.0000
     69  N        -16.2140   -7.7980  -33.8370 N.3   171  MET171     -0.1245
     70  CA       -15.9450   -8.8950  -34.7700 C.3   171  MET171      0.1570
     71  C        -14.6730   -8.6910  -35.6070 C.2   171  MET171      0.2261
     72  O        -14.1070   -9.6560  -36.1360 O.2   171  MET171     -0.2867
     73  CB       -17.1000   -9.0730  -35.7540 C.3   171  MET171      0.0387
     74  CG       -18.3640   -9.5910  -35.1820 C.3   171  MET171      0.0595
     75  SD       -18.1000  -11.1730  -34.3830 S.3   171  MET171     -0.1393
     76  CE       -18.3300  -10.5780  -32.7050 C.3   171  MET171      0.0692
     77  N        -31.3670  -20.8130  -29.7260 N.3   202  MET202     -0.1245
     78  CA       -29.9510  -21.0850  -29.5140 C.3   202  MET202      0.1570
     79  C        -29.5670  -20.9610  -28.0530 C.2   202  MET202      0.2261
     80  O        -28.8570  -21.8090  -27.5170 O.2   202  MET202     -0.2867
     81  CB       -29.1230  -20.0540  -30.2670 C.3   202  MET202      0.0387
     82  CG       -27.6550  -20.3610  -30.2100 C.3   202  MET202      0.0595
     83  SD       -27.2980  -21.6500  -31.4070 S.3   202  MET202     -0.1393
     84  CE       -27.4960  -20.7010  -32.9340 C.3   202  MET202      0.0692
     85  N        -28.4280  -24.0810  -24.7310 N.3   206  PHE206     -0.1241
     86  CA       -27.2760  -24.1730  -23.8210 C.3   206  PHE206      0.1605
     87  C        -27.6280  -24.8170  -22.4560 C.2   206  PHE206      0.2264
     88  O        -26.7900  -25.4410  -21.8080 O.2   206  PHE206     -0.2867
     89  CB       -26.6560  -22.7860  -23.6380 C.3   206  PHE206      0.0534
     90  CG       -26.1680  -22.1640  -24.9280 C.ar  206  PHE206     -0.0203
     91  CD1      -25.6760  -22.9590  -25.9700 C.ar  206  PHE206     -0.0042
     92  CD2      -26.2010  -20.7770  -25.1000 C.ar  206  PHE206     -0.0042
     93  CE1      -25.2150  -22.3790  -27.1680 C.ar  206  PHE206     -0.0003
     94  CE2      -25.7480  -20.1810  -26.2900 C.ar  206  PHE206     -0.0003
     95  CZ       -25.2550  -20.9840  -27.3300 C.ar  206  PHE206     -0.0000
     96  N        -13.9610  -12.9110  -29.8060 N.3   237  VAL237     -0.1245
     97  CA       -15.0770  -13.8350  -29.5740 C.3   237  VAL237      0.1561
     98  C        -14.5770  -15.1850  -29.0980 C.2   237  VAL237      0.2260
     99  O        -14.9570  -15.6710  -28.0270 O.2   237  VAL237     -0.2867
    100  CB       -15.8680  -14.0530  -30.8570 C.3   237  VAL237      0.0252
    101  CG1      -17.0320  -15.0160  -30.6330 C.3   237  VAL237      0.0019
    102  CG2      -16.3480  -12.7530  -31.3530 C.3   237  VAL237      0.0019
    103  N        -12.1560  -11.7830  -35.5290 N.3   263  HIS263     -0.1226
    104  CA       -12.9680  -12.9820  -35.6790 C.3   263  HIS263      0.1752
    105  C        -13.3210  -13.3410  -37.1260 C.2   263  HIS263      0.2596
    106  O        -13.5130  -14.5130  -37.4370 O.2   263  HIS263     -0.2718
    107  CB       -14.2620  -12.8090  -34.8900 C.3   263  HIS263      0.0759
    108  CG       -14.9670  -14.1010  -34.6160 C.ar  263  HIS263      0.0818
    109  ND1      -14.3100  -15.2060  -34.1250 N.ar  263  HIS263     -0.2268
    110  CD2      -16.2640  -14.4540  -34.7460 C.ar  263  HIS263      0.1154
    111  CE1      -15.1770  -16.1920  -33.9700 C.ar  263  HIS263      0.1986
    112  NE2      -16.3700  -15.7630  -34.3370 N.ar  263  HIS263     -0.2212
    113  N        -13.4450  -12.3320  -37.9900 N.am  264  TRP264     -0.1976
    114  CA       -13.8630  -12.5420  -39.3890 C.3   264  TRP264      0.1640
    115  C        -12.6570  -12.6730  -40.3180 C.2   264  TRP264      0.2290
    116  O        -12.3340  -11.7590  -41.0860 O.2   264  TRP264     -0.2864
    117  CB       -14.7830  -11.4110  -39.8850 C.3   264  TRP264      0.0576
    118  CG       -16.1680  -11.4120  -39.2890 C.ar  264  TRP264      0.0006
    119  CD1      -16.7000  -12.3430  -38.4310 C.ar  264  TRP264      0.0946
    120  CD2      -17.1950  -10.4210  -39.4910 C.ar  264  TRP264      0.0152
    121  NE1      -17.9920  -11.9890  -38.0890 N.ar  264  TRP264     -0.2442
    122  CE2      -18.3180  -10.8170  -38.7250 C.ar  264  TRP264      0.0810
    123  CE3      -17.2730   -9.2380  -40.2440 C.ar  264  TRP264      0.0012
    124  CZ2      -19.5010  -10.0810  -38.7020 C.ar  264  TRP264      0.0191
    125  CZ3      -18.4420   -8.5090  -40.2190 C.ar  264  TRP264      0.0001
    126  CH2      -19.5430   -8.9320  -39.4530 C.ar  264  TRP264      0.0015
@<TRIPOS>BOND
     1    16    15    2
     2    15    14    1
     3   116   115    2
     4    14    17    1
     5    14    13    1
     6   115   114    1
     7    17    18    1
     8     1     2    1
     9   123   125   ar
    10   123   120   ar
    11   125   126   ar
    12   117   114    1
    13   117   118    1
    14   120   118   ar
    15   120   122   ar
    16   126   124   ar
    17   114   113    1
    18   118   119   ar
    19     4     3    2
    20     2     3    1
    21    18    20   ar
    22    18    19   ar
    23   122   124   ar
    24   122   121   ar
    25   119   121   ar
    26    20    22   ar
    27     3     5   am
    28    19    21   ar
    29   113   105   am
    30   106   105    2
    31    25    26    1
    32   105   104    1
    33    22    23   ar
    34     5     6    1
    35    12    11    2
    36    21    23   ar
    37     6     7    1
    38     9     7   am
    39     9    10    1
    40    23    24    1
    41    33    34    2
    42    33    32    1
    43    72    71    2
    44    11    10    1
    45    29    26    1
    46    29    30    1
    47    26    27    1
    48     7     8    2
    49    73    74    1
    50    73    70    1
    51   104   103    1
    52   104   107    1
    53    27    31   am
    54    27    28    2
    55    71    70    1
    56    31    32    1
    57    38    36    1
    58    74    75    1
    59    32    35    1
    60    35    36    1
    61    36    37    1
    62   107   108    1
    63    70    69    1
    64   110   108   ar
    65   110   112   ar
    66   108   109   ar
    67    75    76    1
    68   112   111   ar
    69   109   111   ar
    70    67    65   ar
    71    67    68   ar
    72    65    63   ar
    73    68    66   ar
    74    84    83    1
    75    60    61    2
    76    60    59    1
    77    63    62    1
    78    63    64   ar
    79    62    59    1
    80    66    64   ar
    81    59    58    1
    82    83    82    1
    83   102   100    1
    84    56    55    1
    85   100   101    1
    86   100    97    1
    87    57    55    1
    88    81    82    1
    89    81    78    1
    90    55    54    1
    91    96    97    1
    92    77    78    1
    93    97    98    1
    94    78    79    1
    95    98    99    2
    96    54    51    1
    97    51    50    1
    98    51    52    1
    99    42    41    2
   100    40    41    1
   101    40    39    1
   102    79    80    2
   103    53    52    2
   104    41    43   am
   105    95    93   ar
   106    95    94   ar
   107    93    91   ar
   108    43    44    1
   109    49    47    1
   110    44    47    1
   111    44    45    1
   112    94    92   ar
   113    91    90   ar
   114    46    45    2
   115    47    48    1
   116    92    90   ar
   117    90    89    1
   118    85    86    1
   119    86    89    1
   120    86    87    1
   121    87    88    2
