@<TRIPOS>MOLECULE
tmp/5k01A00.pdb
 108 106 0 0 0
SMALL
GASTEIGER

@<TRIPOS>ATOM
      1  N         11.2020   17.3590   18.5850 N.3    63  LEU63      -0.1231
      2  CA        12.6330   17.1680   18.7560 C.3    63  LEU63       0.1693
      3  C         12.9880   15.7610   18.2940 C.2    63  LEU63       0.2592
      4  O         12.6960   14.7730   18.9820 O.2    63  LEU63      -0.2718
      5  CB        13.0500   17.3890   20.2070 C.3    63  LEU63       0.0284
      6  CG        12.6130   18.7300   20.7970 C.3    63  LEU63       0.0019
      7  CD1       12.9820   18.8110   22.2840 C.3    63  LEU63       0.0001
      8  CD2       13.2050   19.8910   20.0160 C.3    63  LEU63       0.0001
      9  N         13.6590   15.6980   17.1430 N.am   64  GLY64      -0.1957
     10  CA        14.0800   14.4400   16.5450 C.3    64  GLY64       0.1869
     11  C         13.1470   14.0250   15.4170 C.2    64  GLY64       0.2309
     12  O         11.9580   13.8120   15.6600 O.2    64  GLY64      -0.2863
     13  N         14.1730   11.7580   12.4770 N.3    66  TYR66      -0.1241
     14  CA        14.4840   10.4250   11.9280 C.3    66  TYR66       0.1605
     15  C         14.0400   10.3080   10.4560 C.2    66  TYR66       0.2264
     16  O         14.5170   11.0880    9.6470 O.2    66  TYR66      -0.2867
     17  CB        13.8990    9.3470   12.8350 C.3    66  TYR66       0.0534
     18  CG        14.3440    9.5230   14.2680 C.ar   66  TYR66      -0.0201
     19  CD1       15.6010    9.0940   14.6720 C.ar   66  TYR66      -0.0009
     20  CD2       13.5280   10.1520   15.2030 C.ar   66  TYR66      -0.0009
     21  CE1       16.0340    9.2630   15.9790 C.ar   66  TYR66       0.0417
     22  CE2       13.9550   10.3330   16.5250 C.ar   66  TYR66       0.0417
     23  CZ        15.2060    9.8840   16.8960 C.ar   66  TYR66       0.1957
     24  OH        15.6770   10.0320   18.1840 O.3    66  TYR66      -0.2866
     25  N         13.0130   19.5890   14.6410 N.3    87  MET87      -0.1230
     26  CA        14.4570   19.7440   14.7630 C.3    87  MET87       0.1702
     27  C         15.1330   18.3830   14.5460 C.2    87  MET87       0.2592
     28  O         14.6960   17.3700   15.1060 O.2    87  MET87      -0.2718
     29  CB        14.8190   20.2800   16.1280 C.3    87  MET87       0.0401
     30  CG        14.3250   21.6830   16.3760 C.3    87  MET87       0.0596
     31  SD        14.7530   22.3220   18.0080 S.3    87  MET87      -0.1393
     32  CE        14.0910   23.9730   17.9420 C.3    87  MET87       0.0692
     33  N         16.1940   18.3670   13.7380 N.am   88  GLU88      -0.1966
     34  CA        16.8930   17.1380   13.3980 C.3    88  GLU88       0.1733
     35  C         18.3790   17.4350   13.3050 C.2    88  GLU88       0.2616
     36  O         18.7980   18.3070   12.5350 O.2    88  GLU88      -0.2715
     37  CB        16.3500   16.5760   12.0710 C.3    88  GLU88       0.0429
     38  CG        17.0900   15.3690   11.5140 C.3    88  GLU88       0.1163
     39  CD        17.2930   14.2520   12.5280 C.2    88  GLU88       0.3649
     40  OE1       16.2890   13.7660   13.1020 O.co2  88  GLU88      -0.2457
     41  OE2       18.4630   13.8670   12.7630 O.co2  88  GLU88      -0.2457
     42  N         19.1790   16.7080   14.0830 N.am   89  ILE89      -0.1977
     43  CA        20.6300   16.9350   14.1410 C.3    89  ILE89       0.1596
     44  C         21.4180   16.3900   12.9320 C.2    89  ILE89       0.2287
     45  O         22.4860   16.9210   12.5940 O.2    89  ILE89      -0.2864
     46  CB        21.2170   16.3800   15.4730 C.3    89  ILE89       0.0276
     47  CG1       22.5580   17.0390   15.7720 C.3    89  ILE89       0.0022
     48  CG2       21.3050   14.8470   15.4560 C.3    89  ILE89       0.0022
     49  CD1       23.0440   16.8260   17.1900 C.3    89  ILE89       0.0001
     50  N         19.8950   21.0310   13.0210 N.3   115  GLY115     -0.1210
     51  CA        20.8950   21.2940   14.0270 C.3   115  GLY115      0.1956
     52  C         20.5040   20.6250   15.3260 C.2   115  GLY115      0.2612
     53  O         19.5520   19.8360   15.3910 O.2   115  GLY115     -0.2717
     54  N         21.2420   20.9530   16.3800 N.am  116  ALA116     -0.1965
     55  CA        21.0050   20.3800   17.6880 C.3   116  ALA116      0.1728
     56  C         20.0130   21.2610   18.4380 C.2   116  ALA116      0.2617
     57  O         20.0420   22.4900   18.3160 O.2   116  ALA116     -0.2715
     58  CB        22.3120   20.3280   18.4520 C.3   116  ALA116      0.0334
     59  N         19.1980   20.6370   19.2800 N.am  117  SER117     -0.1936
     60  CA        18.1790   21.3740   20.0220 C.3   117  SER117      0.2055
     61  C         18.7780   22.4600   20.9110 C.2   117  SER117      0.2642
     62  O         18.1810   23.5160   21.0580 O.2   117  SER117     -0.2714
     63  CB        17.3460   20.4130   20.8620 C.3   117  SER117      0.2130
     64  OG        18.2030   19.6800   21.7000 O.3   117  SER117     -0.2179
     65  N         19.9580   22.2220   21.4870 N.am  118  GLN118     -0.1976
     66  CA        20.5730   23.2300   22.3680 C.3   118  GLN118      0.1601
     67  C         20.8650   24.5140   21.6080 C.2   118  GLN118      0.2287
     68  O         20.8090   25.6010   22.1840 O.2   118  GLN118     -0.2864
     69  CB        21.8390   22.7120   23.0950 C.3   118  GLN118      0.0394
     70  CG        22.9830   22.2790   22.2030 C.3   118  GLN118      0.0908
     71  CD        22.9960   20.8010   21.8930 C.2   118  GLN118      0.2608
     72  OE1       21.9690   20.1220   21.8930 O.2   118  GLN118     -0.2717
     73  NE2       24.1710   20.2960   21.6150 N.am  118  GLN118     -0.0878
     74  N         14.3030   12.8770   20.9760 N.3   140  HIS140     -0.1226
     75  CA        15.6610   13.0450   20.5040 C.3   140  HIS140      0.1752
     76  C         16.5920   12.2860   21.4680 C.2   140  HIS140      0.2596
     77  O         16.3330   11.1330   21.7890 O.2   140  HIS140     -0.2718
     78  CB        15.9730   14.5420   20.2860 C.3   140  HIS140      0.0759
     79  CG        15.8570   15.4010   21.5000 C.ar  140  HIS140      0.0818
     80  ND1       14.9200   15.1970   22.4910 N.ar  140  HIS140     -0.2268
     81  CD2       16.5400   16.5190   21.8590 C.ar  140  HIS140      0.1154
     82  CE1       15.0480   16.1270   23.4160 C.ar  140  HIS140      0.1986
     83  NE2       16.0320   16.9420   23.0600 N.ar  140  HIS140     -0.2212
     84  N         17.6720   12.8920   21.9200 N.am  141  TRP141     -0.1976
     85  CA        18.6170   12.2040   22.7950 C.3   141  TRP141      0.1640
     86  C         18.1620   12.2360   24.2520 C.2   141  TRP141      0.2290
     87  O         17.8500   13.2990   24.7960 O.2   141  TRP141     -0.2864
     88  CB        19.9970   12.8370   22.6310 C.3   141  TRP141      0.0576
     89  CG        21.0720   12.1840   23.4080 C.ar  141  TRP141      0.0006
     90  CD1       21.8200   12.7520   24.3870 C.ar  141  TRP141      0.0946
     91  CD2       21.5350   10.8350   23.2720 C.ar  141  TRP141      0.0152
     92  NE1       22.7240   11.8460   24.8730 N.ar  141  TRP141     -0.2442
     93  CE2       22.5710   10.6590   24.2070 C.ar  141  TRP141      0.0810
     94  CE3       21.1780    9.7630   22.4460 C.ar  141  TRP141      0.0012
     95  CZ2       23.2550    9.4510   24.3480 C.ar  141  TRP141      0.0191
     96  CZ3       21.8600    8.5610   22.5880 C.ar  141  TRP141      0.0001
     97  CH2       22.8840    8.4160   23.5300 C.ar  141  TRP141      0.0015
     98  N         19.1650   14.9190   26.7970 N.3   144  ARG144     -0.1245
     99  CA        18.6840   16.2820   26.6410 C.3   144  ARG144      0.1563
    100  C         17.2300   16.4880   27.0090 C.2   144  ARG144      0.2260
    101  O         16.7770   17.6130   26.9160 O.2   144  ARG144     -0.2867
    102  CB        18.9360   16.8200   25.2380 C.3   144  ARG144      0.0307
    103  CG        20.4120   17.1810   25.0230 C.3   144  ARG144      0.0489
    104  CD        20.5870   18.4020   24.1810 C.3   144  ARG144      0.2205
    105  NE        20.0440   19.6050   24.7900 N.pl3 144  ARG144     -0.0865
    106  CZ        20.6970   20.4150   25.6250 C.cat 144  ARG144      0.5346
    107  NH1       21.9360   20.1460   26.0010 N.pl3 144  ARG144      0.1354
    108  NH2       20.0900   21.5070   26.1120 N.pl3 144  ARG144      0.1354
@<TRIPOS>BOND
     1    16    15    2
     2    15    14    1
     3    38    37    1
     4    38    39    1
     5    14    13    1
     6    14    17    1
     7    37    34    1
     8    39    41   ar
     9    39    40   ar
    10    36    35    2
    11    45    44    2
    12    17    18    1
    13    44    43    1
    14    50    51    1
    15    35    34    1
    16    35    42   am
    17    34    33    1
    18    33    27   am
    19    51    52    1
    20    42    43    1
    21    43    46    1
    22    18    19   ar
    23    18    20   ar
    24    27    26    1
    25    27    28    2
    26    25    26    1
    27    19    21   ar
    28    26    29    1
    29    20    22   ar
    30    52    53    2
    31    52    54   am
    32    11    12    2
    33    11    10    1
    34    48    46    1
    35    46    47    1
    36    47    49    1
    37    21    23   ar
    38    29    30    1
    39    30    31    1
    40    54    55    1
    41    22    23   ar
    42    10     9    1
    43    23    24    1
    44     9     3   am
    45    55    56    1
    46    55    58    1
    47    32    31    1
    48     3     2    1
    49     3     4    2
    50    57    56    2
    51    56    59   am
    52     1     2    1
    53     2     5    1
    54    59    60    1
    55     8     6    1
    56    60    63    1
    57    60    61    1
    58     5     6    1
    59    78    75    1
    60    78    79    1
    61    75    74    1
    62    75    76    1
    63     6     7    1
    64    63    64    1
    65    61    62    2
    66    61    65   am
    67    76    77    2
    68    76    84   am
    69    65    66    1
    70    79    81   ar
    71    79    80   ar
    72    67    68    2
    73    67    66    1
    74    73    71   am
    75    81    83   ar
    76    71    72    2
    77    71    70    1
    78    84    85    1
    79    70    69    1
    80    66    69    1
    81    94    96   ar
    82    94    91   ar
    83    80    82   ar
    84    96    97   ar
    85    88    85    1
    86    88    89    1
    87    85    86    1
    88    83    82   ar
    89    91    89   ar
    90    91    93   ar
    91    89    90   ar
    92    97    95   ar
    93   104   105    1
    94   104   103    1
    95    93    95   ar
    96    93    92   ar
    97    86    87    2
    98    90    92   ar
    99   105   106    2
   100   103   102    1
   101   102    99    1
   102   106   107    1
   103   106   108    1
   104    99    98    1
   105    99   100    1
   106   101   100    2
