@<TRIPOS>MOLECULE
tmp/5k03A00.pdb
 108 106 0 0 0
SMALL
GASTEIGER

@<TRIPOS>ATOM
      1  N         10.9970   17.2420   18.4060 N.3    63  LEU63      -0.1231
      2  CA        12.4330   17.0690   18.5530 C.3    63  LEU63       0.1693
      3  C         12.8330   15.6730   18.0910 C.2    63  LEU63       0.2592
      4  O         12.5540   14.6650   18.7550 O.2    63  LEU63      -0.2718
      5  CB        12.8560   17.3170   19.9950 C.3    63  LEU63       0.0284
      6  CG        12.4310   18.6890   20.5460 C.3    63  LEU63       0.0019
      7  CD1       12.8360   18.8450   22.0000 C.3    63  LEU63       0.0001
      8  CD2       13.0160   19.8150   19.7030 C.3    63  LEU63       0.0001
      9  N         13.4640   15.6270   16.9270 N.am   64  GLY64      -0.1957
     10  CA        13.9240   14.3780   16.3470 C.3    64  GLY64       0.1869
     11  C         12.9770   13.9700   15.2440 C.2    64  GLY64       0.2309
     12  O         11.7960   13.7820   15.4950 O.2    64  GLY64      -0.2863
     13  N         14.0810   11.7450   12.3110 N.3    66  TYR66      -0.1241
     14  CA        14.4750   10.4760   11.7090 C.3    66  TYR66       0.1605
     15  C         13.9910   10.4160   10.2590 C.2    66  TYR66       0.2264
     16  O         14.3250   11.2960    9.4610 O.2    66  TYR66      -0.2867
     17  CB        13.9530    9.3140   12.5580 C.3    66  TYR66       0.0534
     18  CG        14.3520    9.4830   14.0120 C.ar   66  TYR66      -0.0201
     19  CD1       15.5940    9.0520   14.4630 C.ar   66  TYR66      -0.0009
     20  CD2       13.5090   10.1190   14.9250 C.ar   66  TYR66      -0.0009
     21  CE1       15.9770    9.2210   15.7940 C.ar   66  TYR66       0.0417
     22  CE2       13.8840   10.2970   16.2600 C.ar   66  TYR66       0.0417
     23  CZ        15.1230    9.8460   16.6830 C.ar   66  TYR66       0.1957
     24  OH        15.5090   10.0100   17.9990 O.3    66  TYR66      -0.2866
     25  N         12.7540   19.4890   14.4570 N.3    87  MET87      -0.1230
     26  CA        14.1930   19.6660   14.5990 C.3    87  MET87       0.1702
     27  C         14.8810   18.3330   14.3860 C.2    87  MET87       0.2592
     28  O         14.4470   17.3180   14.9290 O.2    87  MET87      -0.2718
     29  CB        14.5390   20.2270   15.9800 C.3    87  MET87       0.0401
     30  CG        13.9830   21.6360   16.1920 C.3    87  MET87       0.0596
     31  SD        14.4340   22.3510   17.7760 S.3    87  MET87      -0.1393
     32  CE        13.7760   24.0110   17.5620 C.3    87  MET87       0.0692
     33  N         15.9550   18.3350   13.6040 N.am   88  GLU88      -0.1966
     34  CA        16.6550   17.0920   13.3060 C.3    88  GLU88       0.1733
     35  C         18.1440   17.3930   13.1910 C.2    88  GLU88       0.2616
     36  O         18.5540   18.2680   12.4390 O.2    88  GLU88      -0.2715
     37  CB        16.1060   16.4570   12.0200 C.3    88  GLU88       0.0429
     38  CG        16.9290   15.2840   11.4790 C.3    88  GLU88       0.1163
     39  CD        17.1350   14.1920   12.5190 C.2    88  GLU88       0.3649
     40  OE1       16.1540   13.8010   13.1910 O.co2  88  GLU88      -0.2457
     41  OE2       18.2850   13.7380   12.6770 O.co2  88  GLU88      -0.2457
     42  N         18.9500   16.6670   13.9490 N.am   89  ILE89      -0.1977
     43  CA        20.3670   16.9800   14.0320 C.3    89  ILE89       0.1596
     44  C         21.1330   16.4630   12.8110 C.2    89  ILE89       0.2287
     45  O         22.1410   17.0450   12.4130 O.2    89  ILE89      -0.2864
     46  CB        20.9790   16.4170   15.3430 C.3    89  ILE89       0.0276
     47  CG1       22.3620   17.0370   15.6100 C.3    89  ILE89       0.0022
     48  CG2       21.0440   14.9040   15.3090 C.3    89  ILE89       0.0022
     49  CD1       22.8070   16.9210   17.0720 C.3    89  ILE89       0.0001
     50  N         19.6120   20.9410   12.8240 N.3   115  GLY115     -0.1210
     51  CA        20.5260   21.3180   13.8800 C.3   115  GLY115      0.1956
     52  C         20.1730   20.6480   15.1940 C.2   115  GLY115      0.2612
     53  O         19.2160   19.8630   15.2920 O.2   115  GLY115     -0.2717
     54  N         20.9650   20.9580   16.2110 N.am  116  ALA116     -0.1965
     55  CA        20.7460   20.4370   17.5470 C.3   116  ALA116      0.1728
     56  C         19.7100   21.3060   18.2470 C.2   116  ALA116      0.2617
     57  O         19.6550   22.5140   18.0240 O.2   116  ALA116     -0.2715
     58  CB        22.0470   20.4030   18.3290 C.3   116  ALA116      0.0334
     59  N         18.8740   20.6890   19.0710 N.am  117  SER117     -0.1936
     60  CA        17.8330   21.4240   19.7780 C.3   117  SER117      0.2055
     61  C         18.4100   22.5460   20.6640 C.2   117  SER117      0.2642
     62  O         17.8400   23.6320   20.7240 O.2   117  SER117     -0.2714
     63  CB        16.9810   20.4710   20.6190 C.3   117  SER117      0.2130
     64  OG        17.8000   19.6760   21.4550 O.3   117  SER117     -0.2179
     65  N         19.5390   22.3050   21.3210 N.am  118  GLN118     -0.1976
     66  CA        20.1030   23.3430   22.1870 C.3   118  GLN118      0.1601
     67  C         20.5110   24.5810   21.3900 C.2   118  GLN118      0.2287
     68  O         20.5560   25.6810   21.9350 O.2   118  GLN118     -0.2864
     69  CB        21.3110   22.8300   22.9830 C.3   118  GLN118      0.0394
     70  CG        22.4960   22.4100   22.1460 C.3   118  GLN118      0.0908
     71  CD        22.5100   20.9160   21.8960 C.2   118  GLN118      0.2608
     72  OE1       21.4670   20.3050   21.6830 O.2   118  GLN118     -0.2717
     73  NE2       23.6930   20.3170   21.9430 N.am  118  GLN118     -0.0878
     74  N         14.1110   12.9000   20.7530 N.3   140  HIS140     -0.1226
     75  CA        15.4650   13.0410   20.2770 C.3   140  HIS140      0.1752
     76  C         16.3680   12.2740   21.2420 C.2   140  HIS140      0.2596
     77  O         16.1150   11.1010   21.5160 O.2   140  HIS140     -0.2718
     78  CB        15.8470   14.5370   20.0970 C.3   140  HIS140      0.0759
     79  CG        15.7160   15.3880   21.3280 C.ar  140  HIS140      0.0818
     80  ND1       14.8280   15.1190   22.3510 N.ar  140  HIS140     -0.2268
     81  CD2       16.3540   16.5370   21.6790 C.ar  140  HIS140      0.1154
     82  CE1       14.9350   16.0520   23.2860 C.ar  140  HIS140      0.1986
     83  NE2       15.8610   16.9200   22.9060 N.ar  140  HIS140     -0.2212
     84  N         17.4150   12.9000   21.7500 N.am  141  TRP141     -0.1976
     85  CA        18.3770   12.2170   22.6090 C.3   141  TRP141      0.1640
     86  C         17.9630   12.2300   24.0740 C.2   141  TRP141      0.2290
     87  O         17.7090   13.2910   24.6340 O.2   141  TRP141     -0.2864
     88  CB        19.7570   12.8580   22.4570 C.3   141  TRP141      0.0576
     89  CG        20.8090   12.2090   23.2890 C.ar  141  TRP141      0.0006
     90  CD1       21.4370   12.7390   24.3770 C.ar  141  TRP141      0.0946
     91  CD2       21.3580   10.9000   23.1060 C.ar  141  TRP141      0.0152
     92  NE1       22.3450   11.8410   24.8820 N.ar  141  TRP141     -0.2442
     93  CE2       22.3140   10.7030   24.1190 C.ar  141  TRP141      0.0810
     94  CE3       21.1330    9.8740   22.1820 C.ar  141  TRP141      0.0012
     95  CZ2       23.0460    9.5230   24.2340 C.ar  141  TRP141      0.0191
     96  CZ3       21.8610    8.7050   22.2990 C.ar  141  TRP141      0.0001
     97  CH2       22.8040    8.5380   23.3160 C.ar  141  TRP141      0.0015
     98  N         18.8840   14.8530   26.5980 N.3   144  ARG144     -0.1245
     99  CA        18.4680   16.2430   26.3830 C.3   144  ARG144      0.1563
    100  C         16.9860   16.4840   26.7070 C.2   144  ARG144      0.2260
    101  O         16.4910   17.6200   26.5900 O.2   144  ARG144     -0.2867
    102  CB        18.7750   16.6840   24.9510 C.3   144  ARG144      0.0307
    103  CG        20.2430   17.0680   24.7680 C.3   144  ARG144      0.0489
    104  CD        20.3930   18.3210   23.9400 C.3   144  ARG144      0.2205
    105  NE        19.8070   19.5220   24.5540 N.pl3 144  ARG144     -0.0865
    106  CZ        20.4530   20.3350   25.3960 C.cat 144  ARG144      0.5346
    107  NH1       21.7050   20.0720   25.7640 N.pl3 144  ARG144      0.1354
    108  NH2       19.8450   21.4170   25.8750 N.pl3 144  ARG144      0.1354
@<TRIPOS>BOND
     1    16    15    2
     2    15    14    1
     3    38    37    1
     4    38    39    1
     5    14    13    1
     6    14    17    1
     7    37    34    1
     8    45    44    2
     9    36    35    2
    10    39    41   ar
    11    39    40   ar
    12    17    18    1
    13    44    43    1
    14    50    51    1
    15    35    34    1
    16    35    42   am
    17    34    33    1
    18    33    27   am
    19    51    52    1
    20    42    43    1
    21    18    19   ar
    22    18    20   ar
    23    43    46    1
    24    27    26    1
    25    27    28    2
    26    25    26    1
    27    19    21   ar
    28    26    29    1
    29    20    22   ar
    30    52    53    2
    31    52    54   am
    32    11    12    2
    33    11    10    1
    34    48    46    1
    35    46    47    1
    36    47    49    1
    37    21    23   ar
    38    29    30    1
    39    30    31    1
    40    54    55    1
    41    22    23   ar
    42    10     9    1
    43    23    24    1
    44     9     3   am
    45    55    56    1
    46    55    58    1
    47    32    31    1
    48    57    56    2
    49     3     2    1
    50     3     4    2
    51    56    59   am
    52     1     2    1
    53     2     5    1
    54    59    60    1
    55     8     6    1
    56    60    63    1
    57    60    61    1
    58     5     6    1
    59    78    75    1
    60    78    79    1
    61    75    74    1
    62    75    76    1
    63     6     7    1
    64    63    64    1
    65    61    62    2
    66    61    65   am
    67    76    77    2
    68    76    84   am
    69    65    66    1
    70    79    81   ar
    71    79    80   ar
    72    67    68    2
    73    67    66    1
    74    81    83   ar
    75    72    71    2
    76    84    85    1
    77    71    73   am
    78    71    70    1
    79    70    69    1
    80    94    96   ar
    81    94    91   ar
    82    66    69    1
    83    96    97   ar
    84    80    82   ar
    85    88    85    1
    86    88    89    1
    87    85    86    1
    88    83    82   ar
    89    91    89   ar
    90    91    93   ar
    91    89    90   ar
    92    97    95   ar
    93   104   105    1
    94   104   103    1
    95    86    87    2
    96    93    95   ar
    97    93    92   ar
    98    90    92   ar
    99   105   106    2
   100   103   102    1
   101   102    99    1
   102   106   107    1
   103   106   108    1
   104    99    98    1
   105    99   100    1
   106   101   100    2
