@<TRIPOS>MOLECULE
tmp/5k04B00.pdb
 132 128 0 0 0
SMALL
GASTEIGER

@<TRIPOS>ATOM
      1  N        -18.4200  -11.6970  -60.9680 N.3    22  LEU22      -0.1231
      2  CA       -18.3610  -10.3890  -61.6130 C.3    22  LEU22       0.1693
      3  C        -18.6480   -9.2670  -60.6300 C.2    22  LEU22       0.2593
      4  O        -18.7280   -8.1000  -61.0320 O.2    22  LEU22      -0.2718
      5  CB       -19.3440  -10.3240  -62.7840 C.3    22  LEU22       0.0284
      6  CG       -19.1030  -11.3190  -63.9340 C.3    22  LEU22       0.0019
      7  CD1      -20.1720  -11.1230  -64.9970 C.3    22  LEU22       0.0001
      8  CD2      -17.7020  -11.1930  -64.5260 C.3    22  LEU22       0.0001
      9  N        -18.7900   -9.5970  -59.3470 N.am   23  THR23      -0.1939
     10  CA       -19.2100   -8.6560  -58.3230 C.3    23  THR23       0.2028
     11  C        -18.0350   -8.4190  -57.3880 C.2    23  THR23       0.2642
     12  O        -17.6720   -9.2950  -56.5920 O.2    23  THR23      -0.2714
     13  CB       -20.4200   -9.1830  -57.5580 C.3    23  THR23       0.1808
     14  OG1      -21.4750   -9.4870  -58.4770 O.3    23  THR23      -0.2208
     15  CG2      -20.8830   -8.1400  -56.5400 C.3    23  THR23       0.0379
     16  N        -17.4440   -7.2380  -57.4960 N.am   24  GLU24      -0.1976
     17  CA       -16.2930   -6.8900  -56.6830 C.3    24  GLU24       0.1602
     18  C        -16.7170   -6.7280  -55.2320 C.2    24  GLU24       0.2287
     19  O        -17.8410   -6.3130  -54.9300 O.2    24  GLU24      -0.2864
     20  CB       -15.6520   -5.5870  -57.1840 C.3    24  GLU24       0.0415
     21  CG       -15.3880   -5.5160  -58.6950 C.3    24  GLU24       0.1163
     22  CD       -14.1670   -6.3120  -59.1440 C.2    24  GLU24       0.3649
     23  OE1      -13.4930   -6.9460  -58.2910 O.co2  24  GLU24      -0.2457
     24  OE2      -13.8840   -6.2960  -60.3620 O.co2  24  GLU24      -0.2457
     25  N        -15.4920   -4.3720  -52.4380 N.3    26  PHE26      -0.1241
     26  CA       -14.6450   -3.2000  -52.3140 C.3    26  PHE26       0.1605
     27  C        -14.1150   -3.0600  -50.8910 C.2    26  PHE26       0.2264
     28  O        -14.5220   -3.7660  -49.9620 O.2    26  PHE26      -0.2867
     29  CB       -15.4160   -1.9330  -52.7140 C.3    26  PHE26       0.0534
     30  CG       -15.9700   -1.9690  -54.1140 C.ar   26  PHE26      -0.0203
     31  CD1      -15.1210   -2.0250  -55.2140 C.ar   26  PHE26      -0.0042
     32  CD2      -17.3360   -1.9340  -54.3290 C.ar   26  PHE26      -0.0042
     33  CE1      -15.6240   -2.0600  -56.5100 C.ar   26  PHE26      -0.0003
     34  CE2      -17.8530   -1.9810  -55.6170 C.ar   26  PHE26      -0.0003
     35  CZ       -16.9970   -2.0350  -56.7120 C.ar   26  PHE26      -0.0000
     36  N        -23.9590    5.3650  -62.1270 N.3    73  ILE73      -0.1231
     37  CA       -24.1040    4.0380  -61.5360 C.3    73  ILE73       0.1692
     38  C        -22.7170    3.4120  -61.4130 C.2    73  ILE73       0.2593
     39  O        -22.0030    3.2830  -62.4130 O.2    73  ILE73      -0.2718
     40  CB       -25.0300    3.1540  -62.3840 C.3    73  ILE73       0.0266
     41  CG1      -26.4590    3.6860  -62.3620 C.3    73  ILE73       0.0019
     42  CG2      -25.0030    1.7340  -61.8650 C.3    73  ILE73       0.0020
     43  CD1      -27.3070    3.1550  -63.5030 C.3    73  ILE73       0.0001
     44  N        -22.3280    3.0240  -60.1960 N.am   74  THR74      -0.1939
     45  CA       -21.0700    2.3070  -60.0140 C.3    74  THR74       0.2028
     46  C        -21.2500    0.8050  -59.8630 C.2    74  THR74       0.2642
     47  O        -20.4190    0.0440  -60.3570 O.2    74  THR74      -0.2714
     48  CB       -20.2990    2.8480  -58.8070 C.3    74  THR74       0.1808
     49  OG1      -20.8850    2.3660  -57.5990 O.3    74  THR74      -0.2208
     50  CG2      -20.3720    4.3140  -58.8260 C.3    74  THR74       0.0379
     51  N        -22.3260    0.3580  -59.2200 N.am   75  ALA75      -0.1963
     52  CA       -22.5300   -1.0760  -59.0300 C.3    75  ALA75       0.1728
     53  C        -24.0140   -1.4250  -58.9300 C.2    75  ALA75       0.2616
     54  O        -24.7520   -0.8300  -58.1340 O.2    75  ALA75      -0.2715
     55  CB       -21.7890   -1.5630  -57.7740 C.3    75  ALA75       0.0334
     56  N        -24.4270   -2.4030  -59.7350 N.am   76  VAL76      -0.1963
     57  CA       -25.6940   -3.1080  -59.6070 C.3    76  VAL76       0.1727
     58  C        -25.3960   -4.5990  -59.6420 C.2    76  VAL76       0.2616
     59  O        -24.6790   -5.0640  -60.5340 O.2    76  VAL76      -0.2715
     60  CB       -26.6700   -2.7650  -60.7460 C.3    76  VAL76       0.0290
     61  CG1      -28.0730   -3.1970  -60.3830 C.3    76  VAL76       0.0023
     62  CG2      -26.6220   -1.3040  -61.0660 C.3    76  VAL76       0.0023
     63  N        -25.9520   -5.3470  -58.6880 N.am   77  THR77      -0.1951
     64  CA       -25.8600   -6.7980  -58.6820 C.3    77  THR77       0.1897
     65  C        -27.1340   -7.3710  -58.0970 C.2    77  THR77       0.2313
     66  O        -27.7950   -6.7520  -57.2620 O.2    77  THR77      -0.2863
     67  CB       -24.6680   -7.3510  -57.8790 C.3    77  THR77       0.1794
     68  OG1      -24.5340   -6.6480  -56.6310 O.3    77  THR77      -0.2208
     69  CG2      -23.4290   -7.1990  -58.6670 C.3    77  THR77       0.0378
     70  N        -23.0440    5.4510  -66.9120 N.3   109  LEU109     -0.1231
     71  CA       -22.5190    4.1970  -66.4020 C.3   109  LEU109      0.1693
     72  C        -21.4840    3.6960  -67.3890 C.2   109  LEU109      0.2592
     73  O        -21.4700    4.0860  -68.5600 O.2   109  LEU109     -0.2718
     74  CB       -23.6170    3.1470  -66.2280 C.3   109  LEU109      0.0284
     75  CG       -24.3620    2.8800  -67.5400 C.3   109  LEU109      0.0019
     76  CD1      -23.8030    1.6770  -68.3190 C.3   109  LEU109      0.0001
     77  CD2      -25.8330    2.7160  -67.3070 C.3   109  LEU109      0.0001
     78  N        -20.6510    2.7870  -66.9110 N.am  110  PHE110     -0.1962
     79  CA       -19.6430    2.1390  -67.7310 C.3   110  PHE110      0.1771
     80  C        -19.9980    0.6730  -67.8700 C.2   110  PHE110      0.2619
     81  O        -20.2530   -0.0010  -66.8700 O.2   110  PHE110     -0.2715
     82  CB       -18.2500    2.2730  -67.1200 C.3   110  PHE110      0.0574
     83  CG       -17.7560    3.6970  -67.0220 C.ar  110  PHE110     -0.0200
     84  CD1      -17.8250    4.5560  -68.1070 C.ar  110  PHE110     -0.0042
     85  CD2      -17.2040    4.1620  -65.8480 C.ar  110  PHE110     -0.0042
     86  CE1      -17.3630    5.8450  -68.0240 C.ar  110  PHE110     -0.0003
     87  CE2      -16.7320    5.4580  -65.7520 C.ar  110  PHE110     -0.0003
     88  CZ       -16.8170    6.3040  -66.8480 C.ar  110  PHE110     -0.0000
     89  N        -20.0140    0.1910  -69.1100 N.am  111  VAL111     -0.1963
     90  CA       -20.1250   -1.2270  -69.4290 C.3   111  VAL111      0.1727
     91  C        -18.9290   -1.5980  -70.2930 C.2   111  VAL111      0.2616
     92  O        -18.5850   -0.8700  -71.2330 O.2   111  VAL111     -0.2715
     93  CB       -21.4540   -1.5540  -70.1490 C.3   111  VAL111      0.0290
     94  CG1      -21.4500   -2.9650  -70.6690 C.3   111  VAL111      0.0023
     95  CG2      -22.6070   -1.4080  -69.1890 C.3   111  VAL111      0.0023
     96  N        -18.2840   -2.7130  -69.9680 N.am  112  LYS112     -0.1977
     97  CA       -17.1680   -3.1600  -70.7870 C.3   112  LYS112      0.1596
     98  C        -17.6570   -3.4780  -72.1940 C.2   112  LYS112      0.2287
     99  O        -18.7910   -3.9160  -72.3970 O.2   112  LYS112     -0.2864
    100  CB       -16.4850   -4.3790  -70.1660 C.3   112  LYS112      0.0298
    101  CG       -15.7410   -4.0970  -68.8540 C.3   112  LYS112      0.0038
    102  CD       -14.7340   -2.9660  -69.0270 C.3   112  LYS112      0.0206
    103  CE       -13.8200   -2.8230  -67.8200 C.3   112  LYS112      0.1093
    104  NZ       -12.9660   -1.6020  -67.9480 N.3   112  LYS112     -0.1314
    105  N        -19.1560   -6.7730  -72.8590 N.3   115  ASN115     -0.1240
    106  CA       -20.3330   -7.1240  -72.0730 C.3   115  ASN115      0.1653
    107  C        -21.5920   -6.7440  -72.8510 C.2   115  ASN115      0.2266
    108  O        -22.2910   -5.7710  -72.5530 O.2   115  ASN115     -0.2867
    109  CB       -20.2800   -6.4400  -70.7180 C.3   115  ASN115      0.1155
    110  CG       -21.4300   -6.8420  -69.8390 C.2   115  ASN115      0.2627
    111  OD1      -22.1970   -7.7660  -70.1750 O.2   115  ASN115     -0.2716
    112  ND2      -21.5760   -6.1450  -68.7100 N.am  115  ASN115     -0.0877
    113  N        -29.1320   -2.1870  -70.2510 N.3   122  TYR122     -0.1241
    114  CA       -29.2840   -0.7440  -70.1320 C.3   122  TYR122      0.1605
    115  C        -29.9730   -0.1360  -71.3530 C.2   122  TYR122      0.2264
    116  O        -30.7100    0.8500  -71.2170 O.2   122  TYR122     -0.2867
    117  CB       -27.9220   -0.1050  -69.8920 C.3   122  TYR122      0.0534
    118  CG       -27.3250   -0.4740  -68.5480 C.ar  122  TYR122     -0.0201
    119  CD1      -27.9450   -0.0930  -67.3610 C.ar  122  TYR122     -0.0009
    120  CD2      -26.1380   -1.1870  -68.4650 C.ar  122  TYR122     -0.0009
    121  CE1      -27.3910   -0.4180  -66.1310 C.ar  122  TYR122      0.0417
    122  CE2      -25.5830   -1.5250  -67.2400 C.ar  122  TYR122      0.0417
    123  CZ       -26.2120   -1.1370  -66.0780 C.ar  122  TYR122      0.1957
    124  OH       -25.6610   -1.4630  -64.8630 O.3   122  TYR122     -0.2866
    125  N        -12.6740   -8.1560  -62.3850 N.3   139  ILE139     -0.1245
    126  CA       -12.8360   -7.6330  -63.7340 C.3   139  ILE139      0.1561
    127  C        -11.5300   -6.9840  -64.1660 C.2   139  ILE139      0.2260
    128  O        -10.8890   -6.2780  -63.3820 O.2   139  ILE139     -0.2867
    129  CB       -14.0120   -6.6400  -63.8060 C.3   139  ILE139      0.0252
    130  CG1      -15.2840   -7.3020  -63.2500 C.3   139  ILE139      0.0019
    131  CG2      -14.2270   -6.1950  -65.2460 C.3   139  ILE139      0.0019
    132  CD1      -16.4730   -6.3630  -63.0630 C.3   139  ILE139      0.0001
@<TRIPOS>BOND
     1   105   106    1
     2   107   108    2
     3   107   106    1
     4    99    98    2
     5    98    97    1
     6   106   109    1
     7   115   116    2
     8   115   114    1
     9    92    91    2
    10    97   100    1
    11    97    96    1
    12   109   110    1
    13    94    93    1
    14    91    96   am
    15    91    90    1
    16   113   114    1
    17   111   110    2
    18   100   101    1
    19    93    90    1
    20    93    95    1
    21   114   117    1
    22   117   118    1
    23   110   112   am
    24    90    89    1
    25    89    80   am
    26   102   101    1
    27   102   103    1
    28    73    72    2
    29   118   120   ar
    30   118   119   ar
    31   120   122   ar
    32    76    75    1
    33    84    86   ar
    34    84    83   ar
    35    86    88   ar
    36   104   103    1
    37    80    79    1
    38    80    81    2
    39    79    82    1
    40    79    78    1
    41    75    77    1
    42    75    74    1
    43    72    78   am
    44    72    71    1
    45   119   121   ar
    46   122   123   ar
    47    82    83    1
    48    83    85   ar
    49    70    71    1
    50    88    87   ar
    51    71    74    1
    52   121   123   ar
    53   123   124    1
    54    85    87   ar
    55   131   129    1
    56     7     6    1
    57     8     6    1
    58   127   126    1
    59   127   128    2
    60     6     5    1
    61   129   126    1
    62   129   130    1
    63   126   125    1
    64    43    41    1
    65   130   132    1
    66     5     2    1
    67    39    38    2
    68    40    41    1
    69    40    42    1
    70    40    37    1
    71    36    37    1
    72     2     1    1
    73     2     3    1
    74    37    38    1
    75    38    44   am
    76    62    60    1
    77     4     3    2
    78    60    61    1
    79    60    57    1
    80     3     9   am
    81    59    58    2
    82    24    22   ar
    83    47    46    2
    84    44    45    1
    85    45    46    1
    86    45    48    1
    87    46    51   am
    88    56    57    1
    89    56    53   am
    90    58    57    1
    91    58    63   am
    92     9    10    1
    93    51    52    1
    94    22    21    1
    95    22    23   ar
    96    52    53    1
    97    52    55    1
    98    53    54    2
    99    50    48    1
   100    48    49    1
   101    21    20    1
   102    63    64    1
   103    64    65    1
   104    64    67    1
   105    69    67    1
   106    14    13    1
   107    10    13    1
   108    10    11    1
   109    65    66    2
   110    67    68    1
   111    13    15    1
   112    16    11   am
   113    16    17    1
   114    11    12    2
   115    20    17    1
   116    35    33   ar
   117    35    34   ar
   118    17    18    1
   119    33    31   ar
   120    34    32   ar
   121    18    19    2
   122    31    30   ar
   123    32    30   ar
   124    30    29    1
   125    29    26    1
   126    25    26    1
   127    26    27    1
   128    27    28    2
