@<TRIPOS>MOLECULE
tmp/5k05A00.pdb
 116 114 0 0 0
SMALL
GASTEIGER

@<TRIPOS>ATOM
      1  N         19.3510    9.5840  -20.7600 N.3    63  LEU63      -0.1231
      2  CA        20.1680    8.3750  -20.7030 C.3    63  LEU63       0.1693
      3  C         21.6410    8.7560  -20.6080 C.2    63  LEU63       0.2592
      4  O         22.1890    9.3850  -21.5200 O.2    63  LEU63      -0.2718
      5  CB        19.9170    7.4930  -21.9300 C.3    63  LEU63       0.0284
      6  CG        18.4460    7.2240  -22.2610 C.3    63  LEU63       0.0019
      7  CD1       18.3140    6.4770  -23.5990 C.3    63  LEU63       0.0001
      8  CD2       17.7760    6.4460  -21.1450 C.3    63  LEU63       0.0001
      9  N         22.2830    8.3630  -19.5100 N.am   64  GLY64      -0.1957
     10  CA        23.6530    8.7620  -19.2340 C.3    64  GLY64       0.1869
     11  C         23.6920   10.0580  -18.4240 C.2    64  GLY64       0.2309
     12  O         23.0670   11.0410  -18.7960 O.2    64  GLY64      -0.2863
     13  N         26.8230   10.8830  -16.2440 N.3    66  TYR66      -0.1241
     14  CA        28.2250   11.2500  -16.0570 C.3    66  TYR66       0.1605
     15  C         28.3850   12.1290  -14.8070 C.2    66  TYR66       0.2264
     16  O         27.9340   11.7370  -13.7340 O.2    66  TYR66      -0.2867
     17  CB        28.7550   11.9340  -17.3070 C.3    66  TYR66       0.0534
     18  CG        28.5100   11.1170  -18.5580 C.ar   66  TYR66      -0.0201
     19  CD1       29.3720   10.0770  -18.9150 C.ar   66  TYR66      -0.0009
     20  CD2       27.4080   11.3680  -19.3710 C.ar   66  TYR66      -0.0009
     21  CE1       29.1460    9.3180  -20.0420 C.ar   66  TYR66       0.0417
     22  CE2       27.1700   10.6120  -20.5190 C.ar   66  TYR66       0.0417
     23  CZ        28.0500    9.5920  -20.8510 C.ar   66  TYR66       0.1957
     24  OH        27.8380    8.8320  -21.9810 O.3    66  TYR66      -0.2866
     25  N         18.9600    8.0780  -16.1450 N.3    87  MET87      -0.1230
     26  CA        19.5060    6.7450  -15.9450 C.3    87  MET87       0.1702
     27  C         21.0200    6.7990  -16.0590 C.2    87  MET87       0.2592
     28  O         21.5520    7.5010  -16.9100 O.2    87  MET87      -0.2718
     29  CB        18.9080    5.7590  -16.9510 C.3    87  MET87       0.0401
     30  CG        17.3980    5.7180  -16.8660 C.3    87  MET87       0.0596
     31  SD        16.6190    4.5770  -17.9980 S.3    87  MET87      -0.1393
     32  CE        14.9290    4.5540  -17.3660 C.3    87  MET87       0.0692
     33  N         21.7090    6.0430  -15.2080 N.am   88  GLU88      -0.1966
     34  CA        23.1640    6.0610  -15.1810 C.3    88  GLU88       0.1733
     35  C         23.6940    4.6990  -14.7370 C.2    88  GLU88       0.2616
     36  O         23.2880    4.1740  -13.6890 O.2    88  GLU88      -0.2715
     37  CB        23.6640    7.1700  -14.2460 C.3    88  GLU88       0.0429
     38  CG        25.1470    7.0690  -13.8990 C.3    88  GLU88       0.1163
     39  CD        26.0490    7.1620  -15.1320 C.2    88  GLU88       0.3649
     40  OE1       25.8330    8.0640  -15.9720 O.co2  88  GLU88      -0.2457
     41  OE2       26.9790    6.3320  -15.2570 O.co2  88  GLU88      -0.2457
     42  N         24.6030    4.1250  -15.5220 N.am   89  ILE89      -0.1977
     43  CA        25.0690    2.7630  -15.2570 C.3    89  ILE89       0.1596
     44  C         26.1370    2.6800  -14.1500 C.2    89  ILE89       0.2287
     45  O         26.2690    1.6480  -13.4930 O.2    89  ILE89      -0.2864
     46  CB        25.6130    2.1030  -16.5490 C.3    89  ILE89       0.0276
     47  CG1       25.7010    0.5790  -16.3780 C.3    89  ILE89       0.0022
     48  CG2       26.9350    2.7400  -16.9860 C.3    89  ILE89       0.0022
     49  CD1       26.0260   -0.1360  -17.6530 C.3    89  ILE89       0.0001
     50  N         21.4620    1.9690  -12.9680 N.3   115  GLY115     -0.1210
     51  CA        21.4780    0.7080  -13.6920 C.3   115  GLY115      0.1956
     52  C         21.5750    0.8480  -15.1990 C.2   115  GLY115      0.2612
     53  O         21.7420    1.9510  -15.7190 O.2   115  GLY115     -0.2717
     54  N         21.4790   -0.2860  -15.8910 N.am  116  ALA116     -0.1965
     55  CA        21.4420   -0.3150  -17.3390 C.3   116  ALA116      0.1728
     56  C         20.0750    0.1450  -17.8260 C.2   116  ALA116      0.2617
     57  O         19.0440   -0.2940  -17.3140 O.2   116  ALA116     -0.2715
     58  CB        21.7580   -1.7180  -17.8550 C.3   116  ALA116      0.0334
     59  N         20.0710    1.0300  -18.8180 N.am  117  SER117     -0.1936
     60  CA        18.8170    1.5370  -19.3690 C.3   117  SER117      0.2055
     61  C         17.9230    0.3760  -19.8190 C.2   117  SER117      0.2642
     62  O         16.7130    0.4150  -19.6380 O.2   117  SER117     -0.2714
     63  CB        19.0810    2.5040  -20.5370 C.3   117  SER117      0.2130
     64  OG        19.8370    1.8740  -21.5610 O.3   117  SER117     -0.2179
     65  N         18.5190   -0.6700  -20.3780 N.am  118  GLN118     -0.1976
     66  CA        17.7260   -1.8030  -20.8370 C.3   118  GLN118      0.1601
     67  C         16.9320   -2.4720  -19.7050 C.2   118  GLN118      0.2287
     68  O         15.8450   -3.0020  -19.9330 O.2   118  GLN118     -0.2864
     69  CB        18.6150   -2.8400  -21.5220 C.3   118  GLN118      0.0394
     70  CG        17.8270   -4.0330  -22.0520 C.3   118  GLN118      0.0908
     71  CD        18.7050   -5.1650  -22.5210 C.2   118  GLN118      0.2608
     72  OE1       19.6610   -5.5450  -21.8450 O.2   118  GLN118     -0.2717
     73  NE2       18.3820   -5.7190  -23.6860 N.am  118  GLN118     -0.0878
     74  N         24.1200    8.1320  -23.8370 N.3   140  HIS140     -0.1226
     75  CA        24.8260    7.0770  -23.1230 C.3   140  HIS140      0.1752
     76  C         25.7160    6.2670  -24.0820 C.2   140  HIS140      0.2596
     77  O         26.4040    6.8570  -24.9070 O.2   140  HIS140     -0.2718
     78  CB        23.8310    6.1920  -22.3540 C.3   140  HIS140      0.0759
     79  CG        22.7450    5.5790  -23.1960 C.ar  140  HIS140      0.0818
     80  ND1       22.2940    6.1320  -24.3740 N.ar  140  HIS140     -0.2268
     81  CD2       22.0120    4.4540  -23.0030 C.ar  140  HIS140      0.1154
     82  CE1       21.3330    5.3740  -24.8760 C.ar  140  HIS140      0.1986
     83  NE2       21.1470    4.3470  -24.0680 N.ar  140  HIS140     -0.2212
     84  N         25.7500    4.9410  -23.9570 N.am  141  TRP141     -0.1976
     85  CA        26.5970    4.1270  -24.8360 C.3   141  TRP141      0.1640
     86  C         26.0480    4.1190  -26.2460 C.2   141  TRP141      0.2290
     87  O         24.8530    3.8990  -26.4490 O.2   141  TRP141     -0.2864
     88  CB        26.7250    2.6930  -24.3200 C.3   141  TRP141      0.0576
     89  CG        27.5330    2.6020  -23.0680 C.ar  141  TRP141      0.0006
     90  CD1       28.1940    3.6230  -22.4420 C.ar  141  TRP141      0.0946
     91  CD2       27.7780    1.4260  -22.2830 C.ar  141  TRP141      0.0152
     92  NE1       28.8370    3.1510  -21.3230 N.ar  141  TRP141     -0.2442
     93  CE2       28.5870    1.8080  -21.1970 C.ar  141  TRP141      0.0810
     94  CE3       27.3960    0.0890  -22.3980 C.ar  141  TRP141      0.0012
     95  CZ2       29.0200    0.9030  -20.2300 C.ar  141  TRP141      0.0191
     96  CZ3       27.8290   -0.8090  -21.4410 C.ar  141  TRP141      0.0001
     97  CH2       28.6280   -0.3970  -20.3670 C.ar  141  TRP141      0.0015
     98  N         26.1050    2.1880  -28.6450 N.3   143  ASP143     -0.1225
     99  CA        25.4840    0.9860  -29.1770 C.3   143  ASP143      0.1805
    100  C         24.1180    0.7180  -28.5290 C.2   143  ASP143      0.2597
    101  O         23.4560   -0.2590  -28.8620 O.2   143  ASP143     -0.2718
    102  CB        26.4190   -0.2130  -29.0150 C.3   143  ASP143      0.1424
    103  CG        26.8410   -0.4440  -27.5660 C.2   143  ASP143      0.3668
    104  OD1       26.1790   -1.2410  -26.8690 O.co2 143  ASP143     -0.2456
    105  OD2       27.8380    0.1660  -27.1280 O.co2 143  ASP143     -0.2456
    106  N         23.6820    1.6010  -27.6290 N.am  144  ARG144     -0.1979
    107  CA        22.3740    1.4480  -26.9870 C.3   144  ARG144      0.1597
    108  C         21.3190    2.4160  -27.5230 C.2   144  ARG144      0.2287
    109  O         20.1390    2.2840  -27.1810 O.2   144  ARG144     -0.2864
    110  CB        22.4820    1.6280  -25.4580 C.3   144  ARG144      0.0334
    111  CG        23.1600    0.4610  -24.7370 C.3   144  ARG144      0.0492
    112  CD        22.5440   -0.8960  -25.1100 C.3   144  ARG144      0.2205
    113  NE        21.1000   -0.9490  -24.8720 N.pl3 144  ARG144     -0.0865
    114  CZ        20.3560   -2.0450  -25.0300 C.cat 144  ARG144      0.5346
    115  NH1       20.9260   -3.1760  -25.4180 N.pl3 144  ARG144      0.1354
    116  NH2       19.0420   -2.0150  -24.7940 N.pl3 144  ARG144      0.1354
@<TRIPOS>BOND
     1    99   102    1
     2    99    98    1
     3    99   100    1
     4   102   103    1
     5   101   100    2
     6   100   106   am
     7   106   107    1
     8   103   105   ar
     9   103   104   ar
    10   108   109    2
    11   108   107    1
    12   107   110    1
    13    87    86    2
    14    86    85    1
    15   110   111    1
    16   115   114    1
    17   112   113    1
    18   112   111    1
    19   114   113    2
    20   114   116    1
    21    77    76    2
    22    82    80   ar
    23    82    83   ar
    24    85    88    1
    25    85    84    1
    26    80    79   ar
    27    88    89    1
    28    76    84   am
    29    76    75    1
    30    83    81   ar
    31    74    75    1
    32    73    71   am
    33     7     6    1
    34    79    81   ar
    35    79    78    1
    36    75    78    1
    37    89    90   ar
    38    89    91   ar
    39    71    70    1
    40    71    72    2
    41    90    92   ar
    42    94    91   ar
    43    94    96   ar
    44    91    93   ar
    45     6     5    1
    46     6     8    1
    47    70    69    1
    48    24    23    1
    49     5     2    1
    50    64    63    1
    51    69    66    1
    52     4     3    2
    53    96    97   ar
    54    92    93   ar
    55    93    95   ar
    56    23    22   ar
    57    23    21   ar
    58    66    65    1
    59    66    67    1
    60     1     2    1
    61     2     3    1
    62     3     9   am
    63    63    60    1
    64    22    20   ar
    65    65    61   am
    66    97    95   ar
    67    21    19   ar
    68    68    67    2
    69    61    62    2
    70    61    60    1
    71     9    10    1
    72    20    18   ar
    73    60    59    1
    74    10    11    1
    75    19    18   ar
    76    59    56   am
    77    12    11    2
    78    18    17    1
    79    31    32    1
    80    31    30    1
    81    58    55    1
    82    56    55    1
    83    56    57    2
    84    49    47    1
    85    55    54    1
    86    17    14    1
    87    48    46    1
    88    29    30    1
    89    29    26    1
    90    28    27    2
    91    46    47    1
    92    46    43    1
    93    13    14    1
    94    25    26    1
    95    27    26    1
    96    27    33   am
    97    14    15    1
    98    40    39   ar
    99    54    52   am
   100    53    52    2
   101    42    43    1
   102    42    35   am
   103    41    39   ar
   104    43    44    1
   105    33    34    1
   106    52    51    1
   107    34    35    1
   108    34    37    1
   109    39    38    1
   110    15    16    2
   111    35    36    2
   112    37    38    1
   113    44    45    2
   114    51    50    1
