@<TRIPOS>MOLECULE
tmp/5k08A00.pdb
 87 84 0 0 0
SMALL
GASTEIGER

@<TRIPOS>ATOM
      1  N        -12.1150    2.9710    1.7950 N.3    34  ALA34      -0.1245
      2  CA       -11.6130    1.6990    2.2920 C.3    34  ALA34       0.1562
      3  C        -10.1910    1.8310    2.8330 C.2    34  ALA34       0.2260
      4  O         -9.3340    2.4800    2.2200 O.2    34  ALA34      -0.2867
      5  CB       -11.6410    0.6630    1.1690 C.3    34  ALA34       0.0290
      6  N         -6.7590   -0.5620    4.1920 N.3    36  LYS36      -0.1245
      7  CA        -6.1060   -1.7360    3.6160 C.3    36  LYS36       0.1561
      8  C         -6.5940   -3.0570    4.2080 C.2    36  LYS36       0.2260
      9  O         -6.4600   -4.0970    3.5550 O.2    36  LYS36      -0.2867
     10  CB        -4.5840   -1.6150    3.7260 C.3    36  LYS36       0.0271
     11  CG        -4.0050   -0.4110    2.9970 C.3    36  LYS36       0.0035
     12  CD        -2.5430   -0.6420    2.6400 C.3    36  LYS36       0.0206
     13  CE        -1.8710    0.6440    2.1850 C.3    36  LYS36       0.1093
     14  NZ        -2.6580    1.3460    1.1340 N.3    36  LYS36      -0.1314
     15  N         -8.1760    3.0490  -11.4890 N.3    74  LYS74      -0.1245
     16  CA        -7.9100    1.8730  -10.6740 C.3    74  LYS74       0.1561
     17  C         -9.1130    1.5090   -9.8030 C.2    74  LYS74       0.2260
     18  O         -9.6990    2.3730   -9.1310 O.2    74  LYS74      -0.2867
     19  CB        -6.6410    2.0650   -9.8480 C.3    74  LYS74       0.0271
     20  CG        -5.3730    1.9460  -10.7030 C.3    74  LYS74       0.0035
     21  CD        -4.1250    2.3050   -9.9200 C.3    74  LYS74       0.0206
     22  CE        -2.8660    2.0830  -10.7470 C.3    74  LYS74       0.1093
     23  NZ        -2.6010    0.6360  -10.9690 N.3    74  LYS74      -0.1314
     24  N         -5.3440   -3.8360   -6.7000 N.3    81  TRP81      -0.1241
     25  CA        -5.7220   -2.7100   -7.5500 C.3    81  TRP81       0.1605
     26  C         -5.4820   -3.0660   -9.0140 C.2    81  TRP81       0.2264
     27  O         -4.3920   -3.5170   -9.3790 O.2    81  TRP81      -0.2867
     28  CB        -4.9260   -1.4660   -7.1660 C.3    81  TRP81       0.0550
     29  CG        -5.3570   -0.8910   -5.8370 C.ar   81  TRP81       0.0003
     30  CD1       -4.7260   -1.0170   -4.6400 C.ar   81  TRP81       0.0946
     31  CD2       -6.5420   -0.1360   -5.5930 C.ar   81  TRP81       0.0152
     32  NE1       -5.4440   -0.3610   -3.6510 N.ar   81  TRP81      -0.2442
     33  CE2       -6.5630    0.1890   -4.2240 C.ar   81  TRP81       0.0810
     34  CE3       -7.5830    0.3170   -6.4080 C.ar   81  TRP81       0.0012
     35  CZ2       -7.5950    0.9380   -3.6530 C.ar   81  TRP81       0.0191
     36  CZ3       -8.6020    1.0540   -5.8400 C.ar   81  TRP81       0.0001
     37  CH2       -8.6020    1.3610   -4.4810 C.ar   81  TRP81       0.0015
     38  N         -6.4670   10.9560    3.5010 N.3   126  GLU126     -0.1231
     39  CA        -5.8410    9.8380    4.2150 C.3   126  GLU126      0.1699
     40  C         -5.8970    8.5000    3.4810 C.2   126  GLU126      0.2592
     41  O         -4.8670    7.8390    3.3050 O.2   126  GLU126     -0.2718
     42  CB        -6.3660    9.6740    5.6460 C.3   126  GLU126      0.0402
     43  CG        -5.5270    8.6570    6.4310 C.3   126  GLU126      0.1161
     44  CD        -6.1990    8.1380    7.6900 C.2   126  GLU126      0.3649
     45  OE1       -7.3420    8.5430    7.9740 O.co2 126  GLU126     -0.2457
     46  OE2       -5.5730    7.3180    8.3950 O.co2 126  GLU126     -0.2457
     47  N         -7.0950    8.0800    3.0880 N.am  127  LEU127     -0.1966
     48  CA        -7.2990    6.7330    2.5770 C.3   127  LEU127      0.1728
     49  C         -7.2930    6.6550    1.0610 C.2   127  LEU127      0.2616
     50  O         -7.0610    5.5720    0.5180 O.2   127  LEU127     -0.2715
     51  CB        -8.5870    6.1290    3.1430 C.3   127  LEU127      0.0311
     52  CG        -8.5300    5.9430    4.6640 C.3   127  LEU127      0.0022
     53  CD1       -9.8060    5.2720    5.1800 C.3   127  LEU127      0.0001
     54  CD2       -7.2860    5.1490    5.0530 C.3   127  LEU127      0.0001
     55  N         -7.5390    7.7640    0.3650 N.am  128  HIS128     -0.1959
     56  CA        -7.3180    7.8440   -1.0880 C.3   128  HIS128      0.1787
     57  C         -8.1560    6.8390   -1.8840 C.2   128  HIS128      0.2620
     58  O         -7.7560    6.3970   -2.9680 O.2   128  HIS128     -0.2715
     59  CB        -5.8340    7.7360   -1.4470 C.3   128  HIS128      0.0785
     60  CG        -4.9610    8.6650   -0.6650 C.ar  128  HIS128      0.0821
     61  ND1       -4.0730    8.2220    0.2930 N.ar  128  HIS128     -0.2267
     62  CD2       -4.8470   10.0130   -0.6920 C.ar  128  HIS128      0.1154
     63  CE1       -3.4480    9.2590    0.8210 C.ar  128  HIS128      0.1986
     64  NE2       -3.9000   10.3570    0.2420 N.ar  128  HIS128     -0.2212
     65  N         -9.3240    6.4880   -1.3560 N.am  129  THR129     -0.1951
     66  CA       -10.2750    5.6230   -2.0350 C.3   129  THR129      0.1897
     67  C        -11.6700    6.1860   -1.8230 C.2   129  THR129      0.2313
     68  O        -11.9150    6.9640   -0.8970 O.2   129  THR129     -0.2863
     69  CB       -10.2400    4.1640   -1.5270 C.3   129  THR129      0.1794
     70  OG1      -10.5020    4.1410   -0.1150 O.3   129  THR129     -0.2208
     71  CG2       -8.8900    3.5320   -1.7590 C.3   129  THR129      0.0378
     72  N        -10.1260    4.0840   -6.7760 N.3   138  HIS138     -0.1241
     73  CA        -9.0340    4.9390   -6.3670 C.3   138  HIS138      0.1621
     74  C         -9.4940    6.3970   -6.3850 C.2   138  HIS138      0.2264
     75  O        -10.2410    6.8100   -7.2750 O.2   138  HIS138     -0.2867
     76  CB        -7.9410    4.7300   -7.4000 C.3   138  HIS138      0.0745
     77  CG        -6.5860    5.1490   -6.9510 C.ar  138  HIS138      0.0817
     78  ND1       -5.5750    5.4310   -7.8400 N.ar  138  HIS138     -0.2268
     79  CD2       -6.0680    5.3350   -5.7160 C.ar  138  HIS138      0.1154
     80  CE1       -4.4890    5.7720   -7.1750 C.ar  138  HIS138      0.1986
     81  NE2       -4.7660    5.7240   -5.8850 N.ar  138  HIS138     -0.2212
     82  N         -7.1360    9.4100   -5.5310 N.3   140  CYS140     -0.1235
     83  CA        -5.7900    9.8200   -5.1780 C.3   140  CYS140      0.1677
     84  C         -5.5230   11.2320   -5.7110 C.2   140  CYS140      0.2270
     85  O         -6.4560   12.0470   -5.8060 O.2   140  CYS140     -0.2867
     86  CB        -4.8210    8.7680   -5.7050 C.3   140  CYS140      0.0956
     87  SG        -3.4760    8.3750   -4.5960 S.3   140  CYS140     -0.0801
@<TRIPOS>BOND
     1    15    16    1
     2    23    22    1
     3    22    21    1
     4    20    21    1
     5    20    19    1
     6    16    19    1
     7    16    17    1
     8    17    18    2
     9    27    26    2
    10    26    25    1
    11    78    80   ar
    12    78    77   ar
    13    25    28    1
    14    25    24    1
    15    76    77    1
    16    76    73    1
    17    75    74    2
    18    80    81   ar
    19    28    29    1
    20    77    79   ar
    21    72    73    1
    22    34    36   ar
    23    34    31   ar
    24    74    73    1
    25    81    79   ar
    26    36    37   ar
    27    29    31   ar
    28    29    30   ar
    29    85    84    2
    30    84    83    1
    31    86    83    1
    32    86    87    1
    33    31    33   ar
    34    82    83    1
    35    30    32   ar
    36    37    35   ar
    37    33    35   ar
    38    33    32   ar
    39    58    57    2
    40    66    67    1
    41    66    69    1
    42    66    65    1
    43    57    65   am
    44    57    56    1
    45    67    68    2
    46    71    69    1
    47    69    70    1
    48    59    56    1
    49    59    60    1
    50    56    55    1
    51    62    60   ar
    52    62    64   ar
    53    60    61   ar
    54    64    63   ar
    55    61    63   ar
    56    55    49   am
    57    50    49    2
    58    49    48    1
    59    14    13    1
    60     5     2    1
    61     1     2    1
    62    13    12    1
    63     4     3    2
    64     2     3    1
    65    48    47    1
    66    48    51    1
    67    12    11    1
    68    11    10    1
    69    47    40   am
    70    51    52    1
    71    41    40    2
    72    40    39    1
    73    38    39    1
    74     9     8    2
    75     7    10    1
    76     7     6    1
    77     7     8    1
    78    39    42    1
    79    52    54    1
    80    52    53    1
    81    42    43    1
    82    43    44    1
    83    44    45   ar
    84    44    46   ar
