@<TRIPOS>MOLECULE
tmp/5k09X01.pdb
 124 121 0 0 0
SMALL
GASTEIGER

@<TRIPOS>ATOM
      1  N        -13.7900   -2.1710  -67.5570 N.3    40  ASN40      -0.1240
      2  CA       -12.7440   -3.0740  -67.1290 C.3    40  ASN40       0.1653
      3  C        -12.2580   -2.8670  -65.6810 C.2    40  ASN40       0.2266
      4  O        -12.1180   -3.8170  -64.9190 O.2    40  ASN40      -0.2867
      5  CB       -11.5970   -2.9000  -68.1230 C.3    40  ASN40       0.1155
      6  CG       -10.5670   -3.9700  -68.0220 C.2    40  ASN40       0.2627
      7  OD1       -9.3990   -3.6810  -67.7640 O.2    40  ASN40      -0.2716
      8  ND2      -10.9770   -5.2230  -68.2370 N.am   40  ASN40      -0.0877
      9  N         -3.0780   -7.9990  -70.7700 N.3    64  LEU64      -0.1231
     10  CA        -3.9530   -9.0600  -71.2430 C.3    64  LEU64       0.1693
     11  C         -5.4070   -8.7060  -70.9660 C.2    64  LEU64       0.2592
     12  O         -5.8170   -8.6350  -69.8080 O.2    64  LEU64      -0.2718
     13  CB        -3.5980  -10.3940  -70.5820 C.3    64  LEU64       0.0284
     14  CG        -2.1590  -10.9040  -70.7370 C.3    64  LEU64       0.0019
     15  CD1       -2.0790  -12.3890  -70.4160 C.3    64  LEU64       0.0001
     16  CD2       -1.6100  -10.6280  -72.1180 C.3    64  LEU64       0.0001
     17  N         -6.1760   -8.4710  -72.0290 N.am   65  GLY65      -0.1957
     18  CA        -7.6020   -8.1920  -71.9200 C.3    65  GLY65       0.1869
     19  C         -7.9920   -6.7260  -72.0570 C.2    65  GLY65       0.2309
     20  O         -8.5290   -6.1320  -71.1210 O.2    65  GLY65      -0.2863
     21  N        -10.3410   -4.9680  -73.5950 N.3    67  TYR67      -0.1241
     22  CA       -11.7270   -4.5100  -73.7430 C.3    67  TYR67       0.1605
     23  C        -11.8390   -3.3270  -74.7220 C.2    67  TYR67       0.2264
     24  O        -11.7960   -3.5130  -75.9380 O.2    67  TYR67      -0.2867
     25  CB       -12.3530   -4.1310  -72.3900 C.3    67  TYR67       0.0534
     26  CG       -13.8450   -3.8450  -72.4860 C.ar   67  TYR67      -0.0201
     27  CD1      -14.6240   -4.4460  -73.4710 C.ar   67  TYR67      -0.0009
     28  CD2      -14.4690   -2.9610  -71.6160 C.ar   67  TYR67      -0.0009
     29  CE1      -15.9830   -4.1870  -73.5800 C.ar   67  TYR67       0.0417
     30  CE2      -15.8330   -2.6910  -71.7150 C.ar   67  TYR67       0.0417
     31  CZ       -16.5830   -3.3130  -72.7000 C.ar   67  TYR67       0.1957
     32  OH       -17.9350   -3.0700  -72.8220 O.3    67  TYR67      -0.2866
     33  N         -3.5740   -7.2310  -75.5350 N.3    88  MET88      -0.1230
     34  CA        -4.1930   -8.3280  -76.2700 C.3    88  MET88       0.1702
     35  C         -5.6810   -8.4240  -75.9810 C.2    88  MET88       0.2592
     36  O         -6.0860   -8.6410  -74.8360 O.2    88  MET88      -0.2718
     37  CB        -3.5250   -9.6610  -75.9330 C.3    88  MET88       0.0401
     38  CG        -2.0660   -9.7700  -76.3420 C.3    88  MET88       0.0596
     39  SD        -1.3240  -11.3380  -75.8340 S.3    88  MET88      -0.1393
     40  CE         0.3960  -11.0330  -76.2170 C.3    88  MET88       0.0692
     41  N         -6.4890   -8.2590  -77.0260 N.am   89  GLU89      -0.1966
     42  CA        -7.9210   -8.5080  -76.9410 C.3    89  GLU89       0.1733
     43  C         -8.2600   -9.7590  -77.7420 C.2    89  GLU89       0.2616
     44  O         -7.6630  -10.0020  -78.7920 O.2    89  GLU89      -0.2715
     45  CB        -8.7160   -7.3140  -77.4580 C.3    89  GLU89       0.0429
     46  CG       -10.2040   -7.5640  -77.5150 C.3    89  GLU89       0.1163
     47  CD       -10.7400   -8.0250  -76.1870 C.2    89  GLU89       0.3649
     48  OE1      -10.2960   -7.4750  -75.1580 O.co2  89  GLU89      -0.2457
     49  OE2      -11.5870   -8.9420  -76.1630 O.co2  89  GLU89      -0.2457
     50  N         -9.2060  -10.5570  -77.2570 N.am   90  ILE90      -0.1977
     51  CA        -9.5130  -11.8120  -77.9270 C.3    90  ILE90       0.1596
     52  C        -10.6670  -11.6720  -78.9380 C.2    90  ILE90       0.2287
     53  O        -10.7200  -12.4000  -79.9360 O.2    90  ILE90      -0.2864
     54  CB        -9.8290  -12.9140  -76.9080 C.3    90  ILE90       0.0276
     55  CG1       -9.8030  -14.2770  -77.5920 C.3    90  ILE90       0.0022
     56  CG2      -11.1560  -12.6630  -76.2190 C.3    90  ILE90       0.0022
     57  CD1       -9.7800  -15.4390  -76.6470 C.3    90  ILE90       0.0001
     58  N         -6.0790  -11.7220  -80.7830 N.3   116  GLY116     -0.1210
     59  CA        -5.9250  -13.1570  -80.6570 C.3   116  GLY116      0.1956
     60  C         -6.0440  -13.6120  -79.2150 C.2   116  GLY116      0.2612
     61  O         -6.3270  -12.8200  -78.3120 O.2   116  GLY116     -0.2717
     62  N         -5.8380  -14.9020  -78.9930 N.am  117  ALA117     -0.1965
     63  CA        -5.8760  -15.4410  -77.6470 C.3   117  ALA117      0.1728
     64  C         -4.4980  -15.2650  -77.0020 C.2   117  ALA117      0.2617
     65  O         -3.4790  -15.2650  -77.6940 O.2   117  ALA117     -0.2715
     66  CB        -6.3000  -16.9050  -77.6740 C.3   117  ALA117      0.0334
     67  N         -4.4630  -15.0980  -75.6860 N.am  118  SER118     -0.1936
     68  CA        -3.2050  -14.8260  -75.0050 C.3   118  SER118      0.2055
     69  C         -2.1740  -15.9310  -75.2310 C.2   118  SER118      0.2642
     70  O         -0.9990  -15.6430  -75.4580 O.2   118  SER118     -0.2714
     71  CB        -3.4400  -14.6360  -73.5060 C.3   118  SER118      0.2130
     72  OG        -3.8960  -15.8390  -72.9140 O.3   118  SER118     -0.2179
     73  N         -2.6110  -17.1900  -75.1920 N.am  119  GLN119     -0.1976
     74  CA        -1.6710  -18.3120  -75.2600 C.3   119  GLN119      0.1601
     75  C         -1.1530  -18.5810  -76.6730 C.2   119  GLN119      0.2287
     76  O         -0.1960  -19.3330  -76.8410 O.2   119  GLN119     -0.2864
     77  CB        -2.2990  -19.5930  -74.7010 C.3   119  GLN119      0.0394
     78  CG        -3.3160  -20.2490  -75.6100 C.3   119  GLN119      0.0908
     79  CD        -4.6420  -19.5220  -75.6150 C.2   119  GLN119      0.2608
     80  OE1       -4.8300  -18.5510  -74.8800 O.2   119  GLN119     -0.2717
     81  NE2       -5.5730  -19.9890  -76.4440 N.am  119  GLN119     -0.0878
     82  N         -5.9660   -8.9740  -66.8440 N.3   140  ASP140     -0.1225
     83  CA        -7.3950   -8.8080  -66.6270 C.3   140  ASP140      0.1805
     84  C         -8.2320   -9.5980  -67.6190 C.2   140  ASP140      0.2598
     85  O         -9.3280   -9.1660  -67.9890 O.2   140  ASP140     -0.2718
     86  CB        -7.7890   -7.3350  -66.6990 C.3   140  ASP140      0.1424
     87  CG        -9.0190   -7.0200  -65.8560 C.2   140  ASP140      0.3668
     88  OD1       -9.7010   -7.9530  -65.3960 O.co2 140  ASP140     -0.2456
     89  OD2       -9.3110   -5.8350  -65.6460 O.co2 140  ASP140     -0.2456
     90  N         -7.7320  -10.7510  -68.0550 N.am  141  HIS141     -0.1961
     91  CA        -8.4960  -11.5780  -68.9890 C.3   141  HIS141      0.1787
     92  C         -9.2090  -12.7070  -68.2500 C.2   141  HIS141      0.2620
     93  O         -9.6090  -12.5240  -67.1080 O.2   141  HIS141     -0.2715
     94  CB        -7.6050  -12.1140  -70.1240 C.3   141  HIS141      0.0785
     95  CG        -6.3930  -12.8730  -69.6750 C.ar  141  HIS141      0.0821
     96  ND1       -5.6650  -12.5440  -68.5550 N.ar  141  HIS141     -0.2267
     97  CD2       -5.7620  -13.9410  -70.2290 C.ar  141  HIS141      0.1154
     98  CE1       -4.6540  -13.3840  -68.4210 C.ar  141  HIS141      0.1986
     99  NE2       -4.6920  -14.2420  -69.4250 N.ar  141  HIS141     -0.2212
    100  N         -9.4090  -13.8500  -68.8980 N.am  142  TRP142     -0.1974
    101  CA       -10.1250  -14.9640  -68.2730 C.3   142  TRP142      0.1640
    102  C         -9.4230  -15.4470  -67.0120 C.2   142  TRP142      0.2290
    103  O         -8.2080  -15.6650  -67.0140 O.2   142  TRP142     -0.2864
    104  CB       -10.2770  -16.1320  -69.2500 C.3   142  TRP142      0.0576
    105  CG       -11.0930  -15.8110  -70.4650 C.ar  142  TRP142      0.0006
    106  CD1      -11.7740  -14.6590  -70.7150 C.ar  142  TRP142      0.0946
    107  CD2      -11.3020  -16.6570  -71.5980 C.ar  142  TRP142      0.0152
    108  NE1      -12.3970  -14.7360  -71.9340 N.ar  142  TRP142     -0.2442
    109  CE2      -12.1200  -15.9530  -72.4970 C.ar  142  TRP142      0.0810
    110  CE3      -10.8640  -17.9380  -71.9430 C.ar  142  TRP142      0.0012
    111  CZ2      -12.5130  -16.4870  -73.7170 C.ar  142  TRP142      0.0191
    112  CZ3      -11.2530  -18.4670  -73.1510 C.ar  142  TRP142      0.0001
    113  CH2      -12.0720  -17.7450  -74.0240 C.ar  142  TRP142      0.0015
    114  N         -6.9660  -18.4520  -67.0150 N.3   145  ARG145     -0.1245
    115  CA        -5.7860  -18.3880  -67.8710 C.3   145  ARG145      0.1563
    116  C         -4.6490  -17.6690  -67.1460 C.2   145  ARG145      0.2260
    117  O         -3.5270  -17.6030  -67.6510 O.2   145  ARG145     -0.2867
    118  CB        -6.0950  -17.6780  -69.2010 C.3   145  ARG145      0.0307
    119  CG        -7.2760  -18.2440  -70.0150 C.3   145  ARG145      0.0489
    120  CD        -6.9360  -19.5490  -70.7050 C.3   145  ARG145      0.2205
    121  NE        -5.5660  -19.5340  -71.2090 N.pl3 145  ARG145     -0.0865
    122  CZ        -4.7950  -20.6160  -71.2940 C.cat 145  ARG145      0.5346
    123  NH1       -3.5510  -20.5170  -71.7510 N.pl3 145  ARG145      0.1354
    124  NH2       -5.2670  -21.7980  -70.9100 N.pl3 145  ARG145      0.1354
@<TRIPOS>BOND
     1    58    59    1
     2    59    60    1
     3    53    52    2
     4    60    62   am
     5    60    61    2
     6    62    63    1
     7    52    51    1
     8    44    43    2
     9    51    50    1
    10    51    54    1
    11    43    50   am
    12    43    42    1
    13    65    64    2
    14    66    63    1
    15    63    64    1
    16    55    54    1
    17    55    57    1
    18    46    45    1
    19    46    47    1
    20    45    42    1
    21    41    42    1
    22    41    35   am
    23    64    67   am
    24    54    56    1
    25    76    75    2
    26    75    74    1
    27    81    79   am
    28    38    37    1
    29    38    39    1
    30    34    35    1
    31    34    37    1
    32    34    33    1
    33    40    39    1
    34    47    49   ar
    35    47    48   ar
    36    35    36    2
    37    24    23    2
    38    67    68    1
    39    79    78    1
    40    79    80    2
    41    78    77    1
    42    70    69    2
    43    74    73    1
    44    74    77    1
    45    69    73   am
    46    69    68    1
    47    68    71    1
    48    23    22    1
    49   113   111   ar
    50   113   112   ar
    51    22    21    1
    52    22    25    1
    53   111   109   ar
    54    29    27   ar
    55    29    31   ar
    56    71    72    1
    57    27    26   ar
    58   112   110   ar
    59    32    31    1
    60    31    30   ar
    61   109   108   ar
    62   109   107   ar
    63    26    25    1
    64    26    28   ar
    65    16    14    1
    66    19    18    1
    67    19    20    2
    68    17    18    1
    69    17    11   am
    70   110   107   ar
    71   108   106   ar
    72   123   122    1
    73    30    28   ar
    74   107   105   ar
    75   122   121    2
    76   122   124    1
    77    10    11    1
    78    10     9    1
    79    10    13    1
    80   121   120    1
    81    11    12    2
    82    14    13    1
    83    14    15    1
    84   106   105   ar
    85   120   119    1
    86   105   104    1
    87    97    95   ar
    88    97    99   ar
    89    94    95    1
    90    94    91    1
    91   119   118    1
    92    95    96   ar
    93    99    98   ar
    94   104   101    1
    95   118   115    1
    96    91    92    1
    97    91    90    1
    98   100   101    1
    99   100    92   am
   100    96    98   ar
   101   101   102    1
   102    92    93    2
   103     8     6   am
   104     5     6    1
   105     5     2    1
   106    90    84   am
   107     6     7    2
   108    85    84    2
   109   115   116    1
   110   115   114    1
   111   117   116    2
   112    84    83    1
   113     1     2    1
   114     2     3    1
   115   103   102    2
   116    82    83    1
   117    86    83    1
   118    86    87    1
   119    87    89   ar
   120    87    88   ar
   121     3     4    2
