@<TRIPOS>MOLECULE
tmp/5k0bD02.pdb
 94 90 0 0 0
SMALL
GASTEIGER

@<TRIPOS>ATOM
      1  N        117.3070   77.2250    2.0730 N.3     3  LYS3       -0.1231
      2  CA       117.6820   78.4970    2.6830 C.3     3  LYS3        0.1693
      3  C        117.3350   78.4940    4.1710 C.2     3  LYS3        0.2591
      4  O        118.0520   79.0600    4.9940 O.2     3  LYS3       -0.2718
      5  CB       116.9940   79.6700    1.9750 C.3     3  LYS3        0.0285
      6  CG       117.2310   81.0020    2.6590 C.3     3  LYS3        0.0035
      7  CD       117.0290   82.1800    1.7060 C.3     3  LYS3        0.0206
      8  CE       115.5520   82.4590    1.4350 C.3     3  LYS3        0.1093
      9  NZ       115.4390   83.5260    0.4050 N.3     3  LYS3       -0.1314
     10  N        116.2390   77.8400    4.5180 N.am    4  GLU4       -0.1979
     11  CA       115.8280   77.7790    5.9100 C.3     4  GLU4        0.1602
     12  C        116.8380   76.9640    6.7190 C.2     4  GLU4        0.2287
     13  O        117.1430   77.3030    7.8620 O.2     4  GLU4       -0.2864
     14  CB       114.4190   77.1930    6.0320 C.3     4  GLU4        0.0415
     15  CG       113.2950   78.1010    5.4720 C.3     4  GLU4        0.1163
     16  CD       113.2990   78.2010    3.9540 C.2     4  GLU4        0.3649
     17  OE1      113.8490   77.2890    3.2790 O.co2   4  GLU4       -0.2457
     18  OE2      112.7550   79.1980    3.4310 O.co2   4  GLU4       -0.2457
     19  N        116.8290   86.8250    3.0540 N.3    37  ALA37      -0.1231
     20  CA       115.6980   86.0150    3.4910 C.3    37  ALA37       0.1694
     21  C        114.7490   86.8440    4.3440 C.2    37  ALA37       0.2591
     22  O        115.1820   87.7440    5.0540 O.2    37  ALA37      -0.2718
     23  CB       116.1700   84.8180    4.2470 C.3    37  ALA37       0.0304
     24  N        113.4570   86.5480    4.2720 N.am   38  MET38      -0.1979
     25  CA       112.4910   87.2930    5.0550 C.3    38  MET38       0.1605
     26  C        112.7020   87.0620    6.5410 C.2    38  MET38       0.2287
     27  O        112.9230   85.9380    6.9970 O.2    38  MET38      -0.2864
     28  CB       111.0580   86.9360    4.6660 C.3    38  MET38       0.0413
     29  CG       110.5140   85.5960    5.1930 C.3    38  MET38       0.0598
     30  SD       108.8420   85.3320    4.5510 S.3    38  MET38      -0.1393
     31  CE       108.4320   83.6870    5.1770 C.3    38  MET38       0.0692
     32  N        107.6440   79.9560   10.6410 N.3    66  TYR66      -0.1241
     33  CA       108.7670   79.9590    9.7050 C.3    66  TYR66       0.1605
     34  C        110.0200   79.3020   10.3190 C.2    66  TYR66       0.2264
     35  O        110.0410   78.0910   10.5380 O.2    66  TYR66      -0.2867
     36  CB       109.0630   81.3720    9.2220 C.3    66  TYR66       0.0534
     37  CG       110.0310   81.4150    8.0610 C.ar   66  TYR66      -0.0201
     38  CD1      109.9300   80.5060    7.0150 C.ar   66  TYR66      -0.0009
     39  CD2      111.0480   82.3670    8.0120 C.ar   66  TYR66      -0.0009
     40  CE1      110.8080   80.5470    5.9490 C.ar   66  TYR66       0.0417
     41  CE2      111.9350   82.4100    6.9590 C.ar   66  TYR66       0.0417
     42  CZ       111.8150   81.4990    5.9280 C.ar   66  TYR66       0.1957
     43  OH       112.7000   81.5480    4.8720 O.3    66  TYR66      -0.2866
     44  N        104.4120   74.1750    7.2940 N.3    90  ASN90      -0.1240
     45  CA       105.4520   73.4540    6.5560 C.3    90  ASN90       0.1653
     46  C        106.3170   72.6180    7.5110 C.2    90  ASN90       0.2266
     47  O        107.0470   73.1650    8.3480 O.2    90  ASN90      -0.2867
     48  CB       106.3140   74.4350    5.7270 C.3    90  ASN90       0.1155
     49  CG       105.4910   75.2020    4.6540 C.2    90  ASN90       0.2627
     50  OD1      104.9680   74.6020    3.7150 O.2    90  ASN90      -0.2716
     51  ND2      105.3950   76.5290    4.7960 N.am   90  ASN90      -0.0877
     52  N        109.1030   70.8450    7.3790 N.3    92  ASP92      -0.1225
     53  CA       110.5500   71.1130    7.4380 C.3    92  ASP92       0.1805
     54  C        110.8410   72.3450    8.3160 C.2    92  ASP92       0.2598
     55  O        111.7190   72.2990    9.1860 O.2    92  ASP92      -0.2718
     56  CB       111.1250   71.2960    6.0230 C.3    92  ASP92       0.1424
     57  CG       110.2660   72.2290    5.1410 C.2    92  ASP92       0.3668
     58  OD1      109.0180   72.2100    5.2650 O.co2  92  ASP92      -0.2456
     59  OD2      110.8400   72.9830    4.3230 O.co2  92  ASP92      -0.2456
     60  N        110.0760   73.4210    8.0920 N.am   93  CYS93      -0.1970
     61  CA       110.1620   74.6640    8.8730 C.3    93  CYS93       0.1712
     62  C        109.8310   74.4460   10.3420 C.2    93  CYS93       0.2296
     63  O        110.5460   74.9330   11.2330 O.2    93  CYS93      -0.2864
     64  CB       109.2250   75.7410    8.2940 C.3    93  CYS93       0.0983
     65  SG       109.7910   76.4290    6.7050 S.3    93  CYS93      -0.0798
     66  N        113.5800   92.6760    3.1720 N.3   198  TYR198     -0.1227
     67  CA       113.5220   91.7590    2.0360 C.3   198  TYR198      0.1736
     68  C        112.3800   90.7560    2.1640 C.2   198  TYR198      0.2595
     69  O        112.1260   90.2110    3.2320 O.2   198  TYR198     -0.2718
     70  CB       114.8410   90.9890    1.8730 C.3   198  TYR198      0.0548
     71  CG       114.7930   90.0200    0.7110 C.ar  198  TYR198     -0.0200
     72  CD1      114.9430   90.4750   -0.5920 C.ar  198  TYR198     -0.0009
     73  CD2      114.5540   88.6580    0.9100 C.ar  198  TYR198     -0.0009
     74  CE1      114.8810   89.6160   -1.6630 C.ar  198  TYR198      0.0417
     75  CE2      114.4850   87.7800   -0.1650 C.ar  198  TYR198      0.0417
     76  CZ       114.6530   88.2690   -1.4500 C.ar  198  TYR198      0.1957
     77  OH       114.5940   87.4290   -2.5380 O.3   198  TYR198     -0.2866
     78  N        111.6970   90.5040    1.0630 N.am  199  MET199     -0.1965
     79  CA       110.7770   89.3920    1.0140 C.3   199  MET199      0.1736
     80  C        110.5260   88.9650   -0.4140 C.2   199  MET199      0.2616
     81  O        110.3400   89.7980   -1.3090 O.2   199  MET199     -0.2715
     82  CB       109.4470   89.7290    1.6820 C.3   199  MET199      0.0427
     83  CG       108.5210   88.5120    1.8010 C.3   199  MET199      0.0599
     84  SD       107.0490   88.9100    2.7470 S.3   199  MET199     -0.1393
     85  CE       106.6300   90.3920    1.8720 C.3   199  MET199      0.0692
     86  N        110.5270   87.6520   -0.6150 N.am  200  LYS200     -0.1977
     87  CA       110.1810   87.0580   -1.8990 C.3   200  LYS200      0.1596
     88  C        108.8710   86.3030   -1.7610 C.2   200  LYS200      0.2287
     89  O        108.7680   85.3860   -0.9340 O.2   200  LYS200     -0.2864
     90  CB       111.2850   86.1120   -2.3600 C.3   200  LYS200      0.0298
     91  CG       111.2300   85.7840   -3.8140 C.3   200  LYS200      0.0038
     92  CD       111.6260   84.3620   -4.0570 C.3   200  LYS200      0.0206
     93  CE       112.8880   83.9700   -3.3610 C.3   200  LYS200      0.1093
     94  NZ       112.8280   82.5200   -3.0210 N.3   200  LYS200     -0.1314
@<TRIPOS>BOND
     1    92    91    1
     2    92    93    1
     3    91    90    1
     4    93    94    1
     5    77    76    1
     6    90    87    1
     7    87    88    1
     8    87    86    1
     9    88    89    2
    10    74    76   ar
    11    74    72   ar
    12    76    75   ar
    13    81    80    2
    14    86    80   am
    15    72    71   ar
    16    80    79    1
    17    75    73   ar
    18     9     8    1
    19    71    73   ar
    20    71    70    1
    21    79    78    1
    22    79    82    1
    23    78    68   am
    24     8     7    1
    25    82    83    1
    26     7     6    1
    27    83    84    1
    28    85    84    1
    29    70    67    1
    30     5     6    1
    31     5     2    1
    32    67    68    1
    33    67    66    1
    34     1     2    1
    35    68    69    2
    36     2     3    1
    37    19    20    1
    38    17    16   ar
    39    18    16   ar
    40    20    23    1
    41    20    21    1
    42    50    49    2
    43    16    15    1
    44     3    10   am
    45     3     4    2
    46    24    21   am
    47    24    25    1
    48    59    57   ar
    49    21    22    2
    50    10    11    1
    51    30    31    1
    52    30    29    1
    53    49    51   am
    54    49    48    1
    55    28    25    1
    56    28    29    1
    57    43    42    1
    58    25    26    1
    59    57    58   ar
    60    57    56    1
    61    15    14    1
    62    48    45    1
    63    11    14    1
    64    11    12    1
    65    42    40   ar
    66    42    41   ar
    67    40    38   ar
    68    56    53    1
    69    26    27    2
    70    45    44    1
    71    45    46    1
    72    65    64    1
    73    12    13    2
    74    41    39   ar
    75    38    37   ar
    76    52    53    1
    77    53    54    1
    78    46    47    2
    79    39    37   ar
    80    37    36    1
    81    60    54   am
    82    60    61    1
    83    64    61    1
    84    54    55    2
    85    61    62    1
    86    36    33    1
    87    33    34    1
    88    33    32    1
    89    34    35    2
    90    62    63    2
