@<TRIPOS>MOLECULE
tmp/5k0bF00.pdb
 139 135 0 0 0
SMALL
GASTEIGER

@<TRIPOS>ATOM
      1  N        107.8030   98.8640   -9.0030 N.3    38  MET38      -0.1245
      2  CA       106.9810   97.9480   -9.7810 C.3    38  MET38       0.1570
      3  C        107.7220   97.5960  -11.0670 C.2    38  MET38       0.2261
      4  O        108.0440   98.4660  -11.8770 O.2    38  MET38      -0.2867
      5  CB       105.6120   98.6000  -10.0440 C.3    38  MET38       0.0387
      6  CG       104.8070   98.1210  -11.2440 C.3    38  MET38       0.0595
      7  SD       103.2170   99.0080  -11.3400 S.3    38  MET38      -0.1393
      8  CE       103.7200  100.6940  -11.0520 C.3    38  MET38       0.0692
      9  N         99.3860   96.1930  -22.4530 N.3    63  LEU63      -0.1231
     10  CA        98.5890   97.0860  -21.6310 C.3    63  LEU63       0.1693
     11  C         99.3680   97.4690  -20.3690 C.2    63  LEU63       0.2592
     12  O         99.6180   96.6290  -19.5090 O.2    63  LEU63      -0.2718
     13  CB        97.2420   96.4340  -21.2750 C.3    63  LEU63       0.0284
     14  CG        96.4480   95.9490  -22.4910 C.3    63  LEU63       0.0019
     15  CD1       95.2130   95.1370  -22.0880 C.3    63  LEU63       0.0001
     16  CD2       96.0500   97.1310  -23.3480 C.3    63  LEU63       0.0001
     17  N         99.7260   98.7500  -20.2660 N.am   64  GLY64      -0.1957
     18  CA       100.5720   99.2620  -19.1960 C.3    64  GLY64       0.1869
     19  C        102.0510   99.2110  -19.5580 C.2    64  GLY64       0.2309
     20  O        102.6470   98.1440  -19.5690 O.2    64  GLY64      -0.2863
     21  N        104.3980  101.6320  -18.1190 N.3    66  TYR66      -0.1241
     22  CA       105.1440  102.1710  -16.9800 C.3    66  TYR66       0.1605
     23  C        106.4220  102.8170  -17.4920 C.2    66  TYR66       0.2264
     24  O        106.3460  103.7840  -18.2510 O.2    66  TYR66      -0.2867
     25  CB       105.4450  101.0890  -15.9370 C.3    66  TYR66       0.0534
     26  CG       106.0020  101.6380  -14.6350 C.ar   66  TYR66      -0.0201
     27  CD1      105.4620  102.7810  -14.0470 C.ar   66  TYR66      -0.0009
     28  CD2      107.0820  101.0240  -14.0040 C.ar   66  TYR66      -0.0009
     29  CE1      105.9750  103.2870  -12.8560 C.ar   66  TYR66       0.0417
     30  CE2      107.6050  101.5200  -12.8060 C.ar   66  TYR66       0.0417
     31  CZ       107.0500  102.6470  -12.2400 C.ar   66  TYR66       0.1957
     32  OH       107.5700  103.1290  -11.0570 O.3    66  TYR66      -0.2866
     33  N         99.9740  100.6720  -24.5760 N.3    87  MET87      -0.1230
     34  CA        99.0830  101.6450  -23.9880 C.3    87  MET87       0.1702
     35  C         99.5370  102.0020  -22.6000 C.2    87  MET87       0.2592
     36  O         99.8860  101.1370  -21.7960 O.2    87  MET87      -0.2718
     37  CB        97.6610  101.1180  -23.9450 C.3    87  MET87       0.0401
     38  CG        97.0940  100.8820  -25.2990 C.3    87  MET87       0.0596
     39  SD        95.4640  100.1560  -25.1860 S.3    87  MET87      -0.1393
     40  CE        95.1240   99.8770  -26.9000 C.3    87  MET87       0.0692
     41  N         99.5150  103.2920  -22.3220 N.am   88  GLU88      -0.1966
     42  CA        99.9880  103.8000  -21.0590 C.3    88  GLU88       0.1733
     43  C         99.1140  104.9880  -20.6830 C.2    88  GLU88       0.2616
     44  O         99.0100  105.9690  -21.4290 O.2    88  GLU88      -0.2715
     45  CB       101.4710  104.1870  -21.1670 C.3    88  GLU88       0.0429
     46  CG       102.0640  104.8970  -19.9440 C.3    88  GLU88       0.1163
     47  CD       101.7210  104.2020  -18.6400 C.2    88  GLU88       0.3649
     48  OE1      101.9580  102.9690  -18.5520 O.co2  88  GLU88      -0.2457
     49  OE2      101.2080  104.8890  -17.7110 O.co2  88  GLU88      -0.2457
     50  N         98.4770  104.8980  -19.5280 N.am   89  ILE89      -0.1977
     51  CA        97.4880  105.8930  -19.1750 C.3    89  ILE89       0.1596
     52  C         98.1600  107.1690  -18.6540 C.2    89  ILE89       0.2287
     53  O         97.6840  108.2700  -18.9030 O.2    89  ILE89      -0.2864
     54  CB        96.4700  105.3240  -18.1460 C.3    89  ILE89       0.0276
     55  CG1       95.2330  106.2240  -18.0600 C.3    89  ILE89       0.0022
     56  CG2       97.1220  105.1010  -16.7860 C.3    89  ILE89       0.0022
     57  CD1       94.0940  105.6090  -17.2790 C.3    89  ILE89       0.0001
     58  N        104.7420  108.5510  -17.6940 N.3    93  CYS93      -0.1235
     59  CA       105.3030  107.2270  -17.9770 C.3    93  CYS93       0.1677
     60  C        105.4080  107.0040  -19.4810 C.2    93  CYS93       0.2270
     61  O        106.3730  106.3960  -19.9590 O.2    93  CYS93      -0.2867
     62  CB       104.4730  106.1220  -17.3190 C.3    93  CYS93       0.0956
     63  SG       104.5910  106.1690  -15.5060 S.3    93  CYS93      -0.0801
     64  N         96.6590  106.8040  -23.2880 N.3   115  GLY115     -0.1210
     65  CA        95.2560  106.8450  -22.9230 C.3   115  GLY115      0.1956
     66  C         94.8620  105.5920  -22.1670 C.2   115  GLY115      0.2612
     67  O         95.7120  104.7710  -21.8330 O.2   115  GLY115     -0.2717
     68  N         93.5720  105.4480  -21.8880 N.am  116  ALA116     -0.1965
     69  CA        93.0520  104.2980  -21.1510 C.3   116  ALA116      0.1728
     70  C         92.7070  103.1970  -22.1180 C.2   116  ALA116      0.2617
     71  O         92.1450  103.4610  -23.1850 O.2   116  ALA116     -0.2715
     72  CB        91.8090  104.6800  -20.3230 C.3   116  ALA116      0.0334
     73  N         93.0350  101.9690  -21.7240 N.am  117  SER117     -0.1936
     74  CA        92.8000  100.7730  -22.5390 C.3   117  SER117      0.2055
     75  C         91.3780  100.6640  -23.1070 C.2   117  SER117      0.2642
     76  O         91.2220  100.3520  -24.2810 O.2   117  SER117     -0.2714
     77  CB        93.1150   99.5090  -21.7250 C.3   117  SER117      0.2130
     78  OG        92.3100   99.4340  -20.5490 O.3   117  SER117     -0.2179
     79  N         90.3480  100.9240  -22.3070 N.am  118  GLN118     -0.1976
     80  CA        88.9830  100.7130  -22.7970 C.3   118  GLN118      0.1601
     81  C         88.5690  101.7890  -23.7970 C.2   118  GLN118      0.2287
     82  O         87.6260  101.5920  -24.5670 O.2   118  GLN118     -0.2864
     83  CB        87.9530  100.6440  -21.6440 C.3   118  GLN118      0.0394
     84  CG        87.5480  101.9860  -21.0270 C.3   118  GLN118      0.0908
     85  CD        88.5610  102.5010  -19.9930 C.2   118  GLN118      0.2608
     86  OE1       89.5390  101.8260  -19.6630 O.2   118  GLN118     -0.2717
     87  NE2       88.3190  103.7030  -19.4820 N.am  118  GLN118     -0.0878
     88  N         99.4460   94.0850  -18.1250 N.3   139  ASP139     -0.1225
     89  CA       100.2710   94.5130  -17.0070 C.3   139  ASP139      0.1805
     90  C         99.7710   95.8260  -16.4160 C.2   139  ASP139      0.2598
     91  O        100.5240   96.5440  -15.7600 O.2   139  ASP139     -0.2718
     92  CB       101.7370   94.6440  -17.4640 C.3   139  ASP139      0.1424
     93  CG       102.7450   94.4450  -16.3220 C.2   139  ASP139      0.3668
     94  OD1      102.3780   93.9140  -15.2480 O.co2 139  ASP139     -0.2456
     95  OD2      103.9220   94.8240  -16.5050 O.co2 139  ASP139     -0.2456
     96  N         98.5000   96.1460  -16.6480 N.am  140  HIS140     -0.1961
     97  CA        97.9720   97.4280  -16.1970 C.3   140  HIS140      0.1787
     98  C         97.1660   97.2910  -14.9020 C.2   140  HIS140      0.2620
     99  O         97.5520   96.5140  -14.0300 O.2   140  HIS140     -0.2715
    100  CB        97.1600   98.1110  -17.3150 C.3   140  HIS140      0.0785
    101  CG        96.0080   97.3170  -17.8470 C.ar  140  HIS140      0.0821
    102  ND1       95.9700   95.9380  -17.8360 N.ar  140  HIS140     -0.2267
    103  CD2       94.8540   97.7240  -18.4300 C.ar  140  HIS140      0.1154
    104  CE1       94.8360   95.5300  -18.3850 C.ar  140  HIS140      0.1986
    105  NE2       94.1430   96.5920  -18.7510 N.ar  140  HIS140     -0.2212
    106  N         96.0930   98.0670  -14.7380 N.am  141  TRP141     -0.1960
    107  CA        95.3150   97.9770  -13.5030 C.3   141  TRP141      0.1771
    108  C         94.6880   96.6020  -13.3930 C.2   141  TRP141      0.2619
    109  O         94.0490   96.1360  -14.3360 O.2   141  TRP141     -0.2715
    110  CB        94.2240   99.0450  -13.4370 C.3   141  TRP141      0.0590
    111  CG        94.7360  100.4500  -13.3700 C.ar  141  TRP141      0.0006
    112  CD1       96.0220  100.8590  -13.1000 C.ar  141  TRP141      0.0946
    113  CD2       93.9740  101.6390  -13.5880 C.ar  141  TRP141      0.0152
    114  NE1       96.0950  102.2310  -13.1310 N.ar  141  TRP141     -0.2442
    115  CE2       94.8580  102.7340  -13.4400 C.ar  141  TRP141      0.0810
    116  CE3       92.6320  101.8860  -13.9040 C.ar  141  TRP141      0.0012
    117  CZ2       94.4370  104.0550  -13.5860 C.ar  141  TRP141      0.0191
    118  CZ3       92.2140  103.2060  -14.0490 C.ar  141  TRP141      0.0001
    119  CH2       93.1150  104.2680  -13.8990 C.ar  141  TRP141      0.0015
    120  N         94.8530   95.9730  -12.2300 N.am  142  LYS142     -0.1977
    121  CA        94.5260   94.5660  -12.0780 C.3   142  LYS142      0.1596
    122  C         93.0330   94.3350  -12.2350 C.2   142  LYS142      0.2287
    123  O         92.6390   93.2750  -12.7010 O.2   142  LYS142     -0.2864
    124  CB        95.0080   94.0230  -10.7250 C.3   142  LYS142      0.0298
    125  CG        96.5290   94.1430  -10.4750 C.3   142  LYS142      0.0038
    126  CD        97.3950   93.8720  -11.7200 C.3   142  LYS142      0.0206
    127  CE        98.7120   94.6620  -11.6560 C.3   142  LYS142      0.1093
    128  NZ        99.4850   94.6790  -12.9390 N.3   142  LYS142     -0.1314
    129  N         91.1970   95.5630  -14.3680 N.3   144  ARG144     -0.1245
    130  CA        90.8080   95.7730  -15.7540 C.3   144  ARG144      0.1563
    131  C         91.1590   94.5880  -16.6350 C.2   144  ARG144      0.2260
    132  O         90.8180   94.5950  -17.8180 O.2   144  ARG144     -0.2867
    133  CB        91.4670   97.0280  -16.3390 C.3   144  ARG144      0.0307
    134  CG        91.0370   98.3220  -15.7030 C.3   144  ARG144      0.0489
    135  CD        89.5070   98.4630  -15.5970 C.3   144  ARG144      0.2205
    136  NE        89.1820   99.6320  -14.7760 N.pl3 144  ARG144     -0.0865
    137  CZ        89.1060  100.8910  -15.2260 C.cat 144  ARG144      0.5346
    138  NH1       89.2990  101.1690  -16.5110 N.pl3 144  ARG144      0.1354
    139  NH2       88.8240  101.8780  -14.3860 N.pl3 144  ARG144      0.1354
@<TRIPOS>BOND
     1    40    39    1
     2    38    39    1
     3    38    37    1
     4    33    34    1
     5    82    81    2
     6    76    75    2
     7    34    37    1
     8    34    35    1
     9    81    80    1
    10    16    14    1
    11    64    65    1
    12    71    70    2
    13    75    74    1
    14    75    79   am
    15    65    66    1
    16    80    79    1
    17    80    83    1
    18    35    41   am
    19    35    36    2
    20    74    77    1
    21    74    73    1
    22    14    15    1
    23    14    13    1
    24     9    10    1
    25    41    42    1
    26    66    68   am
    27    66    67    2
    28    70    73   am
    29    70    69    1
    30    68    69    1
    31    77    78    1
    32    83    84    1
    33    10    13    1
    34    10    11    1
    35    44    43    2
    36    45    42    1
    37    45    46    1
    38    69    72    1
    39    42    43    1
    40    84    85    1
    41    43    50   am
    42    11    17   am
    43    11    12    2
    44    17    18    1
    45    85    86    2
    46    85    87   am
    47    61    60    2
    48    46    47    1
    49    20    19    2
    50    19    18    1
    51    50    51    1
    52    60    59    1
    53    51    52    1
    54    51    54    1
    55    53    52    2
    56   105   103   ar
    57   105   104   ar
    58    47    48   ar
    59    47    49   ar
    60   103   101   ar
    61   104   102   ar
    62    24    23    2
    63    54    55    1
    64    54    56    1
    65    88    89    1
    66    21    22    1
    67    55    57    1
    68    59    58    1
    69    59    62    1
    70   101   102   ar
    71   101   100    1
    72   132   131    2
    73    23    22    1
    74    92    89    1
    75    92    93    1
    76    62    63    1
    77   100    97    1
    78    89    90    1
    79    22    25    1
    80    96    90   am
    81    96    97    1
    82   131   130    1
    83   138   137    1
    84    95    93   ar
    85    90    91    2
    86   133   130    1
    87   133   134    1
    88    93    94   ar
    89    97    98    1
    90    25    26    1
    91   130   129    1
    92   134   135    1
    93   135   136    1
    94   137   136    2
    95   137   139    1
    96    98   106   am
    97    98    99    2
    98   106   107    1
    99    26    27   ar
   100    26    28   ar
   101   109   108    2
   102   118   116   ar
   103   118   119   ar
   104    27    29   ar
   105    28    30   ar
   106   116   113   ar
   107   119   117   ar
   108   113   115   ar
   109   113   111   ar
   110   117   115   ar
   111   107   110    1
   112   107   108    1
   113   115   114   ar
   114   110   111    1
   115   108   120   am
   116   111   112   ar
   117   114   112   ar
   118   128   127    1
   119    29    31   ar
   120    30    31   ar
   121   123   122    2
   122    31    32    1
   123   122   121    1
   124   120   121    1
   125   121   124    1
   126     4     3    2
   127   126   127    1
   128   126   125    1
   129     7     6    1
   130     7     8    1
   131     6     5    1
   132     3     2    1
   133   124   125    1
   134     5     2    1
   135     2     1    1
