@<TRIPOS>MOLECULE
tmp/5k0fB01.pdb
 96 94 0 0 0
SMALL
GASTEIGER

@<TRIPOS>ATOM
      1  N          9.4410  -28.5520    1.4860 N.3     4  LYS4       -0.1231
      2  CA        10.4480  -29.4150    0.8850 C.3     4  LYS4        0.1693
      3  C         10.1870  -30.8730    1.2600 C.2     4  LYS4        0.2591
      4  O         10.3550  -31.7720    0.4360 O.2     4  LYS4       -0.2718
      5  CB        11.8630  -29.0030    1.3260 C.3     4  LYS4        0.0285
      6  CG        12.9500  -29.9500    0.8410 C.3     4  LYS4        0.0035
      7  CD        14.3240  -29.5070    1.3260 C.3     4  LYS4        0.0206
      8  CE        14.6150  -28.0870    0.8830 C.3     4  LYS4        0.1093
      9  NZ        15.9550  -27.6260    1.3450 N.3     4  LYS4       -0.1314
     10  N          9.7790  -31.1120    2.5020 N.am    5  GLU5       -0.1979
     11  CA         9.5570  -32.4840    2.9400 C.3     5  GLU5        0.1602
     12  C          8.3670  -33.1050    2.2170 C.2     5  GLU5        0.2287
     13  O          8.4060  -34.2780    1.8440 O.2     5  GLU5       -0.2864
     14  CB         9.3610  -32.5470    4.4540 C.3     5  GLU5        0.0415
     15  CG        10.6420  -32.1650    5.2310 C.3     5  GLU5        0.1163
     16  CD        10.8220  -30.6710    5.3870 C.2     5  GLU5        0.3649
     17  OE1        9.8080  -29.9430    5.3390 O.co2   5  GLU5       -0.2457
     18  OE2       11.9750  -30.2260    5.5700 O.co2   5  GLU5       -0.2457
     19  N         18.2760  -29.7770   -2.6900 N.3    37  TRP37      -0.1227
     20  CA        19.0700  -30.2590   -1.5660 C.3    37  TRP37       0.1737
     21  C         18.1750  -30.4620   -0.3570 C.2    37  TRP37       0.2595
     22  O         17.2480  -29.6860   -0.1240 O.2    37  TRP37      -0.2718
     23  CB        20.2090  -29.2910   -1.2010 C.3    37  TRP37       0.0564
     24  CG        20.8820  -29.6660    0.1050 C.ar   37  TRP37       0.0003
     25  CD1       21.9560  -30.4960    0.2690 C.ar   37  TRP37       0.0946
     26  CD2       20.4910  -29.2550    1.4260 C.ar   37  TRP37       0.0152
     27  NE1       22.2670  -30.6130    1.6050 N.ar   37  TRP37      -0.2442
     28  CE2       21.3840  -29.8630    2.3340 C.ar   37  TRP37       0.0810
     29  CE3       19.4770  -28.4300    1.9230 C.ar   37  TRP37       0.0012
     30  CZ2       21.2930  -29.6680    3.7120 C.ar   37  TRP37       0.0191
     31  CZ3       19.3880  -28.2380    3.2850 C.ar   37  TRP37       0.0001
     32  CH2       20.2920  -28.8550    4.1670 C.ar   37  TRP37       0.0015
     33  N         18.4550  -31.5080    0.4040 N.am   38  ALA38      -0.1966
     34  CA        17.8070  -31.7030    1.6970 C.3    38  ALA38       0.1728
     35  C         18.7610  -32.4410    2.6080 C.2    38  ALA38       0.2616
     36  O         19.6850  -33.0990    2.1220 O.2    38  ALA38      -0.2715
     37  CB        16.4950  -32.4790    1.5450 C.3    38  ALA38       0.0334
     38  N         18.5520  -32.3240    3.9200 N.am   39  MET39      -0.1977
     39  CA        19.2740  -33.1490    4.8760 C.3    39  MET39       0.1605
     40  C         19.0220  -34.6010    4.5270 C.2    39  MET39       0.2287
     41  O         17.8860  -35.0650    4.5560 O.2    39  MET39      -0.2864
     42  CB        18.8310  -32.8860    6.3200 C.3    39  MET39       0.0413
     43  CG        19.0650  -31.4880    6.8490 C.3    39  MET39       0.0598
     44  SD        18.5890  -31.3450    8.6030 S.3    39  MET39      -0.1393
     45  CE        16.7980  -31.2390    8.4760 C.3    39  MET39       0.0692
     46  N         13.6160  -37.4120   10.4640 N.3    67  TYR67      -0.1241
     47  CA        13.3830  -36.4260    9.3990 C.3    67  TYR67       0.1605
     48  C         12.3030  -36.9130    8.4030 C.2    67  TYR67       0.2264
     49  O         11.1250  -36.9080    8.7540 O.2    67  TYR67      -0.2867
     50  CB        14.6940  -36.0580    8.6770 C.3    67  TYR67       0.0534
     51  CG        14.5450  -34.8660    7.7390 C.ar   67  TYR67      -0.0201
     52  CD1       13.7200  -33.7920    8.0760 C.ar   67  TYR67      -0.0009
     53  CD2       15.2150  -34.8180    6.5280 C.ar   67  TYR67      -0.0009
     54  CE1       13.5650  -32.6920    7.2100 C.ar   67  TYR67       0.0417
     55  CE2       15.0740  -33.7320    5.6640 C.ar   67  TYR67       0.0417
     56  CZ        14.2460  -32.6730    6.0120 C.ar   67  TYR67       0.1957
     57  OH        14.0950  -31.6040    5.1450 O.3    67  TYR67      -0.2866
     58  N         11.3860  -38.5980   16.4060 N.3    89  GLU89      -0.1231
     59  CA        11.3620  -37.4260   15.5330 C.3    89  GLU89       0.1699
     60  C         10.6960  -36.2770   16.2820 C.2    89  GLU89       0.2592
     61  O          9.5660  -36.4250   16.7400 O.2    89  GLU89      -0.2718
     62  CB        10.6180  -37.7480   14.2330 C.3    89  GLU89       0.0402
     63  CG        10.3300  -36.5380   13.3500 C.3    89  GLU89       0.1161
     64  CD        11.5630  -35.6900   13.1120 C.2    89  GLU89       0.3649
     65  OE1       12.6230  -36.2600   12.7460 O.co2  89  GLU89      -0.2457
     66  OE2       11.4800  -34.4550   13.3150 O.co2  89  GLU89      -0.2457
     67  N         11.3890  -35.1450   16.4200 N.am   90  ILE90      -0.1966
     68  CA        10.8920  -34.0770   17.2930 C.3    90  ILE90       0.1727
     69  C          9.8050  -33.2360   16.6030 C.2    90  ILE90       0.2616
     70  O          8.9390  -32.6720   17.2690 O.2    90  ILE90      -0.2715
     71  CB        12.0520  -33.1620   17.7890 C.3    90  ILE90       0.0290
     72  CG1       11.6120  -32.3400   19.0060 C.3    90  ILE90       0.0022
     73  CG2       12.5970  -32.2840   16.6660 C.3    90  ILE90       0.0023
     74  CD1       12.7740  -31.8170   19.8530 C.3    90  ILE90       0.0001
     75  N          9.8420  -33.1810   15.2760 N.am   91  ASN91      -0.1972
     76  CA         8.8910  -32.3610   14.5200 C.3    91  ASN91       0.1688
     77  C          7.7020  -33.1870   14.0410 C.2    91  ASN91       0.2292
     78  O          7.8770  -34.1880   13.3490 O.2    91  ASN91      -0.2864
     79  CB         9.5780  -31.6990   13.3240 C.3    91  ASN91       0.1181
     80  CG         8.6530  -30.7400   12.5800 C.2    91  ASN91       0.2629
     81  OD1        7.8550  -31.1550   11.7460 O.2    91  ASN91      -0.2716
     82  ND2        8.7610  -29.4540   12.8900 N.am   91  ASN91      -0.0877
     83  N          5.2920  -32.6620   11.8030 N.3    93  ASP93      -0.1225
     84  CA         5.0580  -32.7500   10.3650 C.3    93  ASP93       0.1805
     85  C          6.0240  -33.7360    9.7290 C.2    93  ASP93       0.2598
     86  O          5.6490  -34.4920    8.8390 O.2    93  ASP93      -0.2718
     87  CB         5.1900  -31.3780    9.6950 C.3    93  ASP93       0.1424
     88  CG         4.0070  -30.4720    9.9900 C.2    93  ASP93       0.3668
     89  OD1        2.8950  -30.9940   10.2140 O.co2  93  ASP93      -0.2456
     90  OD2        4.1890  -29.2400   10.0090 O.co2  93  ASP93      -0.2456
     91  N          7.2720  -33.7140   10.1870 N.am   94  CYS94      -0.1970
     92  CA         8.2630  -34.6810    9.7280 C.3    94  CYS94       0.1712
     93  C          7.9200  -36.1010   10.1910 C.2    94  CYS94       0.2296
     94  O          8.1340  -37.0660    9.4620 O.2    94  CYS94      -0.2864
     95  CB         9.6630  -34.2840   10.2170 C.3    94  CYS94       0.0983
     96  SG        10.3100  -32.7980    9.3830 S.3    94  CYS94      -0.0798
@<TRIPOS>BOND
     1    19    20    1
     2    20    23    1
     3    20    21    1
     4    23    24    1
     5    21    22    2
     6    21    33   am
     7    24    25   ar
     8    24    26   ar
     9    25    27   ar
    10    33    34    1
    11     4     3    2
    12     6     5    1
    13     6     7    1
    14     8     7    1
    15     8     9    1
    16     2     3    1
    17     2     5    1
    18     2     1    1
    19     3    10   am
    20    26    29   ar
    21    26    28   ar
    22    37    34    1
    23    27    28   ar
    24    34    35    1
    25    13    12    2
    26    29    31   ar
    27    36    35    2
    28    12    11    1
    29    28    30   ar
    30    10    11    1
    31    35    38   am
    32    11    14    1
    33    31    32   ar
    34    30    32   ar
    35    38    39    1
    36    14    15    1
    37    40    41    2
    38    40    39    1
    39    39    42    1
    40    57    56    1
    41    15    16    1
    42    17    16   ar
    43    16    18   ar
    44    55    56   ar
    45    55    53   ar
    46    56    54   ar
    47    42    43    1
    48    53    51   ar
    49    43    44    1
    50    54    52   ar
    51    51    52   ar
    52    51    50    1
    53    48    49    2
    54    48    47    1
    55    45    44    1
    56    50    47    1
    57    86    85    2
    58    96    95    1
    59    47    46    1
    60    94    93    2
    61    87    88    1
    62    87    84    1
    63    92    91    1
    64    92    93    1
    65    92    95    1
    66    85    91   am
    67    85    84    1
    68    88    90   ar
    69    88    89   ar
    70    84    83    1
    71    81    80    2
    72    80    82   am
    73    80    79    1
    74    65    64   ar
    75    64    66   ar
    76    64    63    1
    77    79    76    1
    78    78    77    2
    79    63    62    1
    80    77    76    1
    81    62    59    1
    82    76    75    1
    83    75    69   am
    84    59    60    1
    85    59    58    1
    86    60    67   am
    87    60    61    2
    88    67    68    1
    89    69    70    2
    90    69    68    1
    91    73    71    1
    92    68    71    1
    93    71    72    1
    94    72    74    1
