@<TRIPOS>MOLECULE
tmp/5k0gA01.pdb
 138 134 0 0 0
SMALL
GASTEIGER

@<TRIPOS>ATOM
      1  N         24.9150  -22.3400   13.4750 N.3    39  MET39      -0.1245
      2  CA        24.2820  -21.5520   12.4240 C.3    39  MET39       0.1570
      3  C         24.5230  -20.0950   12.7690 C.2    39  MET39       0.2261
      4  O         23.9890  -19.5850   13.7540 O.2    39  MET39      -0.2867
      5  CB        22.7750  -21.8240   12.3080 C.3    39  MET39       0.0387
      6  CG        22.3740  -23.2760   12.1040 C.3    39  MET39       0.0595
      7  SD        20.6040  -23.4870   11.7260 S.3    39  MET39      -0.1393
      8  CE        19.8280  -23.2230   13.3180 C.3    39  MET39       0.0692
      9  N         13.3700  -12.6880    9.7120 N.3    64  LEU64      -0.1231
     10  CA        12.8260  -14.0530    9.8030 C.3    64  LEU64       0.1693
     11  C         13.9300  -15.0380   10.2120 C.2    64  LEU64       0.2592
     12  O         14.8790  -15.2680    9.4470 O.2    64  LEU64      -0.2718
     13  CB        12.2020  -14.5020    8.4620 C.3    64  LEU64       0.0284
     14  CG        11.1460  -13.5870    7.8230 C.3    64  LEU64       0.0019
     15  CD1       10.5680  -14.1930    6.5230 C.3    64  LEU64       0.0001
     16  CD2       10.0180  -13.2660    8.8110 C.3    64  LEU64       0.0001
     17  N         13.8030  -15.6140   11.4050 N.am   65  GLY65      -0.1957
     18  CA        14.7450  -16.6190   11.8930 C.3    65  GLY65       0.1869
     19  C         15.8360  -16.0870   12.8160 C.2    65  GLY65       0.2309
     20  O         17.0150  -16.1610   12.4800 O.2    65  GLY65      -0.2863
     21  N         17.1700  -17.1210   15.5970 N.3    67  TYR67      -0.1241
     22  CA        18.0310  -18.1340   16.2150 C.3    67  TYR67       0.1605
     23  C         18.5340  -17.6670   17.5960 C.2    67  TYR67       0.2264
     24  O         17.7560  -17.6250   18.5510 O.2    67  TYR67      -0.2867
     25  CB        19.2040  -18.5040   15.2980 C.3    67  TYR67       0.0534
     26  CG        19.9610  -19.7220   15.7690 C.ar   67  TYR67      -0.0201
     27  CD1       19.3100  -20.7600   16.4370 C.ar   67  TYR67      -0.0009
     28  CD2       21.3280  -19.8200   15.5800 C.ar   67  TYR67      -0.0009
     29  CE1       20.0240  -21.8790   16.8910 C.ar   67  TYR67       0.0417
     30  CE2       22.0360  -20.9140   16.0230 C.ar   67  TYR67       0.0417
     31  CZ        21.3900  -21.9410   16.6750 C.ar   67  TYR67       0.1957
     32  OH        22.1360  -23.0180   17.1090 O.3    67  TYR67      -0.2866
     33  N         11.1900  -12.7000   14.1320 N.3    88  MET88      -0.1230
     34  CA        10.3730  -13.8920   14.2830 C.3    88  MET88       0.1702
     35  C         11.2510  -15.1070   14.4810 C.2    88  MET88       0.2592
     36  O         12.2280  -15.3020   13.7550 O.2    88  MET88      -0.2718
     37  CB         9.4880  -14.0910   13.0640 C.3    88  MET88       0.0401
     38  CG         8.5080  -12.9470   12.8420 C.3    88  MET88       0.0596
     39  SD         7.4220  -13.2840   11.4420 S.3    88  MET88      -0.1393
     40  CE         6.3230  -11.8550   11.5810 C.3    88  MET88       0.0692
     41  N         10.8950  -15.9210   15.4660 N.am   89  GLU89      -0.1966
     42  CA        11.7020  -17.0900   15.8210 C.3    89  GLU89       0.1733
     43  C         10.7380  -18.2180   16.1490 C.2    89  GLU89       0.2616
     44  O          9.8760  -18.0600   17.0100 O.2    89  GLU89      -0.2715
     45  CB        12.6300  -16.7650   16.9940 C.3    89  GLU89       0.0429
     46  CG        13.3330  -17.9690   17.5980 C.3    89  GLU89       0.1163
     47  CD        13.8950  -18.8940   16.5480 C.2    89  GLU89       0.3649
     48  OE1       14.6730  -18.4210   15.6810 O.co2  89  GLU89      -0.2457
     49  OE2       13.5440  -20.0920   16.5830 O.co2  89  GLU89      -0.2457
     50  N         10.8400  -19.3350   15.4310 N.am   90  ILE90      -0.1963
     51  CA         9.8240  -20.3730   15.5830 C.3    90  ILE90       0.1727
     52  C         10.0320  -21.2210   16.8480 C.2    90  ILE90       0.2616
     53  O          9.0830  -21.7920   17.3780 O.2    90  ILE90      -0.2715
     54  CB         9.7590  -21.2940   14.3340 C.3    90  ILE90       0.0290
     55  CG1        8.4430  -22.0800   14.3240 C.3    90  ILE90       0.0022
     56  CG2       10.9430  -22.2580   14.2700 C.3    90  ILE90       0.0023
     57  CD1        8.0650  -22.5920   12.9500 C.3    90  ILE90       0.0001
     58  N         11.2610  -21.2860   17.3440 N.am   91  ASN91      -0.1972
     59  CA        11.5620  -22.1480   18.5030 C.3    91  ASN91       0.1688
     60  C         11.5740  -21.3510   19.8040 C.2    91  ASN91       0.2292
     61  O         12.3000  -20.3680   19.9250 O.2    91  ASN91      -0.2864
     62  CB        12.8970  -22.8670   18.3140 C.3    91  ASN91       0.1181
     63  CG        13.2390  -23.7720   19.4900 C.2    91  ASN91       0.2629
     64  OD1       13.7690  -23.3110   20.5010 O.2    91  ASN91      -0.2716
     65  ND2       12.9080  -25.0560   19.3770 N.am   91  ASN91      -0.0877
     66  N         14.9720  -20.8050   21.5790 N.3    94  CYS94      -0.1235
     67  CA        15.8200  -19.8670   20.8550 C.3    94  CYS94       0.1677
     68  C         15.2870  -18.4470   20.9950 C.2    94  CYS94       0.2270
     69  O         16.0650  -17.5000   21.0480 O.2    94  CYS94      -0.2867
     70  CB        15.9270  -20.2450   19.3750 C.3    94  CYS94       0.0956
     71  SG        16.8540  -21.7340   19.1380 S.3    94  CYS94      -0.0801
     72  N          6.8390  -17.6370   16.8050 N.3   116  GLY116     -0.1210
     73  CA         5.8830  -18.4020   16.0340 C.3   116  GLY116      0.1956
     74  C          6.3820  -18.6670   14.6330 C.2   116  GLY116      0.2612
     75  O          7.5100  -18.3090   14.2990 O.2   116  GLY116     -0.2717
     76  N          5.5480  -19.3010   13.8110 N.am  117  ALA117     -0.1965
     77  CA         5.9110  -19.5390   12.4200 C.3   117  ALA117      0.1728
     78  C          5.6570  -18.2770   11.5900 C.2   117  ALA117      0.2617
     79  O          4.6910  -17.5480   11.8250 O.2   117  ALA117     -0.2715
     80  CB         5.1460  -20.7100   11.8630 C.3   117  ALA117      0.0334
     81  N          6.5390  -18.0160   10.6330 N.am  118  SER118     -0.1936
     82  CA         6.4160  -16.8550    9.7550 C.3   118  SER118      0.2055
     83  C          5.0620  -16.7690    9.0650 C.2   118  SER118      0.2642
     84  O          4.4560  -15.7000    9.0310 O.2   118  SER118     -0.2714
     85  CB         7.5000  -16.8840    8.6830 C.3   118  SER118      0.2130
     86  OG         7.4400  -18.1240    8.0080 O.3   118  SER118     -0.2179
     87  N          4.5740  -17.8830    8.5240 N.am  119  GLN119     -0.1976
     88  CA         3.3250  -17.8010    7.7610 C.3   119  GLN119      0.1601
     89  C          2.1180  -17.5080    8.6720 C.2   119  GLN119      0.2287
     90  O          1.0660  -17.0720    8.1940 O.2   119  GLN119     -0.2864
     91  CB         3.0960  -19.0810    6.9320 C.3   119  GLN119      0.0394
     92  CG         2.7240  -20.3390    7.7110 C.3   119  GLN119      0.0908
     93  CD         3.9160  -21.0610    8.3360 C.2   119  GLN119      0.2608
     94  OE1        5.0630  -20.6330    8.2160 O.2   119  GLN119     -0.2717
     95  NE2        3.6390  -22.1770    9.0020 N.am  119  GLN119     -0.0878
     96  N         16.4150  -15.3880    6.9050 N.3   140  ASP140     -0.1225
     97  CA        17.4280  -16.3530    7.3120 C.3   140  ASP140      0.1805
     98  C         16.7890  -17.4830    8.1170 C.2   140  ASP140      0.2598
     99  O         17.3920  -18.0100    9.0490 O.2   140  ASP140     -0.2718
    100  CB        18.5290  -15.6620    8.1310 C.3   140  ASP140      0.1424
    101  CG        19.7860  -16.5160    8.2500 C.2   140  ASP140      0.3668
    102  OD1       19.9850  -17.3880    7.3770 O.co2 140  ASP140     -0.2456
    103  OD2       20.5580  -16.3260    9.2130 O.co2 140  ASP140     -0.2456
    104  N         15.5560  -17.8390    7.7610 N.am  141  HIS141     -0.1961
    105  CA        14.8390  -18.8910    8.4610 C.3   141  HIS141      0.1787
    106  C         14.9010  -20.1540    7.5960 C.2   141  HIS141      0.2620
    107  O         15.9470  -20.4470    7.0120 O.2   141  HIS141     -0.2715
    108  CB        13.3870  -18.4510    8.8000 C.3   141  HIS141      0.0785
    109  CG        12.5460  -18.0660    7.6150 C.ar  141  HIS141      0.0821
    110  ND1       13.0620  -17.4840    6.4720 N.ar  141  HIS141     -0.2267
    111  CD2       11.2050  -18.1580    7.4150 C.ar  141  HIS141      0.1154
    112  CE1       12.0810  -17.2480    5.6160 C.ar  141  HIS141      0.1986
    113  NE2       10.9440  -17.6530    6.1610 N.ar  141  HIS141     -0.2212
    114  N         13.8190  -20.9190    7.5030 N.am  142  TRP142     -0.1974
    115  CA        13.8810  -22.1530    6.7150 C.3   142  TRP142      0.1640
    116  C         13.9430  -21.8170    5.2380 C.2   142  TRP142      0.2290
    117  O         13.1910  -20.9730    4.7610 O.2   142  TRP142     -0.2864
    118  CB        12.6890  -23.0490    7.0210 C.3   142  TRP142      0.0576
    119  CG        12.7430  -23.6090    8.3980 C.ar  142  TRP142      0.0006
    120  CD1       13.8290  -23.6350    9.2360 C.ar  142  TRP142      0.0946
    121  CD2       11.6650  -24.2160    9.1170 C.ar  142  TRP142      0.0152
    122  NE1       13.4880  -24.2320   10.4320 N.ar  142  TRP142     -0.2442
    123  CE2       12.1680  -24.6010   10.3810 C.ar  142  TRP142      0.0810
    124  CE3       10.3230  -24.4870    8.8070 C.ar  142  TRP142      0.0012
    125  CZ2       11.3740  -25.2210   11.3410 C.ar  142  TRP142      0.0191
    126  CZ3        9.5400  -25.1030    9.7580 C.ar  142  TRP142      0.0001
    127  CH2       10.0690  -25.4690   11.0090 C.ar  142  TRP142      0.0015
    128  N         11.0790  -21.7050    2.7440 N.3   145  ARG145     -0.1245
    129  CA        10.0530  -20.7180    3.0440 C.3   145  ARG145      0.1563
    130  C         10.3660  -19.3420    2.4720 C.2   145  ARG145      0.2260
    131  O          9.5290  -18.4490    2.5480 O.2   145  ARG145     -0.2867
    132  CB         9.8540  -20.5940    4.5580 C.3   145  ARG145      0.0307
    133  CG         9.5410  -21.8990    5.2380 C.3   145  ARG145      0.0489
    134  CD         8.4430  -22.6890    4.5000 C.3   145  ARG145      0.2205
    135  NE         8.3760  -24.0160    5.1060 N.pl3 145  ARG145     -0.0865
    136  CZ         7.6410  -24.3080    6.1670 C.cat 145  ARG145      0.5346
    137  NH1        6.8830  -23.3670    6.7190 N.pl3 145  ARG145      0.1354
    138  NH2        7.6650  -25.5400    6.6730 N.pl3 145  ARG145      0.1354
@<TRIPOS>BOND
     1   130   131    2
     2   130   129    1
     3   128   129    1
     4   129   132    1
     5   134   135    1
     6   134   133    1
     7   132   133    1
     8   117   116    2
     9   135   136    2
    10   116   115    1
    11   112   113   ar
    12   112   110   ar
    13   113   111   ar
    14   136   138    1
    15   136   137    1
    16   110   109   ar
    17    15    14    1
    18   115   118    1
    19   115   114    1
    20    96    97    1
    21    91    92    1
    22    91    88    1
    23   107   106    2
    24   118   119    1
    25    97    98    1
    26    97   100    1
    27   102   101   ar
    28   111   109   ar
    29   114   106   am
    30   106   105    1
    31   109   108    1
    32    92    93    1
    33    88    87    1
    34    88    89    1
    35   104    98   am
    36   104   105    1
    37    14    13    1
    38    14    16    1
    39    86    85    1
    40    98    99    2
    41   100   101    1
    42    90    89    2
    43    94    93    2
    44   101   103   ar
    45    93    95   am
    46   119   121   ar
    47   119   120   ar
    48   105   108    1
    49    13    10    1
    50    87    83   am
    51    85    82    1
    52   124   121   ar
    53   124   126   ar
    54    84    83    2
    55    83    82    1
    56   121   123   ar
    57   120   122   ar
    58    12    11    2
    59     9    10    1
    60    82    81    1
    61   126   127   ar
    62    10    11    1
    63    11    17   am
    64   123   122   ar
    65   123   125   ar
    66    81    78   am
    67   127   125   ar
    68    17    18    1
    69    39    40    1
    70    39    38    1
    71    78    79    2
    72    78    77    1
    73     7     6    1
    74     7     8    1
    75    80    77    1
    76    18    19    1
    77     6     5    1
    78     5     2    1
    79    77    76    1
    80     2     3    1
    81     2     1    1
    82    20    19    2
    83     3     4    2
    84    38    37    1
    85    57    55    1
    86    37    34    1
    87    36    35    2
    88    76    74   am
    89    33    34    1
    90    56    54    1
    91    34    35    1
    92    75    74    2
    93    55    54    1
    94    54    51    1
    95    35    41   am
    96    74    73    1
    97    25    26    1
    98    25    22    1
    99    50    51    1
   100    50    43   am
   101    41    42    1
   102    28    26   ar
   103    28    30   ar
   104    51    52    1
   105    21    22    1
   106    48    47   ar
   107    26    27   ar
   108    42    43    1
   109    42    45    1
   110    30    31   ar
   111    73    72    1
   112    43    44    2
   113    22    23    1
   114    27    29   ar
   115    47    49   ar
   116    47    46    1
   117    31    29   ar
   118    31    32    1
   119    52    58   am
   120    52    53    2
   121    45    46    1
   122    58    59    1
   123    23    24    2
   124    62    59    1
   125    62    63    1
   126    59    60    1
   127    71    70    1
   128    70    67    1
   129    65    63   am
   130    63    64    2
   131    60    61    2
   132    67    68    1
   133    67    66    1
   134    68    69    2
