@<TRIPOS>MOLECULE
tmp/5k0hA00.pdb
 217 215 0 0 0
SMALL
GASTEIGER

@<TRIPOS>ATOM
      1  N         13.3490   11.0850   13.8310 N.3    42  HIS42      -0.1241
      2  CA        11.8860   11.1050   13.8520 C.3    42  HIS42       0.1621
      3  C         11.3400   12.4470   14.3140 C.2    42  HIS42       0.2264
      4  O         10.1280   12.6570   14.3490 O.2    42  HIS42      -0.2867
      5  CB        11.3170    9.9760   14.7280 C.3    42  HIS42       0.0745
      6  CG        11.3100   10.2780   16.1940 C.ar   42  HIS42       0.0817
      7  ND1       12.3750    9.9930   17.0200 N.ar   42  HIS42      -0.2268
      8  CD2       10.3570   10.8280   16.9840 C.ar   42  HIS42       0.1154
      9  CE1       12.0770   10.3500   18.2570 C.ar   42  HIS42       0.1986
     10  NE2       10.8580   10.8600   18.2620 N.ar   42  HIS42      -0.2212
     11  N         10.4810    4.9260   10.2610 N.3    82  LYS82      -0.1231
     12  CA         9.4770    4.9250   11.3140 C.3    82  LYS82       0.1693
     13  C          8.9330    3.5300   11.6240 C.2    82  LYS82       0.2592
     14  O          8.2290    3.3360   12.6190 O.2    82  LYS82      -0.2718
     15  CB         8.3350    5.8610   10.9090 C.3    82  LYS82       0.0285
     16  CG         7.9470    5.7350    9.4410 C.3    82  LYS82       0.0035
     17  CD         6.9890    6.8420    9.0060 C.3    82  LYS82       0.0206
     18  CE         6.6370    6.7140    7.5260 C.3    82  LYS82       0.1093
     19  NZ         5.7070    7.7860    7.0650 N.3    82  LYS82      -0.1314
     20  N          9.2700    2.5580   10.7790 N.am   83  GLU83      -0.1966
     21  CA         8.7970    1.1910   10.9650 C.3    83  GLU83       0.1733
     22  C          9.5030    0.4870   12.1180 C.2    83  GLU83       0.2617
     23  O          8.8980   -0.3200   12.8230 O.2    83  GLU83      -0.2715
     24  CB         9.0070    0.3710    9.6880 C.3    83  GLU83       0.0429
     25  CG         8.4380    0.9840    8.4130 C.3    83  GLU83       0.1163
     26  CD         6.9420    1.2330    8.4850 C.2    83  GLU83       0.3649
     27  OE1        6.1940    0.2940    8.8450 O.co2  83  GLU83      -0.2457
     28  OE2        6.5180    2.3700    8.1720 O.co2  83  GLU83      -0.2457
     29  N         10.7830    0.7910   12.3050 N.am   84  THR84      -0.1937
     30  CA        11.5740    0.1640   13.3610 C.3    84  THR84       0.2028
     31  C         12.2180    1.1700   14.3050 C.2    84  THR84       0.2642
     32  O         12.7220    0.7950   15.3630 O.2    84  THR84      -0.2714
     33  CB        12.7060   -0.6750   12.7600 C.3    84  THR84       0.1808
     34  OG1       13.4970    0.1580   11.9030 O.3    84  THR84      -0.2208
     35  CG2       12.1450   -1.8410   11.9500 C.3    84  THR84       0.0379
     36  N         12.1880    2.4420   13.9250 N.am   85  TYR85      -0.1973
     37  CA        12.8130    3.4990   14.7110 C.3    85  TYR85       0.1639
     38  C         14.3060    3.2500   14.8650 C.2    85  TYR85       0.2290
     39  O         14.9430    3.7380   15.8040 O.2    85  TYR85      -0.2864
     40  CB        12.1630    3.6410   16.0870 C.3    85  TYR85       0.0560
     41  CG        11.0320    4.6370   16.0790 C.ar   85  TYR85      -0.0198
     42  CD1        9.7620    4.2750   15.6360 C.ar   85  TYR85      -0.0009
     43  CD2       11.2490    5.9640   16.4440 C.ar   85  TYR85      -0.0009
     44  CE1        8.7360    5.2100   15.5550 C.ar   85  TYR85       0.0417
     45  CE2       10.2320    6.9080   16.3600 C.ar   85  TYR85       0.0417
     46  CZ         8.9780    6.5230   15.9160 C.ar   85  TYR85       0.1957
     47  OH         7.9640    7.4480   15.8360 O.3    85  TYR85      -0.2866
     48  N          6.8780   15.7060   28.3460 N.3   132  ARG132     -0.1245
     49  CA         5.7920   15.5050   29.3060 C.3   132  ARG132      0.1563
     50  C          6.2980   14.9730   30.6350 C.2   132  ARG132      0.2260
     51  O          7.2350   14.1690   30.6750 O.2   132  ARG132     -0.2867
     52  CB         4.7720   14.5100   28.7590 C.3   132  ARG132      0.0307
     53  CG         4.2130   14.8560   27.4020 C.3   132  ARG132      0.0489
     54  CD         3.1960   13.8140   26.9770 C.3   132  ARG132      0.2205
     55  NE         2.6510   14.1030   25.6570 N.pl3 132  ARG132     -0.0865
     56  CZ         1.5980   13.4810   25.1410 C.cat 132  ARG132      0.5346
     57  NH1        0.9810   12.5340   25.8380 N.pl3 132  ARG132      0.1354
     58  NH2        1.1620   13.8080   23.9330 N.pl3 132  ARG132      0.1354
     59  N          2.6850   10.4240   31.2780 N.3   135  GLU135     -0.1245
     60  CA         2.3390    9.8560   29.9810 C.3   135  GLU135      0.1567
     61  C          1.2420   10.6140   29.2200 C.2   135  GLU135      0.2260
     62  O          1.3860   10.8710   28.0240 O.2   135  GLU135     -0.2867
     63  CB         1.9440    8.3870   30.1490 C.3   135  GLU135      0.0388
     64  CG         2.1800    7.5460   28.9110 C.3   135  GLU135      0.1160
     65  CD         1.8930    6.0770   29.1360 C.2   135  GLU135      0.3649
     66  OE1        2.4210    5.5020   30.1120 O.co2 135  GLU135     -0.2457
     67  OE2        1.1440    5.4920   28.3270 O.co2 135  GLU135     -0.2457
     68  N          9.0830   -4.7510   21.0310 N.3   162  PHE162     -0.1227
     69  CA         9.6610   -4.3870   19.7430 C.3   162  PHE162      0.1736
     70  C         11.1480   -4.7010   19.7420 C.2   162  PHE162      0.2595
     71  O         11.7670   -4.7920   20.7990 O.2   162  PHE162     -0.2718
     72  CB         9.4170   -2.9030   19.4860 C.3   162  PHE162      0.0547
     73  CG         7.9640   -2.5400   19.4720 C.ar  162  PHE162     -0.0202
     74  CD1        7.2090   -2.6840   18.3130 C.ar  162  PHE162     -0.0042
     75  CD2        7.3290   -2.1310   20.6390 C.ar  162  PHE162     -0.0042
     76  CE1        5.8390   -2.4300   18.3180 C.ar  162  PHE162     -0.0003
     77  CE2        5.9590   -1.8760   20.6570 C.ar  162  PHE162     -0.0003
     78  CZ         5.2130   -2.0270   19.4950 C.ar  162  PHE162     -0.0000
     79  N         11.7170   -4.8640   18.5540 N.am  163  ILE163     -0.1980
     80  CA        13.1250   -5.2020   18.4350 C.3   163  ILE163      0.1595
     81  C         14.0850   -4.0990   18.8510 C.2   163  ILE163      0.2287
     82  O         13.9850   -2.9570   18.4030 O.2   163  ILE163     -0.2864
     83  CB        13.4770   -5.6440   16.9910 C.3   163  ILE163      0.0276
     84  CG1       12.8100   -6.9840   16.6870 C.3   163  ILE163      0.0022
     85  CG2       14.9860   -5.7890   16.8370 C.3   163  ILE163      0.0022
     86  CD1       13.2450   -8.1070   17.6280 C.3   163  ILE163      0.0001
     87  N         11.2670    8.3790   33.9430 N.3   179  ASP179     -0.1225
     88  CA        11.6170    8.0190   32.5760 C.3   179  ASP179      0.1805
     89  C         11.4980    9.2460   31.6810 C.2   179  ASP179      0.2598
     90  O         10.9140   10.2550   32.0780 O.2   179  ASP179     -0.2718
     91  CB        10.6440    6.9260   32.1140 C.3   179  ASP179      0.1424
     92  CG        10.9920    6.3460   30.7600 C.2   179  ASP179      0.3668
     93  OD1       12.1520    6.4910   30.3210 O.co2 179  ASP179     -0.2456
     94  OD2       10.0960    5.7210   30.1430 O.co2 179  ASP179     -0.2456
     95  N         12.0750    9.1780   30.4850 N.am  180  ALA180     -0.1966
     96  CA        11.9420   10.2820   29.5500 C.3   180  ALA180      0.1728
     97  C         10.5280   10.0640   29.0220 C.2   180  ALA180      0.2616
     98  O          9.8690    9.1030   29.4160 O.2   180  ALA180     -0.2715
     99  CB        12.9520   10.1630   28.4280 C.3   180  ALA180      0.0334
    100  N         10.0590   10.9320   28.1350 N.am  181  CYS181     -0.1954
    101  CA         8.7150   10.7780   27.6070 C.3   181  CYS181      0.1843
    102  C          8.5830   11.5760   26.3220 C.2   181  CYS181      0.2625
    103  O          9.5510   12.1860   25.8680 O.2   181  CYS181     -0.2714
    104  CB         7.6990   11.2620   28.6470 C.3   181  CYS181      0.0997
    105  SG         5.9910   10.6830   28.3790 S.3   181  CYS181     -0.0797
    106  N          7.3880   11.5680   25.7400 N.am  182  GLN182     -0.1977
    107  CA         7.1260   12.2930   24.5010 C.3   182  GLN182      0.1601
    108  C          7.5130   13.7570   24.7000 C.2   182  GLN182      0.2287
    109  O          7.2110   14.3570   25.7360 O.2   182  GLN182     -0.2864
    110  CB         5.6380   12.1720   24.1340 C.3   182  GLN182      0.0394
    111  CG         5.3340   12.2940   22.6460 C.3   182  GLN182      0.0908
    112  CD         5.1590   13.7290   22.1800 C.2   182  GLN182      0.2608
    113  OE1        5.3020   14.0280   20.9910 O.2   182  GLN182     -0.2717
    114  NE2        4.8300   14.6230   23.1120 N.am  182  GLN182     -0.0878
    115  N         12.2130   13.5330   22.9090 N.3   185  SER185     -0.1217
    116  CA        12.8670   12.9930   21.7180 C.3   185  SER185      0.1889
    117  C         13.9470   13.9010   21.1510 C.2   185  SER185      0.2288
    118  O         13.7680   15.1170   21.0640 O.2   185  SER185     -0.2866
    119  CB        11.8410   12.7500   20.6140 C.3   185  SER185      0.2089
    120  OG        10.7670   11.9740   21.0810 O.3   185  SER185     -0.2183
    121  N         17.3580   10.6440   22.9620 N.3   203  VAL203     -0.1231
    122  CA        16.0360   10.1810   23.3610 C.3   203  VAL203      0.1692
    123  C         15.3310    9.7050   22.0820 C.2   203  VAL203      0.2593
    124  O         15.1370   10.4730   21.1420 O.2   203  VAL203     -0.2718
    125  CB        15.2070   11.3070   24.0290 C.3   203  VAL203      0.0266
    126  CG1       13.8300   10.7810   24.4130 C.3   203  VAL203      0.0020
    127  CG2       15.9200   11.8220   25.2780 C.3   203  VAL203      0.0020
    128  N         14.9410    8.4370   22.0500 N.am  204  SER204     -0.1938
    129  CA        14.3150    7.8940   20.8590 C.3   204  SER204      0.2055
    130  C         12.8600    7.4640   21.0130 C.2   204  SER204      0.2643
    131  O         11.9690    8.0550   20.3950 O.2   204  SER204     -0.2714
    132  CB        15.1530    6.7240   20.3440 C.3   204  SER204      0.2130
    133  OG        14.7250    6.3390   19.0550 O.3   204  SER204     -0.2179
    134  N         12.6140    6.4380   21.8230 N.am  205  TRP205     -0.1959
    135  CA        11.2550    5.9570   22.0270 C.3   205  TRP205      0.1771
    136  C         11.0660    5.1150   23.2870 C.2   205  TRP205      0.2620
    137  O         11.9740    4.9500   24.0990 O.2   205  TRP205     -0.2715
    138  CB        10.7950    5.1440   20.8150 C.3   205  TRP205      0.0590
    139  CG        11.6780    3.9630   20.5130 C.ar  205  TRP205      0.0006
    140  CD1       12.8570    3.9750   19.8240 C.ar  205  TRP205      0.0946
    141  CD2       11.4580    2.6000   20.9090 C.ar  205  TRP205      0.0152
    142  NE1       13.3860    2.7050   19.7650 N.ar  205  TRP205     -0.2442
    143  CE2       12.5480    1.8430   20.4240 C.ar  205  TRP205      0.0810
    144  CE3       10.4460    1.9460   21.6280 C.ar  205  TRP205      0.0012
    145  CZ2       12.6570    0.4650   20.6340 C.ar  205  TRP205      0.0191
    146  CZ3       10.5530    0.5730   21.8370 C.ar  205  TRP205      0.0001
    147  CH2       11.6530   -0.1510   21.3410 C.ar  205  TRP205      0.0015
    148  N          9.8580    4.5850   23.4290 N.am  206  GLY206     -0.1940
    149  CA         9.5260    3.7610   24.5700 C.3   206  GLY206      0.2014
    150  C          8.0520    3.4150   24.5070 C.2   206  GLY206      0.2639
    151  O          7.2830    4.1160   23.8530 O.2   206  GLY206     -0.2714
    152  N          7.6590    2.3270   25.1590 N.am  207  GLU207     -0.1963
    153  CA         6.2560    1.9190   25.1900 C.3   207  GLU207      0.1733
    154  C          5.6120    2.6620   26.3550 C.2   207  GLU207      0.2617
    155  O          5.6200    2.1940   27.4950 O.2   207  GLU207     -0.2715
    156  CB         6.1530    0.4120   25.4130 C.3   207  GLU207      0.0429
    157  CG         6.7510   -0.4170   24.2950 C.3   207  GLU207      0.1163
    158  CD         6.8600   -1.8800   24.6660 C.2   207  GLU207      0.3649
    159  OE1        5.8130   -2.5000   24.9570 O.co2 207  GLU207     -0.2457
    160  OE2        7.9950   -2.4050   24.6680 O.co2 207  GLU207     -0.2457
    161  N          5.0630    3.8310   26.0590 N.am  208  GLY208     -0.1940
    162  CA         4.4590    4.6330   27.1000 C.3   208  GLY208      0.2014
    163  C          5.5600    5.4100   27.7880 C.2   208  GLY208      0.2639
    164  O          6.5780    5.7250   27.1660 O.2   208  GLY208     -0.2714
    165  N          5.3640    5.7200   29.0650 N.am  209  CYS209     -0.1967
    166  CA         6.3580    6.4540   29.8370 C.3   209  CYS209      0.1712
    167  C          6.3460    5.9690   31.2790 C.2   209  CYS209      0.2296
    168  O          5.3110    5.9840   31.9440 O.2   209  CYS209     -0.2864
    169  CB         6.0760    7.9650   29.7960 C.3   209  CYS209      0.0983
    170  SG         6.1960    8.6810   28.1280 S.3   209  CYS209     -0.0798
    171  N          6.3270    3.1290   32.4190 N.3   211  ARG211     -0.1245
    172  CA         5.4750    1.9630   32.6400 C.3   211  ARG211      0.1563
    173  C          6.2790    0.8490   33.2990 C.2   211  ARG211      0.2260
    174  O          7.4830    0.7050   33.0540 O.2   211  ARG211     -0.2867
    175  CB         4.9010    1.4490   31.3220 C.3   211  ARG211      0.0307
    176  CG         3.8980    2.3770   30.6680 C.3   211  ARG211      0.0489
    177  CD         3.2490    1.7160   29.4570 C.3   211  ARG211      0.2205
    178  NE         2.2860    2.6020   28.8060 N.pl3 211  ARG211     -0.0865
    179  CZ         1.6480    2.3130   27.6770 C.cat 211  ARG211      0.5346
    180  NH1        1.8650    1.1540   27.0660 N.pl3 211  ARG211      0.1354
    181  NH2        0.8040    3.1880   27.1500 N.pl3 211  ARG211      0.1354
    182  N         11.3710   -0.0130   29.7310 N.3   215  TYR215     -0.1227
    183  CA        12.4720    0.9310   29.8950 C.3   215  TYR215      0.1736
    184  C         12.4560    2.0160   28.8190 C.2   215  TYR215      0.2596
    185  O         11.6540    1.9680   27.8900 O.2   215  TYR215     -0.2718
    186  CB        13.8040    0.1800   29.8340 C.3   215  TYR215      0.0548
    187  CG        13.9590   -0.9070   30.8750 C.ar  215  TYR215     -0.0200
    188  CD1       14.3090   -0.5980   32.1910 C.ar  215  TYR215     -0.0009
    189  CD2       13.7580   -2.2460   30.5440 C.ar  215  TYR215     -0.0009
    190  CE1       14.4600   -1.6010   33.1530 C.ar  215  TYR215      0.0417
    191  CE2       13.9050   -3.2560   31.4970 C.ar  215  TYR215      0.0417
    192  CZ        14.2580   -2.9270   32.7960 C.ar  215  TYR215      0.1957
    193  OH        14.4290   -3.9240   33.7300 O.3   215  TYR215     -0.2866
    194  N         13.3430    2.9980   28.9600 N.am  216  GLY216     -0.1942
    195  CA        13.4450    4.0660   27.9770 C.3   216  GLY216      0.2014
    196  C         14.4340    3.6290   26.9100 C.2   216  GLY216      0.2639
    197  O         15.4970    3.1130   27.2340 O.2   216  GLY216     -0.2714
    198  N         14.0880    3.8160   25.6420 N.am  217  ILE217     -0.1963
    199  CA        14.9670    3.4030   24.5500 C.3   217  ILE217      0.1727
    200  C         15.6820    4.6000   23.9390 C.2   217  ILE217      0.2616
    201  O         15.0510    5.6090   23.6040 O.2   217  ILE217     -0.2715
    202  CB        14.1780    2.6870   23.4290 C.3   217  ILE217      0.0290
    203  CG1       13.1810    1.6890   24.0370 C.3   217  ILE217      0.0022
    204  CG2       15.1490    1.9720   22.4890 C.3   217  ILE217      0.0023
    205  CD1       13.8110    0.5810   24.8360 C.3   217  ILE217      0.0001
    206  N         16.9980    4.4760   23.7870 N.am  218  TYR218     -0.1974
    207  CA        17.8110    5.5530   23.2290 C.3   218  TYR218      0.1639
    208  C         18.6910    5.0940   22.0700 C.2   218  TYR218      0.2290
    209  O         19.1000    3.9400   22.0100 O.2   218  TYR218     -0.2864
    210  CB        18.7230    6.1460   24.3030 C.3   218  TYR218      0.0560
    211  CG        18.0180    6.6490   25.5400 C.ar  218  TYR218     -0.0198
    212  CD1       17.4570    5.7650   26.4640 C.ar  218  TYR218     -0.0009
    213  CD2       17.9250    8.0150   25.7960 C.ar  218  TYR218     -0.0009
    214  CE1       16.8220    6.2360   27.6180 C.ar  218  TYR218      0.0417
    215  CE2       17.2950    8.4900   26.9380 C.ar  218  TYR218      0.0417
    216  CZ        16.7440    7.5980   27.8430 C.ar  218  TYR218      0.1957
    217  OH        16.1000    8.0860   28.9520 O.3   218  TYR218     -0.2866
@<TRIPOS>BOND
     1    19    18    1
     2    18    17    1
     3    28    26   ar
     4    25    26    1
     5    25    24    1
     6    26    27   ar
     7    17    16    1
     8    16    15    1
     9    24    21    1
    10    11    12    1
    11    20    21    1
    12    20    13   am
    13    15    12    1
    14    21    22    1
    15    12    13    1
    16    13    14    2
    17    34    33    1
    18    35    33    1
    19    22    29   am
    20    22    23    2
    21    29    30    1
    22    33    30    1
    23    30    31    1
    24     1     2    1
    25     2     3    1
    26     2     5    1
    27    36    31   am
    28    36    37    1
    29    31    32    2
    30     3     4    2
    31    37    38    1
    32    37    40    1
    33     5     6    1
    34    38    39    2
    35    44    42   ar
    36    44    46   ar
    37    42    41   ar
    38    47    46    1
    39    46    45   ar
    40    41    40    1
    41    41    43   ar
    42     6     8   ar
    43     6     7   ar
    44    45    43   ar
    45    84    83    1
    46    84    86    1
    47    85    83    1
    48     8    10   ar
    49    83    80    1
    50     7     9   ar
    51     9    10   ar
    52    74    76   ar
    53    74    73   ar
    54    76    78   ar
    55    82    81    2
    56    80    79    1
    57    80    81    1
    58    79    70   am
    59   133   132    1
    60    73    72    1
    61    73    75   ar
    62    72    69    1
    63    78    77   ar
    64    70    69    1
    65    70    71    2
    66    69    68    1
    67   142   140   ar
    68   142   143   ar
    69   140   139   ar
    70   132   129    1
    71   131   130    2
    72   143   145   ar
    73   143   141   ar
    74   139   138    1
    75   139   141   ar
    76   119   120    1
    77   119   116    1
    78   145   147   ar
    79    75    77   ar
    80   138   135    1
    81   129   130    1
    82   129   128    1
    83   141   144   ar
    84   113   112    2
    85   130   134   am
    86   118   117    2
    87   124   123    2
    88   117   116    1
    89   147   146   ar
    90   144   146   ar
    91   116   115    1
    92   134   135    1
    93   209   208    2
    94   135   136    1
    95   128   123   am
    96   208   207    1
    97   123   122    1
    98   112   111    1
    99   112   114   am
   100   204   202    1
   101   111   110    1
   102   121   122    1
   103   207   206    1
   104   207   210    1
   105   136   148   am
   106   136   137    2
   107   122   125    1
   108   202   203    1
   109   202   199    1
   110   148   149    1
   111   201   200    2
   112   206   200   am
   113   151   150    2
   114    58    56    1
   115   200   199    1
   116   125   126    1
   117   125   127    1
   118   203   205    1
   119   110   107    1
   120   157   158    1
   121   157   156    1
   122   210   211    1
   123   107   108    1
   124   107   106    1
   125   150   149    1
   126   150   152   am
   127   199   198    1
   128   158   160   ar
   129   158   159   ar
   130   108   109    2
   131    56    55    2
   132    56    57    1
   133   152   153    1
   134   153   156    1
   135   153   154    1
   136   211   213   ar
   137   211   212   ar
   138   198   196   am
   139    55    54    1
   140   106   102   am
   141   213   215   ar
   142   103   102    2
   143   161   154   am
   144   161   162    1
   145   102   101    1
   146   154   155    2
   147   212   214   ar
   148   196   197    2
   149   196   195    1
   150   215   216   ar
   151    54    53    1
   152   180   179    1
   153   162   163    1
   154   181   179    1
   155   164   163    2
   156    53    52    1
   157   101   100    1
   158   101   104    1
   159   214   216   ar
   160   179   178    2
   161   163   165   am
   162   216   217    1
   163   185   184    2
   164   195   194    1
   165    62    61    2
   166   170   105    1
   167   170   169    1
   168   100    97   am
   169    67    65   ar
   170    48    49    1
   171   105   104    1
   172    99    96    1
   173    52    49    1
   174   178   177    1
   175   184   194   am
   176   184   183    1
   177    64    65    1
   178    64    63    1
   179    97    98    2
   180    97    96    1
   181   165   166    1
   182    65    66   ar
   183    61    60    1
   184    49    50    1
   185   177   176    1
   186    96    95    1
   187   182   183    1
   188   169   166    1
   189   186   183    1
   190   186   187    1
   191   166   167    1
   192    60    63    1
   193    60    59    1
   194    94    92   ar
   195    93    92   ar
   196    95    89   am
   197   189   187   ar
   198   189   191   ar
   199    50    51    2
   200   176   175    1
   201    92    91    1
   202   187   188   ar
   203   167   168    2
   204   175   172    1
   205   191   192   ar
   206    89    90    2
   207    89    88    1
   208    91    88    1
   209   188   190   ar
   210   171   172    1
   211    88    87    1
   212   172   173    1
   213   192   190   ar
   214   192   193    1
   215   174   173    2
