@<TRIPOS>MOLECULE
tmp/5k0iA00.pdb
 76 73 0 0 0
SMALL
GASTEIGER

@<TRIPOS>ATOM
      1  N         20.1590   10.3690   35.3520 N.3   118  ALA118     -0.1231
      2  CA        19.4000   11.4010   34.6670 C.3   118  ALA118      0.1679
      3  C         20.3420   12.5350   34.2410 C.2   118  ALA118      0.2434
      4  O         21.3360   12.8010   34.9280 O.2   118  ALA118     -0.2733
      5  CB        18.2950   11.9160   35.5610 C.3   118  ALA118      0.0304
      6  N         20.0480   13.2150   33.1160 N.am  119  PRO119     -0.2729
      7  CA        18.8720   13.0340   32.2610 C.3   119  PRO119      0.1401
      8  C         19.1440   12.1920   31.0030 C.2   119  PRO119      0.2269
      9  O         18.5600   12.4650   29.9440 O.2   119  PRO119     -0.2865
     10  CB        18.5250   14.4730   31.8730 C.3   119  PRO119      0.0296
     11  CG        19.8770   15.1370   31.7530 C.3   119  PRO119      0.0237
     12  CD        20.8150   14.4150   32.7230 C.3   119  PRO119      0.0939
     13  N         18.3310    9.0900   29.9490 N.3   121  ARG121     -0.1231
     14  CA        17.1190    8.5040   29.3520 C.3   121  ARG121      0.1694
     15  C         16.2180    9.5800   28.7340 C.2   121  ARG121      0.2592
     16  O         15.7390    9.4280   27.6050 O.2   121  ARG121     -0.2718
     17  CB        16.3410    7.6950   30.3890 C.3   121  ARG121      0.0321
     18  CG        15.1980    6.8640   29.7890 C.3   121  ARG121      0.0489
     19  CD        14.2140    6.4180   30.8520 C.3   121  ARG121      0.2205
     20  NE        13.4000    7.5200   31.3520 N.pl3 121  ARG121     -0.0865
     21  CZ        13.5410    8.1230   32.5330 C.cat 121  ARG121      0.5346
     22  NH1       14.4840    7.7450   33.4000 N.pl3 121  ARG121      0.1354
     23  NH2       12.7320    9.1210   32.8490 N.pl3 121  ARG121      0.1354
     24  N         15.9900   10.6720   29.4630 N.am  122  SER122     -0.1952
     25  CA        15.1410   11.7640   28.9720 C.3   122  SER122      0.1924
     26  C         15.6660   12.3790   27.6730 C.2   122  SER122      0.2314
     27  O         14.8850   12.7170   26.7720 O.2   122  SER122     -0.2863
     28  CB        14.9580   12.8400   30.0410 C.3   122  SER122      0.2116
     29  OG        14.3530   12.3000   31.1980 O.3   122  SER122     -0.2180
     30  N         15.0580    9.9080   24.7810 N.3   125  TYR125     -0.1227
     31  CA        13.6360    9.9680   24.4440 C.3   125  TYR125      0.1736
     32  C         13.3660   11.1590   23.5210 C.2   125  TYR125      0.2596
     33  O         12.7110   11.0300   22.4750 O.2   125  TYR125     -0.2718
     34  CB        12.7820   10.0920   25.7200 C.3   125  TYR125      0.0548
     35  CG        11.3060   10.1300   25.4100 C.ar  125  TYR125     -0.0200
     36  CD1       10.6700   11.3290   25.0780 C.ar  125  TYR125     -0.0009
     37  CD2       10.5490    8.9560   25.4020 C.ar  125  TYR125     -0.0009
     38  CE1        9.3140   11.3540   24.7550 C.ar  125  TYR125      0.0417
     39  CE2        9.1960    8.9700   25.0850 C.ar  125  TYR125      0.0417
     40  CZ         8.5840   10.1730   24.7640 C.ar  125  TYR125      0.1957
     41  OH         7.2470   10.1940   24.4470 O.3   125  TYR125     -0.2866
     42  N         13.8640   12.3280   23.9270 N.am  126  THR126     -0.1953
     43  CA        13.6420   13.5670   23.1970 C.3   126  THR126      0.1897
     44  C         14.2370   13.4950   21.7930 C.2   126  THR126      0.2313
     45  O         13.5800   13.8690   20.8120 O.2   126  THR126     -0.2863
     46  CB        14.2280   14.7610   23.9800 C.3   126  THR126      0.1794
     47  OG1       13.6240   14.8060   25.2790 O.3   126  THR126     -0.2208
     48  CG2       13.9700   16.0840   23.2580 C.3   126  THR126      0.0378
     49  N         12.1170   11.3850   19.5070 N.3   129  GLN129     -0.1231
     50  CA        10.8490   12.0000   19.1340 C.3   129  GLN129      0.1698
     51  C         10.9820   13.0640   18.0480 C.2   129  GLN129      0.2592
     52  O         10.0190   13.3190   17.3410 O.2   129  GLN129     -0.2718
     53  CB        10.1140   12.5800   20.3480 C.3   129  GLN129      0.0381
     54  CG         9.5460   11.5340   21.3040 C.3   129  GLN129      0.0905
     55  CD         8.7130   10.4750   20.5950 C.2   129  GLN129      0.2608
     56  OE1        9.2120    9.4060   20.2680 O.2   129  GLN129     -0.2717
     57  NE2        7.4500   10.7910   20.3250 N.am  129  GLN129     -0.0878
     58  N         12.1640   13.6640   17.9070 N.am  130  LEU130     -0.1980
     59  CA        12.3580   14.7210   16.9040 C.3   130  LEU130      0.1596
     60  C         11.9780   14.3010   15.4740 C.2   130  LEU130      0.2287
     61  O         11.1610   14.9870   14.8430 O.2   130  LEU130     -0.2864
     62  CB        13.7690   15.3240   16.9870 C.3   130  LEU130      0.0297
     63  CG        14.1060   16.0450   18.2970 C.3   130  LEU130      0.0022
     64  CD1       15.5370   16.5780   18.2550 C.3   130  LEU130      0.0001
     65  CD2       13.1160   17.1640   18.6150 C.3   130  LEU130      0.0001
     66  N         10.0450   11.9080   14.6480 N.3   132  CYS132     -0.1221
     67  CA         8.6090   11.6150   14.6600 C.3   132  CYS132      0.1808
     68  C          7.7760   12.8850   14.4760 C.2   132  CYS132      0.2601
     69  O          6.8340   12.9000   13.6820 O.2   132  CYS132     -0.2717
     70  CB         8.2180   10.8860   15.9470 C.3   132  CYS132      0.0970
     71  SG         8.9670    9.2620   16.0960 S.3   132  CYS132     -0.0800
     72  N          8.1390   13.9480   15.1960 N.am  133  ALA133     -0.1979
     73  CA         7.4720   15.2460   15.0330 C.3   133  ALA133      0.1597
     74  C          7.6190   15.7520   13.5980 C.2   133  ALA133      0.2287
     75  O          6.6490   16.2330   12.9920 O.2   133  ALA133     -0.2864
     76  CB         8.0450   16.2570   16.0160 C.3   133  ALA133      0.0319
@<TRIPOS>BOND
     1    75    74    2
     2    74    73    1
     3    69    68    2
     4    68    67    1
     5    68    72   am
     6    66    67    1
     7    67    70    1
     8    61    60    2
     9    73    72    1
    10    73    76    1
    11    60    59    1
    12    70    71    1
    13    59    62    1
    14    59    58    1
    15    62    63    1
    16    52    51    2
    17    58    51   am
    18    51    50    1
    19    64    63    1
    20    63    65    1
    21    50    49    1
    22    50    53    1
    23    56    55    2
    24    57    55   am
    25    53    54    1
    26    55    54    1
    27    45    44    2
    28    44    43    1
    29    33    32    2
    30    43    42    1
    31    43    46    1
    32    48    46    1
    33    32    42   am
    34    32    31    1
    35    46    47    1
    36    31    30    1
    37    31    34    1
    38    41    40    1
    39    38    40   ar
    40    38    36   ar
    41    40    39   ar
    42    36    35   ar
    43    39    37   ar
    44    37    35   ar
    45    35    34    1
    46    27    26    2
    47    16    15    2
    48    26    25    1
    49    15    14    1
    50    15    24   am
    51    25    24    1
    52    25    28    1
    53    14    13    1
    54    14    17    1
    55    18    17    1
    56    18    19    1
    57     9     8    2
    58    28    29    1
    59    19    20    1
    60     8     7    1
    61    20    21    2
    62    11    10    1
    63    11    12    1
    64    10     7    1
    65     7     6    1
    66    21    23    1
    67    21    22    1
    68    12     6    1
    69     6     3   am
    70     3     2    1
    71     3     4    2
    72     2     1    1
    73     2     5    1
