@<TRIPOS>MOLECULE
tmp/5k0kA00.pdb
 154 144 0 0 0
SMALL
GASTEIGER

@<TRIPOS>ATOM
      1  N         11.4020   -1.8130    9.7940 N.3    15  LYS15      -0.1245
      2  CA        11.4300   -0.3590    9.6520 C.3    15  LYS15       0.1561
      3  C         11.2180    0.3830   10.9750 C.2    15  LYS15       0.2260
      4  O         10.6900   -0.1730   11.9370 O.2    15  LYS15      -0.2867
      5  CB        10.3500    0.0760    8.6570 C.3    15  LYS15       0.0271
      6  CG        10.5190   -0.4790    7.2440 C.3    15  LYS15       0.0035
      7  CD         9.1820   -0.9480    6.6740 C.3    15  LYS15       0.0206
      8  CE         9.1830   -0.9860    5.1460 C.3    15  LYS15       0.1093
      9  NZ        10.2320   -1.8750    4.5730 N.3    15  LYS15      -0.1314
     10  N          9.3670    2.9240   13.3650 N.3    17  LEU17      -0.1231
     11  CA         8.0110    3.4340   13.5400 C.3    17  LEU17       0.1693
     12  C          8.0160    4.7960   14.2230 C.2    17  LEU17       0.2592
     13  O          7.0280    5.5240   14.1730 O.2    17  LEU17      -0.2718
     14  CB         7.1860    2.4550   14.3750 C.3    17  LEU17       0.0284
     15  CG         6.9660    1.0690   13.7710 C.3    17  LEU17       0.0019
     16  CD1        6.3480    0.1560   14.8110 C.3    17  LEU17       0.0001
     17  CD2        6.0940    1.1500   12.5260 C.3    17  LEU17       0.0001
     18  N          9.1280    5.1290   14.8700 N.am   18  GLY18      -0.1957
     19  CA         9.2650    6.4050   15.5480 C.3    18  GLY18       0.1869
     20  C         10.5420    6.4690   16.3620 C.2    18  GLY18       0.2309
     21  O         11.0960    5.4360   16.7380 O.2    18  GLY18      -0.2863
     22  N         11.4180    3.2770   18.2560 N.3    22  VAL22      -0.1245
     23  CA        10.4950    2.1660   18.0480 C.3    22  VAL22       0.1561
     24  C         10.7050    1.5640   16.6650 C.2    22  VAL22       0.2260
     25  O         10.9860    2.2760   15.7020 O.2    22  VAL22      -0.2867
     26  CB         9.0250    2.6170   18.1770 C.3    22  VAL22       0.0252
     27  CG1        8.0950    1.4100   18.1670 C.3    22  VAL22       0.0019
     28  CG2        8.8280    3.4410   19.4400 C.3    22  VAL22       0.0019
     29  N          9.3260   -1.8460   13.9380 N.3    24  GLU24      -0.1245
     30  CA         8.4200   -2.9530   13.6820 C.3    24  GLU24       0.1567
     31  C          9.1990   -4.2540   13.7930 C.2    24  GLU24       0.2260
     32  O         10.4290   -4.2580   13.7290 O.2    24  GLU24      -0.2867
     33  CB         7.8080   -2.8390   12.2900 C.3    24  GLU24       0.0388
     34  CG         8.8390   -2.7500   11.1770 C.3    24  GLU24       0.1160
     35  CD         8.3390   -3.3090    9.8630 C.2    24  GLU24       0.3649
     36  OE1        7.1190   -3.5480    9.7380 O.co2  24  GLU24      -0.2457
     37  OE2        9.1700   -3.5130    8.9530 O.co2  24  GLU24      -0.2457
     38  N          5.9710   -4.3460   18.1570 N.3    38  ALA38      -0.1245
     39  CA         6.6960   -3.0820   18.1420 C.3    38  ALA38       0.1562
     40  C          7.8210   -3.1950   19.1640 C.2    38  ALA38       0.2260
     41  O          7.5890   -3.5950   20.3080 O.2    38  ALA38      -0.2867
     42  CB         5.7620   -1.9260   18.4840 C.3    38  ALA38       0.0290
     43  N         10.7030   -1.4470   21.3200 N.3    40  LYS40      -0.1245
     44  CA        11.2080   -0.1970   21.8700 C.3    40  LYS40       0.1561
     45  C         12.6170   -0.3890   22.4330 C.2    40  LYS40       0.2260
     46  O         12.8030   -1.0050   23.4850 O.2    40  LYS40      -0.2867
     47  CB        10.2630    0.3290   22.9550 C.3    40  LYS40       0.0271
     48  CG        10.3230    1.8330   23.1420 C.3    40  LYS40       0.0035
     49  CD         9.3530    2.3000   24.2170 C.3    40  LYS40       0.0206
     50  CE         9.9040    2.0590   25.6180 C.3    40  LYS40       0.1093
     51  NZ        11.0840    2.9200   25.9230 N.3    40  LYS40      -0.1314
     52  N         -1.7620   -2.1080   27.9150 N.3    71  ILE71      -0.1245
     53  CA        -0.9890   -2.7850   26.8920 C.3    71  ILE71       0.1561
     54  C         -0.2750   -3.9900   27.4860 C.2    71  ILE71       0.2260
     55  O          0.0710   -4.0050   28.6660 O.2    71  ILE71      -0.2867
     56  CB         0.0240   -1.8500   26.2090 C.3    71  ILE71       0.0252
     57  CG1        0.5690   -2.5130   24.9450 C.3    71  ILE71       0.0019
     58  CG2        1.1500   -1.4810   27.1680 C.3    71  ILE71       0.0019
     59  CD1        1.2440   -1.5500   24.0120 C.3    71  ILE71       0.0001
     60  N          6.4550   -5.3820   22.5260 N.3    86  LEU86      -0.1231
     61  CA         5.0490   -5.0760   22.7330 C.3    86  LEU86       0.1678
     62  C          4.2530   -5.4640   21.4880 C.2    86  LEU86       0.2434
     63  O          4.8190   -5.6000   20.4020 O.2    86  LEU86      -0.2733
     64  CB         4.8860   -3.5810   23.0220 C.3    86  LEU86       0.0284
     65  CG         5.8320   -3.0060   24.0840 C.3    86  LEU86       0.0019
     66  CD1        5.8830   -1.4880   24.0020 C.3    86  LEU86       0.0001
     67  CD2        5.4170   -3.4580   25.4780 C.3    86  LEU86       0.0001
     68  N          2.9330   -5.6500   21.6360 N.am   87  PRO87      -0.2718
     69  CA         2.0920   -5.9190   20.4670 C.3    87  PRO87       0.1535
     70  C          2.0930   -4.7540   19.4910 C.2    87  PRO87       0.2599
     71  O          2.0660   -3.6050   19.9170 O.2    87  PRO87      -0.2715
     72  CB         0.6930   -6.0810   21.0660 C.3    87  PRO87       0.0310
     73  CG         0.9180   -6.4270   22.4870 C.3    87  PRO87       0.0237
     74  CD         2.1630   -5.7070   22.8860 C.3    87  PRO87       0.0939
     75  N          2.1380   -5.0560   18.2000 N.am   88  PHE88      -0.1960
     76  CA         1.9800   -4.0360   17.1750 C.3    88  PHE88       0.1771
     77  C          0.4980   -3.7190   17.0070 C.2    88  PHE88       0.2619
     78  O         -0.3320   -4.6220   16.9060 O.2    88  PHE88      -0.2715
     79  CB         2.5600   -4.5130   15.8420 C.3    88  PHE88       0.0574
     80  CG         2.4400   -3.5030   14.7380 C.ar   88  PHE88      -0.0200
     81  CD1        3.4330   -2.5630   14.5320 C.ar   88  PHE88      -0.0042
     82  CD2        1.3280   -3.4820   13.9160 C.ar   88  PHE88      -0.0042
     83  CE1        3.3200   -1.6270   13.5270 C.ar   88  PHE88      -0.0003
     84  CE2        1.2150   -2.5470   12.9100 C.ar   88  PHE88      -0.0003
     85  CZ         2.2120   -1.6200   12.7170 C.ar   88  PHE88      -0.0000
     86  N          0.1760   -2.4300   16.9810 N.am   89  MET89      -0.1963
     87  CA        -1.1870   -1.9760   16.7400 C.3    89  MET89       0.1736
     88  C         -1.2000   -1.0360   15.5490 C.2    89  MET89       0.2616
     89  O         -0.6830    0.0820   15.6070 O.2    89  MET89      -0.2715
     90  CB        -1.7550   -1.3210   17.9960 C.3    89  MET89       0.0427
     91  CG        -2.0890   -2.3660   19.0500 C.3    89  MET89       0.0599
     92  SD        -2.3830   -1.7500   20.7020 S.3    89  MET89      -0.1393
     93  CE        -0.7790   -1.0790   21.1200 C.3    89  MET89       0.0692
     94  N         -1.7870   -1.5310   14.4640 N.am   90  LYS90      -0.1977
     95  CA        -1.7620   -0.8680   13.1650 C.3    90  LYS90       0.1596
     96  C         -2.4530    0.4950   13.1600 C.2    90  LYS90       0.2287
     97  O         -2.1140    1.3530   12.3450 O.2    90  LYS90      -0.2864
     98  CB        -2.4160   -1.7720   12.1210 C.3    90  LYS90       0.0298
     99  CG        -3.8330   -2.1930   12.4880 C.3    90  LYS90       0.0038
    100  CD        -4.4570   -3.0610   11.4110 C.3    90  LYS90       0.0206
    101  CE        -5.9130   -3.3770   11.7220 C.3    90  LYS90       0.1093
    102  NZ        -6.4920   -4.3220   10.7330 N.3    90  LYS90      -0.1314
    103  N         -2.1760    2.6580   15.4110 N.3    92  GLY92      -0.1210
    104  CA        -1.2280    3.6120   15.9590 C.3    92  GLY92       0.1956
    105  C         -1.7030    4.3200   17.2140 C.2    92  GLY92       0.2611
    106  O         -2.6440    3.8830   17.8740 O.2    92  GLY92      -0.2717
    107  N         -1.0420    5.4280   17.5390 N.am   93  ASP93      -0.1973
    108  CA        -1.3300    6.1880   18.7500 C.3    93  ASP93       0.1709
    109  C         -2.5690    7.0540   18.5830 C.2    93  ASP93       0.2293
    110  O         -2.8880    7.4880   17.4800 O.2    93  ASP93      -0.2864
    111  CB        -0.1510    7.0910   19.0930 C.3    93  ASP93       0.1436
    112  CG         0.0030    8.2340   18.1150 C.2    93  ASP93       0.3671
    113  OD1        0.7530    8.0910   17.1280 O.co2  93  ASP93      -0.2456
    114  OD2       -0.6380    9.2810   18.3300 O.co2  93  ASP93      -0.2456
    115  N         -0.4010   10.6470   23.0590 N.3   142  ARG142     -0.1231
    116  CA         0.5990   10.0710   22.1640 C.3   142  ARG142      0.1694
    117  C          1.0080    8.6620   22.5990 C.2   142  ARG142      0.2592
    118  O          1.5070    7.8760   21.7930 O.2   142  ARG142     -0.2718
    119  CB         1.8330   10.9760   22.0950 C.3   142  ARG142      0.0321
    120  CG         2.4900   11.2500   23.4430 C.3   142  ARG142      0.0489
    121  CD         3.7260   12.1280   23.2920 C.3   142  ARG142      0.2205
    122  NE         4.3610   12.4300   24.5750 N.pl3 142  ARG142     -0.0865
    123  CZ         3.9830   13.4110   25.3930 C.cat 142  ARG142      0.5346
    124  NH1        2.9580   14.1960   25.0820 N.pl3 142  ARG142      0.1354
    125  NH2        4.6290   13.6040   26.5350 N.pl3 142  ARG142      0.1354
    126  N          0.7890    8.3520   23.8750 N.am  143  ASN143     -0.1974
    127  CA         1.1600    7.0570   24.4420 C.3   143  ASN143      0.1688
    128  C         -0.0390    6.1230   24.5940 C.2   143  ASN143      0.2292
    129  O          0.1010    4.9960   25.0690 O.2   143  ASN143     -0.2864
    130  CB         1.8370    7.2520   25.8030 C.3   143  ASN143      0.1181
    131  CG         3.1930    7.9280   25.6930 C.2   143  ASN143      0.2629
    132  OD1        3.9140    7.7470   24.7110 O.2   143  ASN143     -0.2716
    133  ND2        3.5460    8.7120   26.7020 N.am  143  ASN143     -0.0877
    134  N         -2.7340    3.8270   22.8800 N.3   145  MET145     -0.1245
    135  CA        -2.7590    3.0840   21.6210 C.3   145  MET145      0.1570
    136  C         -4.1600    2.5590   21.3190 C.2   145  MET145      0.2261
    137  O         -4.8980    2.1800   22.2280 O.2   145  MET145     -0.2867
    138  CB        -1.7660    1.9140   21.6790 C.3   145  MET145      0.0387
    139  CG        -0.3630    2.2960   22.1550 C.3   145  MET145      0.0595
    140  SD         0.4970    3.4960   21.1070 S.3   145  MET145     -0.1393
    141  CE         0.5350    2.6670   19.5320 C.3   145  MET145      0.0692
    142  N          0.0050    2.8270   27.4090 N.3   155  ALA155     -0.1231
    143  CA         1.3180    2.2770   27.1000 C.3   155  ALA155      0.1694
    144  C          2.4510    3.2060   27.5400 C.2   155  ALA155      0.2592
    145  O          2.2140    4.3000   28.0540 O.2   155  ALA155     -0.2718
    146  CB         1.4240    1.9760   25.6080 C.3   155  ALA155      0.0304
    147  N          3.6810    2.7400   27.3480 N.am  156  ASP156     -0.1974
    148  CA         4.8870    3.5140   27.6370 C.3   156  ASP156      0.1709
    149  C          5.1210    3.7040   29.1360 C.2   156  ASP156      0.2293
    150  O          6.0360    4.4230   29.5390 O.2   156  ASP156     -0.2864
    151  CB         4.8480    4.8740   26.9310 C.3   156  ASP156      0.1436
    152  CG         6.2340    5.4000   26.6100 C.2   156  ASP156      0.3671
    153  OD1        6.7920    4.9910   25.5710 O.co2 156  ASP156     -0.2456
    154  OD2        6.7680    6.2150   27.3950 O.co2 156  ASP156     -0.2456
@<TRIPOS>BOND
     1     9     8    1
     2     8     7    1
     3     7     6    1
     4     6     5    1
     5     5     2    1
     6    37    35   ar
     7     2     1    1
     8     2     3    1
     9    36    35   ar
    10    35    34    1
    11   102   101    1
    12     3     4    2
    13    34    33    1
    14   100   101    1
    15   100    99    1
    16    98    99    1
    17    98    95    1
    18    33    30    1
    19    97    96    2
    20    17    15    1
    21    85    84   ar
    22    85    83   ar
    23    84    82   ar
    24    96    95    1
    25    95    94    1
    26    10    11    1
    27    83    81   ar
    28    11    12    1
    29    11    14    1
    30    30    31    1
    31    30    29    1
    32    32    31    2
    33    15    14    1
    34    15    16    1
    35    82    80   ar
    36    13    12    2
    37    12    18   am
    38    94    88   am
    39    81    80   ar
    40    80    79    1
    41    18    19    1
    42   103   104    1
    43    19    20    1
    44    88    89    2
    45    88    87    1
    46    25    24    2
    47    79    76    1
    48   104   105    1
    49    20    21    2
    50    24    23    1
    51    87    86    1
    52    87    90    1
    53    78    77    2
    54    86    77   am
    55    77    76    1
    56   113   112   ar
    57    76    75    1
    58   105   107   am
    59   105   106    2
    60   110   109    2
    61   107   108    1
    62    90    91    1
    63    23    26    1
    64    23    22    1
    65   112   114   ar
    66   112   111    1
    67    39    38    1
    68    39    42    1
    69    39    40    1
    70    27    26    1
    71    26    28    1
    72    75    70   am
    73   109   108    1
    74   108   111    1
    75    91    92    1
    76    40    41    2
    77    70    71    2
    78    70    69    1
    79   141   140    1
    80    63    62    2
    81    69    72    1
    82    69    68    1
    83    92    93    1
    84    72    73    1
    85   140   139    1
    86   136   135    1
    87   136   137    2
    88    43    44    1
    89    62    68   am
    90    62    61    1
    91   135   138    1
    92   135   134    1
    93    68    74    1
    94   138   139    1
    95   118   117    2
    96    44    45    1
    97    44    47    1
    98   119   116    1
    99   119   120    1
   100   116   117    1
   101   116   115    1
   102    45    46    2
   103    73    74    1
   104    60    61    1
   105   117   126   am
   106    61    64    1
   107    47    48    1
   108    64    65    1
   109    48    49    1
   110   121   120    1
   111   121   122    1
   112   126   127    1
   113    66    65    1
   114    59    57    1
   115    65    67    1
   116    49    50    1
   117   127   128    1
   118   127   130    1
   119   122   123    2
   120   128   129    2
   121   132   131    2
   122    57    56    1
   123   124   123    1
   124   123   125    1
   125   153   152   ar
   126   146   143    1
   127    50    51    1
   128   131   130    1
   129   131   133   am
   130    56    53    1
   131    56    58    1
   132   152   151    1
   133   152   154   ar
   134    53    54    1
   135    53    52    1
   136   151   148    1
   137   143   142    1
   138   143   144    1
   139   147   144   am
   140   147   148    1
   141    54    55    2
   142   144   145    2
   143   148   149    1
   144   149   150    2
