@<TRIPOS>MOLECULE
tmp/5k0lC01.pdb
 147 143 0 0 0
SMALL
GASTEIGER

@<TRIPOS>ATOM
      1  N         13.7190    4.7600   12.6760 N.3    39  MET39      -0.1230
      2  CA        15.0160    5.4110   12.7100 C.3    39  MET39       0.1702
      3  C         14.9110    6.9220   12.6270 C.2    39  MET39       0.2592
      4  O         13.9530    7.4510   12.0560 O.2    39  MET39      -0.2718
      5  CB        15.8840    4.9500   11.5350 C.3    39  MET39       0.0401
      6  CG        16.7350    3.7490   11.7550 C.3    39  MET39       0.0596
      7  SD        17.7440    3.5490   10.2720 S.3    39  MET39      -0.1393
      8  CE        16.5090    3.1720    9.0360 C.3    39  MET39       0.0692
      9  N         15.9260    7.5960   13.1700 N.am   40  ASN40      -0.1974
     10  CA        16.2310    8.9890   12.8400 C.3    40  ASN40       0.1688
     11  C         15.1190    9.9710   13.1890 C.2    40  ASN40       0.2292
     12  O         14.8500   10.9100   12.4370 O.2    40  ASN40      -0.2864
     13  CB        16.5800    9.1160   11.3440 C.3    40  ASN40       0.1181
     14  CG        17.9590    8.5720   11.0160 C.2    40  ASN40       0.2629
     15  OD1       18.5020    7.7410   11.7510 O.2    40  ASN40      -0.2716
     16  ND2       18.5410    9.0460    9.9100 N.am   40  ASN40      -0.0877
     17  N         23.1170   14.0630    5.5440 N.3    64  LEU64      -0.1231
     18  CA        23.3470   12.7260    4.9990 C.3    64  LEU64       0.1693
     19  C         22.4190   11.7180    5.6720 C.2    64  LEU64       0.2592
     20  O         22.5940   11.4200    6.8490 O.2    64  LEU64      -0.2718
     21  CB        24.8090   12.3020    5.1920 C.3    64  LEU64       0.0284
     22  CG        25.8570   13.2380    4.6000 C.3    64  LEU64       0.0019
     23  CD1       27.2920   12.7600    4.9000 C.3    64  LEU64       0.0001
     24  CD2       25.6300   13.3690    3.1210 C.3    64  LEU64       0.0001
     25  N         21.4290   11.2140    4.9270 N.am   65  GLY65      -0.1957
     26  CA        20.5050   10.2010    5.4270 C.3    65  GLY65       0.1869
     27  C         19.1400   10.7410    5.8340 C.2    65  GLY65       0.2309
     28  O         18.7720   10.6510    7.0000 O.2    65  GLY65      -0.2863
     29  N         16.0440    9.7080    5.2590 N.3    67  TYR67      -0.1241
     30  CA        15.0340    8.7060    5.6160 C.3    67  TYR67       0.1605
     31  C         13.6140    9.2110    5.2540 C.2    67  TYR67       0.2264
     32  O         13.2950    9.3160    4.0710 O.2    67  TYR67      -0.2867
     33  CB        15.1450    8.3210    7.1020 C.3    67  TYR67       0.0534
     34  CG        14.3120    7.1130    7.4740 C.ar   67  TYR67      -0.0201
     35  CD1       14.0570    6.1050    6.5430 C.ar   67  TYR67      -0.0009
     36  CD2       13.7400    6.9970    8.7430 C.ar   67  TYR67      -0.0009
     37  CE1       13.2730    5.0040    6.8770 C.ar   67  TYR67       0.0417
     38  CE2       12.9530    5.9000    9.0820 C.ar   67  TYR67       0.0417
     39  CZ        12.7170    4.9080    8.1420 C.ar   67  TYR67       0.1957
     40  OH        11.9480    3.8110    8.4750 O.3    67  TYR67      -0.2866
     41  N         20.6850   14.1860    1.4080 N.3    88  MET88      -0.1230
     42  CA        20.9390   13.0180    0.5780 C.3    88  MET88       0.1702
     43  C         20.2540   11.7890    1.1640 C.2    88  MET88       0.2592
     44  O         20.2690   11.5750    2.3780 O.2    88  MET88      -0.2718
     45  CB        22.4360   12.7870    0.4360 C.3    88  MET88       0.0401
     46  CG        23.1740   13.9920   -0.1380 C.3    88  MET88       0.0596
     47  SD        24.9270   13.6610   -0.3950 S.3    88  MET88      -0.1393
     48  CE        25.3870   15.1440   -1.3020 C.3    88  MET88       0.0692
     49  N         19.6380   10.9930    0.2980 N.am   89  GLU89      -0.1966
     50  CA        18.9180    9.8020    0.7360 C.3    89  GLU89       0.1733
     51  C         19.1370    8.7160   -0.2900 C.2    89  GLU89       0.2616
     52  O         18.7690    8.8830   -1.4530 O.2    89  GLU89      -0.2715
     53  CB        17.4240   10.0940    0.9110 C.3    89  GLU89       0.0429
     54  CG        16.5490    8.8460    1.1230 C.3    89  GLU89       0.1163
     55  CD        17.1190    7.9010    2.1790 C.2    89  GLU89       0.3649
     56  OE1       17.4160    8.3760    3.3040 O.co2  89  GLU89      -0.2457
     57  OE2       17.3030    6.6980    1.8710 O.co2  89  GLU89      -0.2457
     58  N         19.7320    7.6040    0.1320 N.am   90  ILE90      -0.1977
     59  CA        20.1360    6.5760   -0.8160 C.3    90  ILE90       0.1596
     60  C         18.9600    5.7580   -1.3730 C.2    90  ILE90       0.2287
     61  O         19.0450    5.2670   -2.4910 O.2    90  ILE90      -0.2864
     62  CB        21.1760    5.6110   -0.1980 C.3    90  ILE90       0.0276
     63  CG1       21.9270    4.8600   -1.3100 C.3    90  ILE90       0.0022
     64  CG2       20.5390    4.6630    0.8210 C.3    90  ILE90       0.0022
     65  CD1       23.0610    4.0150   -0.8180 C.3    90  ILE90       0.0001
     66  N         12.2840    6.1910    0.1030 N.3    94  CYS94      -0.1235
     67  CA        12.4530    7.1320    1.2100 C.3    94  CYS94       0.1677
     68  C         12.6380    8.5500    0.6900 C.2    94  CYS94       0.2270
     69  O         12.1100    9.4970    1.2670 O.2    94  CYS94      -0.2867
     70  CB        13.6390    6.7360    2.0970 C.3    94  CYS94       0.0956
     71  SG        13.3770    5.1900    3.0050 S.3    94  CYS94      -0.0801
     72  N         20.8190    9.3540   -3.9660 N.3   116  GLY116     -0.1210
     73  CA        21.9880    8.5970   -4.3640 C.3   116  GLY116      0.1956
     74  C         22.8530    8.2900   -3.1570 C.2   116  GLY116      0.2612
     75  O         22.5190    8.6590   -2.0260 O.2   116  GLY116     -0.2717
     76  N         23.9660    7.6060   -3.3920 N.am  117  ALA117     -0.1965
     77  CA        24.9270    7.3350   -2.3330 C.3   117  ALA117      0.1728
     78  C         25.7760    8.5770   -2.0710 C.2   117  ALA117      0.2617
     79  O         26.1800    9.2710   -3.0170 O.2   117  ALA117     -0.2715
     80  CB        25.8070    6.1530   -2.7060 C.3   117  ALA117      0.0334
     81  N         26.0520    8.8480   -0.7950 N.am  118  SER118     -0.1936
     82  CA        26.8050   10.0330   -0.3970 C.3   118  SER118      0.2055
     83  C         28.1420   10.1660   -1.1490 C.2   118  SER118      0.2642
     84  O         28.4620   11.2420   -1.6530 O.2   118  SER118     -0.2714
     85  CB        27.0440   10.0160    1.1150 C.3   118  SER118      0.2130
     86  OG        27.6090    8.7810    1.5060 O.3   118  SER118     -0.2179
     87  N         28.9010    9.0790   -1.2540 N.am  119  GLN119     -0.1976
     88  CA        30.2290    9.1590   -1.8880 C.3   119  GLN119      0.1601
     89  C         30.1520    9.4230   -3.4000 C.2   119  GLN119      0.2287
     90  O         31.1030    9.9040   -3.9910 O.2   119  GLN119     -0.2864
     91  CB        31.0450    7.8860   -1.6200 C.3   119  GLN119      0.0394
     92  CG        30.6300    6.6590   -2.4110 C.3   119  GLN119      0.0908
     93  CD        29.4990    5.8750   -1.7440 C.2   119  GLN119      0.2608
     94  OE1       28.9530    6.2830   -0.7130 O.2   119  GLN119     -0.2717
     95  NE2       29.1460    4.7440   -2.3370 N.am  119  GLN119     -0.0878
     96  N         23.6310   11.3680    9.5620 N.3   140  ASP140     -0.1225
     97  CA        22.7960   10.3500   10.2080 C.3   140  ASP140      0.1805
     98  C         22.4830    9.2020    9.2430 C.2   140  ASP140      0.2598
     99  O         21.4200    8.6040    9.2970 O.2   140  ASP140     -0.2718
    100  CB        21.5000   10.9760   10.7560 C.3   140  ASP140      0.1424
    101  CG        20.8470   10.1040   11.8550 C.2   140  ASP140      0.3668
    102  OD1       21.4760    9.1260   12.2890 O.co2 140  ASP140     -0.2456
    103  OD2       19.7120   10.3740   12.2890 O.co2 140  ASP140     -0.2456
    104  N         23.4330    8.9080    8.3590 N.am  141  HIS141     -0.1961
    105  CA        23.3080    7.8040    7.4150 C.3   141  HIS141      0.1787
    106  C         24.0470    6.5310    7.9250 C.2   141  HIS141      0.2620
    107  O         24.0790    6.2870    9.1390 O.2   141  HIS141     -0.2715
    108  CB        23.8080    8.2590    6.0290 C.3   141  HIS141      0.0785
    109  CG        25.2550    8.6680    5.9890 C.ar  141  HIS141      0.0821
    110  ND1       25.9230    9.1820    7.0810 N.ar  141  HIS141     -0.2267
    111  CD2       26.1530    8.6600    4.9720 C.ar  141  HIS141      0.1154
    112  CE1       27.1720    9.4570    6.7450 C.ar  141  HIS141      0.1986
    113  NE2       27.3400    9.1430    5.4730 N.ar  141  HIS141     -0.2212
    114  N         24.6130    5.7060    7.0310 N.am  142  TRP142     -0.1960
    115  CA        25.3050    4.4820    7.4750 C.3   142  TRP142      0.1771
    116  C         26.4980    4.8320    8.3480 C.2   142  TRP142      0.2619
    117  O         27.3260    5.6770    7.9810 O.2   142  TRP142     -0.2715
    118  CB        25.7670    3.6180    6.2990 C.3   142  TRP142      0.0590
    119  CG        24.6350    3.0700    5.4990 C.ar  142  TRP142      0.0006
    120  CD1       23.3160    3.0440    5.8500 C.ar  142  TRP142      0.0946
    121  CD2       24.7220    2.4710    4.2040 C.ar  142  TRP142      0.0152
    122  NE1       22.5750    2.4660    4.8450 N.ar  142  TRP142     -0.2442
    123  CE2       23.4150    2.1090    3.8230 C.ar  142  TRP142      0.0810
    124  CE3       25.7780    2.2220    3.3230 C.ar  142  TRP142      0.0012
    125  CZ2       23.1350    1.5020    2.6110 C.ar  142  TRP142      0.0191
    126  CZ3       25.4980    1.6230    2.1110 C.ar  142  TRP142      0.0001
    127  CH2       24.1870    1.2610    1.7700 C.ar  142  TRP142      0.0015
    128  N         26.5800    4.1880    9.5060 N.am  143  LYS143     -0.1977
    129  CA        27.5470    4.6160   10.5070 C.3   143  LYS143      0.1596
    130  C         29.0030    4.4560   10.0380 C.2   143  LYS143      0.2287
    131  O         29.8630    5.2670   10.4030 O.2   143  LYS143     -0.2864
    132  CB        27.3240    3.8650   11.8140 C.3   143  LYS143      0.0298
    133  CG        25.8800    3.9760   12.3580 C.3   143  LYS143      0.0038
    134  CD        25.2690    5.3760   12.1490 C.3   143  LYS143      0.0206
    135  CE        23.7360    5.3270   12.2940 C.3   143  LYS143      0.1093
    136  NZ        23.0460    6.6090   11.9230 N.3   143  LYS143     -0.1314
    137  N         30.1100    5.1220    7.2880 N.3   145  ARG145     -0.1245
    138  CA        30.4280    6.1140    6.2660 C.3   145  ARG145      0.1563
    139  C         30.7190    7.5080    6.8300 C.2   145  ARG145      0.2260
    140  O         31.1550    8.3830    6.0880 O.2   145  ARG145     -0.2867
    141  CB        29.3040    6.2000    5.2300 C.3   145  ARG145      0.0307
    142  CG        28.9400    4.8770    4.6040 C.3   145  ARG145      0.0489
    143  CD        30.1470    4.1010    4.0650 C.3   145  ARG145      0.2205
    144  NE        29.6940    2.7860    3.6260 N.pl3 145  ARG145     -0.0865
    145  CZ        29.3150    2.5050    2.3800 C.cat 145  ARG145      0.5346
    146  NH1       29.3670    3.4390    1.4370 N.pl3 145  ARG145      0.1354
    147  NH2       28.8930    1.2860    2.0800 N.pl3 145  ARG145      0.1354
@<TRIPOS>BOND
     1    73    72    1
     2    73    74    1
     3    90    89    2
     4    89    88    1
     5    76    74   am
     6    76    77    1
     7    74    75    2
     8    79    78    2
     9    80    77    1
    10    61    60    2
    11    92    93    1
    12    92    91    1
    13    95    93   am
    14    77    78    1
    15    78    81   am
    16    88    91    1
    17    88    87    1
    18    93    94    2
    19    84    83    2
    20    52    51    2
    21    60    59    1
    22    63    65    1
    23    63    62    1
    24    48    47    1
    25    87    83   am
    26    83    82    1
    27    59    62    1
    28    59    58    1
    29    81    82    1
    30    82    85    1
    31    47    46    1
    32    51    58   am
    33    51    50    1
    34    62    64    1
    35    46    45    1
    36    66    67    1
    37    49    50    1
    38    49    43   am
    39    45    42    1
    40    42    43    1
    41    42    41    1
    42    68    67    1
    43    68    69    2
    44    50    53    1
    45    53    54    1
    46    85    86    1
    47    54    55    1
    48    43    44    2
    49    67    70    1
    50   146   145    1
    51   127   126   ar
    52   127   125   ar
    53    57    55   ar
    54   147   145    1
    55    70    71    1
    56   126   124   ar
    57    55    56   ar
    58   145   144    2
    59   125   123   ar
    60    24    22    1
    61   124   121   ar
    62   144   143    1
    63   123   121   ar
    64   123   122   ar
    65   143   142    1
    66    32    31    2
    67   121   119   ar
    68    22    23    1
    69    22    21    1
    70   142   141    1
    71   122   120   ar
    72    25    26    1
    73    25    19   am
    74   111   113   ar
    75   111   109   ar
    76    18    21    1
    77    18    17    1
    78    18    19    1
    79   141   138    1
    80    31    30    1
    81    29    30    1
    82    26    27    1
    83   113   112   ar
    84   119   120   ar
    85   119   118    1
    86    30    33    1
    87    19    20    2
    88    27    28    2
    89   109   108    1
    90   109   110   ar
    91   108   105    1
    92   140   139    2
    93   138   139    1
    94   138   137    1
    95   118   115    1
    96    35    37   ar
    97    35    34   ar
    98   112   110   ar
    99    37    39   ar
   100   114   115    1
   101   114   106   am
   102    33    34    1
   103   105   106    1
   104   105   104    1
   105    34    36   ar
   106   115   116    1
   107   106   107    2
   108   117   116    2
   109    39    40    1
   110    39    38   ar
   111   116   128   am
   112   104    98   am
   113    36    38   ar
   114     8     7    1
   115    98    99    2
   116    98    97    1
   117   128   129    1
   118    96    97    1
   119    16    14   am
   120   130   131    2
   121   130   129    1
   122    97   100    1
   123     7     6    1
   124   129   132    1
   125   100   101    1
   126    14    13    1
   127    14    15    2
   128    13    10    1
   129     5     6    1
   130     5     2    1
   131   132   133    1
   132   101   103   ar
   133   101   102   ar
   134   136   135    1
   135     4     3    2
   136   134   135    1
   137   134   133    1
   138    12    11    2
   139     3     2    1
   140     3     9   am
   141     1     2    1
   142    10     9    1
   143    10    11    1
