@<TRIPOS>MOLECULE
tmp/5k0mA00.pdb
 130 122 0 0 0
SMALL
GASTEIGER

@<TRIPOS>ATOM
      1  N        -12.5420  -19.4350   31.5460 N.3    14  PRO14      -0.2116
      2  CA       -11.6800  -20.3070   30.7640 C.3    14  PRO14       0.1372
      3  C        -10.9040  -19.6010   29.6490 C.2    14  PRO14       0.2244
      4  O        -11.4440  -18.7400   28.9600 O.2    14  PRO14      -0.2868
      5  CB       -12.6470  -21.3190   30.1550 C.3    14  PRO14       0.0268
      6  CG       -13.8630  -21.2830   31.0120 C.3    14  PRO14       0.0207
      7  CD       -13.9220  -19.9410   31.6530 C.3    14  PRO14       0.0892
      8  N         -9.6320  -20.4030   26.1950 N.3    16  PHE16      -0.1241
      9  CA        -9.9350  -21.4010   25.1890 C.3    16  PHE16       0.1605
     10  C         -8.8800  -21.5660   24.1240 C.2    16  PHE16       0.2264
     11  O         -8.8730  -22.5890   23.4170 O.2    16  PHE16      -0.2867
     12  CB       -11.2460  -21.0520   24.5140 C.3    16  PHE16       0.0534
     13  CG       -12.4360  -21.3060   25.3800 C.ar   16  PHE16      -0.0203
     14  CD1      -12.6870  -22.5870   25.8770 C.ar   16  PHE16      -0.0042
     15  CD2      -13.2950  -20.2760   25.7210 C.ar   16  PHE16      -0.0042
     16  CE1      -13.7930  -22.8370   26.6790 C.ar   16  PHE16      -0.0003
     17  CE2      -14.4190  -20.5240   26.5100 C.ar   16  PHE16      -0.0003
     18  CZ       -14.6650  -21.8000   26.9810 C.ar   16  PHE16      -0.0000
     19  N        -13.4090  -17.8660   21.3460 N.3    67  TYR67      -0.1241
     20  CA       -13.0840  -19.2790   21.4060 C.3    67  TYR67       0.1605
     21  C        -11.7960  -19.6360   20.6780 C.2    67  TYR67       0.2264
     22  O        -11.2590  -20.7230   20.8870 O.2    67  TYR67      -0.2867
     23  CB       -14.1990  -20.0680   20.7440 C.3    67  TYR67       0.0534
     24  CG       -15.5460  -20.0630   21.4420 C.ar   67  TYR67      -0.0201
     25  CD1      -15.6650  -19.8860   22.8160 C.ar   67  TYR67      -0.0009
     26  CD2      -16.6980  -20.3420   20.7170 C.ar   67  TYR67      -0.0009
     27  CE1      -16.9010  -19.9300   23.4390 C.ar   67  TYR67       0.0417
     28  CE2      -17.9290  -20.3880   21.3250 C.ar   67  TYR67       0.0417
     29  CZ       -18.0190  -20.2010   22.6900 C.ar   67  TYR67       0.1957
     30  OH       -19.2290  -20.2750   23.3010 O.3    67  TYR67      -0.2866
     31  N        -16.0190  -21.7980   16.1640 N.3   113  ASN113     -0.1240
     32  CA       -15.2430  -22.6390   17.0890 C.3   113  ASN113      0.1653
     33  C        -13.7460  -22.7010   16.7800 C.2   113  ASN113      0.2266
     34  O        -12.9470  -22.9420   17.6710 O.2   113  ASN113     -0.2867
     35  CB       -15.8220  -24.0410   17.0870 C.3   113  ASN113      0.1155
     36  CG       -17.2190  -24.0840   17.6760 C.2   113  ASN113      0.2627
     37  OD1      -17.5180  -23.3840   18.6510 O.2   113  ASN113     -0.2716
     38  ND2      -18.0860  -24.8920   17.0850 N.am  113  ASN113     -0.0877
     39  N        -20.7650  -23.4970   14.5880 N.3   130  LYS130     -0.1245
     40  CA       -21.8880  -24.1310   15.2150 C.3   130  LYS130      0.1561
     41  C        -23.0500  -24.3770   14.2500 C.2   130  LYS130      0.2260
     42  O        -23.8540  -25.2550   14.5070 O.2   130  LYS130     -0.2867
     43  CB       -22.3480  -23.2590   16.3760 C.3   130  LYS130      0.0271
     44  CG       -23.6430  -23.6800   17.0670 C.3   130  LYS130      0.0035
     45  CD       -23.7630  -22.9700   18.4120 C.3   130  LYS130      0.0206
     46  CE       -25.0910  -23.2840   19.0760 C.3   130  LYS130      0.1093
     47  NZ       -25.0270  -22.8320   20.4910 N.3   130  LYS130     -0.1314
     48  N        -22.4610  -29.2480   14.9560 N.3   157  GLU157     -0.1245
     49  CA       -21.4040  -28.2350   15.0360 C.3   157  GLU157      0.1567
     50  C        -20.0750  -28.7400   14.5370 C.2   157  GLU157      0.2260
     51  O        -19.6670  -29.8530   14.8660 O.2   157  GLU157     -0.2867
     52  CB       -21.1490  -27.7610   16.4670 C.3   157  GLU157      0.0388
     53  CG       -22.3450  -27.2210   17.2130 C.3   157  GLU157      0.1160
     54  CD       -21.9260  -26.3200   18.3770 C.2   157  GLU157      0.3649
     55  OE1      -20.9100  -25.5730   18.2830 O.co2 157  GLU157     -0.2457
     56  OE2      -22.6290  -26.3470   19.3820 O.co2 157  GLU157     -0.2457
     57  N        -16.1960  -28.5180   14.9040 N.3   159  LEU159     -0.1245
     58  CA       -15.3190  -28.1600   16.0250 C.3   159  LEU159      0.1561
     59  C        -13.8920  -27.8250   15.6600 C.2   159  LEU159      0.2260
     60  O        -13.2390  -27.0680   16.3720 O.2   159  LEU159     -0.2867
     61  CB       -15.3190  -29.2880   17.0430 C.3   159  LEU159      0.0270
     62  CG       -16.6930  -29.6420   17.6200 C.3   159  LEU159      0.0019
     63  CD1      -16.5870  -30.8500   18.5460 C.3   159  LEU159      0.0001
     64  CD2      -17.3280  -28.4750   18.3480 C.3   159  LEU159      0.0001
     65  N        -19.1500  -32.5720   16.0460 N.3   175  MET175     -0.1245
     66  CA       -20.1000  -33.2290   16.9240 C.3   175  MET175      0.1570
     67  C        -20.8920  -34.3700   16.2840 C.2   175  MET175      0.2261
     68  O        -21.4850  -35.1710   17.0080 O.2   175  MET175     -0.2867
     69  CB       -21.0620  -32.1880   17.5200 C.3   175  MET175      0.0387
     70  CG       -20.4150  -31.3210   18.5940 C.3   175  MET175      0.0595
     71  SD       -21.4210  -30.0060   19.3150 S.3   175  MET175     -0.1393
     72  CE       -22.9630  -30.7870   19.6300 C.3   175  MET175      0.0692
     73  N        -12.9930  -33.3020   18.2940 N.3   229  ASP229     -0.1239
     74  CA       -12.7840  -31.9090   18.6860 C.3   229  ASP229      0.1674
     75  C        -11.4540  -31.3020   18.2450 C.2   229  ASP229      0.2266
     76  O        -11.2210  -30.1300   18.4700 O.2   229  ASP229     -0.2867
     77  CB       -13.0750  -31.6700   20.1950 C.3   229  ASP229      0.1410
     78  CG       -12.2670  -32.5570   21.1440 C.2   229  ASP229      0.3668
     79  OD1      -11.5910  -33.5010   20.6790 O.co2 229  ASP229     -0.2456
     80  OD2      -12.3400  -32.3050   22.3870 O.co2 229  ASP229     -0.2456
     81  N        -13.9080  -30.8460   24.2030 N.3   284  TYR284     -0.1227
     82  CA       -13.3840  -29.5400   23.7970 C.3   284  TYR284      0.1736
     83  C        -11.9820  -29.2740   24.3820 C.2   284  TYR284      0.2595
     84  O        -11.7520  -28.3040   25.1220 O.2   284  TYR284     -0.2718
     85  CB       -14.3770  -28.3930   24.0970 C.3   284  TYR284      0.0548
     86  CG       -15.8360  -28.7230   23.8040 C.ar  284  TYR284     -0.0200
     87  CD1      -16.2220  -29.1780   22.5520 C.ar  284  TYR284     -0.0009
     88  CD2      -16.8140  -28.6200   24.7960 C.ar  284  TYR284     -0.0009
     89  CE1      -17.5320  -29.5120   22.2780 C.ar  284  TYR284      0.0417
     90  CE2      -18.1350  -28.9520   24.5310 C.ar  284  TYR284      0.0417
     91  CZ       -18.4900  -29.3880   23.2590 C.ar  284  TYR284      0.1957
     92  OH       -19.7900  -29.7280   22.9520 O.3   284  TYR284     -0.2866
     93  N        -11.0500  -30.1370   23.9830 N.am  285  MET285     -0.1965
     94  CA        -9.6420  -30.0710   24.3790 C.3   285  MET285      0.1736
     95  C         -8.8130  -30.2430   23.0970 C.2   285  MET285      0.2616
     96  O         -9.0060  -31.2080   22.3560 O.2   285  MET285     -0.2715
     97  CB        -9.3200  -31.1990   25.3660 C.3   285  MET285      0.0427
     98  CG       -10.2240  -31.2490   26.6030 C.3   285  MET285      0.0599
     99  SD        -9.8070  -29.9480   27.7800 S.3   285  MET285     -0.1393
    100  CE        -8.5670  -30.8070   28.7410 C.3   285  MET285      0.0692
    101  N         -7.9030  -29.3200   22.8320 N.am  286  ARG286     -0.1977
    102  CA        -7.1310  -29.3490   21.5850 C.3   286  ARG286      0.1597
    103  C         -5.7170  -29.8360   21.8100 C.2   286  ARG286      0.2287
    104  O         -5.1450  -29.5920   22.8580 O.2   286  ARG286     -0.2864
    105  CB        -7.0800  -27.9590   20.9870 C.3   286  ARG286      0.0334
    106  CG        -8.4380  -27.4320   20.5860 C.3   286  ARG286      0.0492
    107  CD        -8.2840  -26.3190   19.5710 C.3   286  ARG286      0.2205
    108  NE        -9.5320  -25.6250   19.2880 N.pl3 286  ARG286     -0.0865
    109  CZ       -10.4770  -26.0320   18.4350 C.cat 286  ARG286      0.5346
    110  NH1      -10.3840  -27.1820   17.7640 N.pl3 286  ARG286      0.1354
    111  NH2      -11.5470  -25.2830   18.2610 N.pl3 286  ARG286      0.1354
    112  N         -7.0300  -26.4070   27.9400 N.3   333  ARG333     -0.1245
    113  CA        -7.8380  -26.4020   26.7140 C.3   333  ARG333      0.1563
    114  C         -6.9970  -26.3680   25.4410 C.2   333  ARG333      0.2260
    115  O         -7.4000  -26.9270   24.4090 O.2   333  ARG333     -0.2867
    116  CB        -8.7660  -25.1850   26.6940 C.3   333  ARG333      0.0307
    117  CG        -9.8320  -25.1820   27.7750 C.3   333  ARG333      0.0489
    118  CD       -10.9910  -26.0860   27.4060 C.3   333  ARG333      0.2205
    119  NE       -11.8510  -26.3220   28.5560 N.pl3 333  ARG333     -0.0865
    120  CZ       -12.8500  -27.1930   28.6030 C.cat 333  ARG333      0.5346
    121  NH1      -13.1630  -27.9360   27.5460 N.pl3 333  ARG333      0.1354
    122  NH2      -13.5480  -27.3290   29.7250 N.pl3 333  ARG333      0.1354
    123  N         -8.6890  -23.6180   32.2380 N.3   349  ASP349     -0.1239
    124  CA       -10.0660  -23.2770   32.5900 C.3   349  ASP349      0.1674
    125  C        -10.2150  -22.2960   33.7420 C.2   349  ASP349      0.2266
    126  O        -11.2620  -21.6600   33.8550 O.2   349  ASP349     -0.2867
    127  CB       -10.8750  -24.5500   32.9080 C.3   349  ASP349      0.1410
    128  CG       -11.5500  -25.1340   31.6770 C.2   349  ASP349      0.3668
    129  OD1      -11.3810  -24.5900   30.5500 O.co2 349  ASP349     -0.2456
    130  OD2      -12.2700  -26.1400   31.8290 O.co2 349  ASP349     -0.2456
@<TRIPOS>BOND
     1    41    42    2
     2    41    40    1
     3    50    51    2
     4    50    49    1
     5    39    40    1
     6    57    58    1
     7    48    49    1
     8    49    52    1
     9    40    43    1
    10    59    58    1
    11    59    60    2
    12    58    61    1
    13    65    66    1
    14    31    32    1
    15    67    66    1
    16    67    68    2
    17    43    44    1
    18    52    53    1
    19    33    32    1
    20    33    34    2
    21    66    69    1
    22    61    62    1
    23    44    45    1
    24    38    36   am
    25    35    32    1
    26    35    36    1
    27    53    54    1
    28    69    70    1
    29    62    64    1
    30    62    63    1
    31    36    37    2
    32   110   109    1
    33    75    76    2
    34    75    74    1
    35   111   109    1
    36    55    54   ar
    37    73    74    1
    38    54    56   ar
    39    45    46    1
    40   109   108    2
    41    70    71    1
    42    74    77    1
    43    46    47    1
    44   108   107    1
    45    71    72    1
    46   107   106    1
    47    77    78    1
    48   106   105    1
    49    21    22    2
    50    21    20    1
    51    79    78   ar
    52    26    28   ar
    53    26    24   ar
    54    23    20    1
    55    23    24    1
    56   105   102    1
    57    78    80   ar
    58    28    29   ar
    59    19    20    1
    60    24    25   ar
    61   102   103    1
    62   102   101    1
    63   103   104    2
    64    89    87   ar
    65    89    91   ar
    66    96    95    2
    67    87    86   ar
    68    29    30    1
    69    29    27   ar
    70    25    27   ar
    71   101    95   am
    72    92    91    1
    73    95    94    1
    74    91    90   ar
    75    11    10    2
    76    82    85    1
    77    82    81    1
    78    82    83    1
    79    86    85    1
    80    86    88   ar
    81    93    94    1
    82    93    83   am
    83    10     9    1
    84    94    97    1
    85    83    84    2
    86   115   114    2
    87    12     9    1
    88    12    13    1
    89    90    88   ar
    90     9     8    1
    91    97    98    1
    92    13    15   ar
    93    13    14   ar
    94   114   113    1
    95    15    17   ar
    96    14    16   ar
    97    17    18   ar
    98    98    99    1
    99    16    18   ar
   100   116   113    1
   101   116   117    1
   102   113   112    1
   103   118   117    1
   104   118   119    1
   105   121   120    1
   106    99   100    1
   107   119   120    2
   108   120   122    1
   109     4     3    2
   110     3     2    1
   111     5     2    1
   112     5     6    1
   113   129   128   ar
   114     2     1    1
   115     6     7    1
   116     1     7    1
   117   128   130   ar
   118   128   127    1
   119   123   124    1
   120   124   127    1
   121   124   125    1
   122   125   126    2
