@<TRIPOS>MOLECULE
tmp/5k0nB01.pdb
 154 150 0 0 0
SMALL
GASTEIGER

@<TRIPOS>ATOM
      1  N         20.9420  -32.2950   38.9550 N.3    39  MET39      -0.1230
      2  CA        19.6510  -31.6370   38.7950 C.3    39  MET39       0.1702
      3  C         19.7460  -30.1440   39.1060 C.2    39  MET39       0.2592
      4  O         20.7250  -29.6820   39.7190 O.2    39  MET39      -0.2718
      5  CB        18.5890  -32.2980   39.6780 C.3    39  MET39       0.0401
      6  CG        18.8520  -32.2410   41.1670 C.3    39  MET39       0.0596
      7  SD        17.5130  -33.0730   42.0820 S.3    39  MET39      -0.1393
      8  CE        17.2440  -34.4630   41.0190 C.3    39  MET39       0.0692
      9  N         18.7340  -29.4020   38.6540 N.am   40  ASN40      -0.1974
     10  CA        18.5490  -28.0030   39.0050 C.3    40  ASN40       0.1688
     11  C         19.7310  -27.1090   38.6170 C.2    40  ASN40       0.2292
     12  O         20.0570  -26.1410   39.3160 O.2    40  ASN40      -0.2864
     13  CB        18.2510  -27.8770   40.5080 C.3    40  ASN40       0.1181
     14  CG        16.8540  -28.3710   40.8650 C.2    40  ASN40       0.2629
     15  OD1       16.2930  -29.2290   40.1770 O.2    40  ASN40      -0.2716
     16  ND2       16.2740  -27.8050   41.9260 N.am   40  ASN40      -0.0877
     17  N         11.5850  -22.8500   45.8710 N.3    64  LEU64      -0.1231
     18  CA        11.4290  -24.1850   46.4520 C.3    64  LEU64       0.1693
     19  C         12.3850  -25.1730   45.7740 C.2    64  LEU64       0.2592
     20  O         12.2760  -25.4380   44.5730 O.2    64  LEU64      -0.2718
     21  CB         9.9740  -24.6650   46.3380 C.3    64  LEU64       0.0284
     22  CG         8.8930  -23.7120   46.8870 C.3    64  LEU64       0.0019
     23  CD1        7.4860  -24.2390   46.6270 C.3    64  LEU64       0.0001
     24  CD2        9.0880  -23.4530   48.3750 C.3    64  LEU64       0.0001
     25  N         13.3090  -25.7270   46.5510 N.am   65  GLY65      -0.1957
     26  CA        14.2480  -26.7160   46.0490 C.3    65  GLY65       0.1869
     27  C         15.5780  -26.1100   45.6060 C.2    65  GLY65       0.2309
     28  O         15.8830  -26.0840   44.4160 O.2    65  GLY65      -0.2863
     29  N         18.6580  -27.1250   46.1190 N.3    67  TYR67      -0.1241
     30  CA        19.6950  -28.1190   45.7990 C.3    67  TYR67       0.1605
     31  C         21.1270  -27.6430   46.1350 C.2    67  TYR67       0.2264
     32  O         21.5240  -27.6460   47.3050 O.2    67  TYR67      -0.2867
     33  CB        19.6010  -28.5310   44.3220 C.3    67  TYR67       0.0534
     34  CG        20.4330  -29.7560   44.0060 C.ar   67  TYR67      -0.0201
     35  CD1       20.5450  -30.7960   44.9260 C.ar   67  TYR67      -0.0009
     36  CD2       21.1110  -29.8710   42.7970 C.ar   67  TYR67      -0.0009
     37  CE1       21.3050  -31.9160   44.6520 C.ar   67  TYR67       0.0417
     38  CE2       21.8680  -30.9890   42.5110 C.ar   67  TYR67       0.0417
     39  CZ        21.9590  -32.0130   43.4450 C.ar   67  TYR67       0.1957
     40  OH        22.7180  -33.1240   43.1560 O.3    67  TYR67      -0.2866
     41  N         14.2410  -22.6860   50.0480 N.3    88  MET88      -0.1230
     42  CA        13.9600  -23.8320   50.9010 C.3    88  MET88       0.1702
     43  C         14.6140  -25.0690   50.3070 C.2    88  MET88       0.2592
     44  O         14.5190  -25.3160   49.1030 O.2    88  MET88      -0.2718
     45  CB        12.4620  -24.0480   51.0500 C.3    88  MET88       0.0401
     46  CG        11.7200  -22.8900   51.6770 C.3    88  MET88       0.0596
     47  SD         9.9470  -23.2130   51.8320 S.3    88  MET88      -0.1393
     48  CE         9.4040  -21.6770   52.5850 C.3    88  MET88       0.0692
     49  N         15.2800  -25.8320   51.1620 N.am   89  GLU89      -0.1966
     50  CA        15.9840  -27.0390   50.7590 C.3    89  GLU89       0.1733
     51  C         15.7280  -28.0860   51.8220 C.2    89  GLU89       0.2616
     52  O         16.0630  -27.8740   52.9840 O.2    89  GLU89      -0.2715
     53  CB        17.4890  -26.7720   50.6060 C.3    89  GLU89       0.0429
     54  CG        18.3150  -28.0410   50.4080 C.3    89  GLU89       0.1163
     55  CD        17.7060  -28.9800   49.3820 C.2    89  GLU89       0.3649
     56  OE1       17.4940  -28.5490   48.2220 O.co2  89  GLU89      -0.2457
     57  OE2       17.4250  -30.1470   49.7450 O.co2  89  GLU89      -0.2457
     58  N         15.1300  -29.2050   51.4360 N.am   90  ILE90      -0.1977
     59  CA        14.7160  -30.1970   52.4170 C.3    90  ILE90       0.1596
     60  C         15.9070  -30.9910   52.9700 C.2    90  ILE90       0.2287
     61  O         15.8700  -31.4420   54.1120 O.2    90  ILE90      -0.2864
     62  CB        13.6490  -31.1780   51.8310 C.3    90  ILE90       0.0276
     63  CG1       12.9920  -31.9780   52.9630 C.3    90  ILE90       0.0022
     64  CG2       14.2500  -32.0850   50.7360 C.3    90  ILE90       0.0022
     65  CD1       11.7120  -32.6730   52.5750 C.3    90  ILE90       0.0001
     66  N         22.5060  -30.6100   51.4700 N.3    94  CYS94      -0.1235
     67  CA        22.3030  -29.6980   50.3450 C.3    94  CYS94       0.1677
     68  C         22.1340  -28.2500   50.8120 C.2    94  CYS94       0.2270
     69  O         22.6880  -27.3370   50.2080 O.2    94  CYS94      -0.2867
     70  CB        21.1100  -30.1420   49.5180 C.3    94  CYS94       0.0956
     71  SG        21.4830  -31.6900   48.6390 S.3    94  CYS94      -0.0801
     72  N         14.1590  -27.4480   55.3980 N.3   116  GLY116     -0.1210
     73  CA        12.9370  -28.1110   55.7990 C.3   116  GLY116      0.1956
     74  C         12.0580  -28.4040   54.6070 C.2   116  GLY116      0.2612
     75  O         12.3900  -28.0520   53.4700 O.2   116  GLY116     -0.2717
     76  N         10.9380  -29.0660   54.8740 N.am  117  ALA117     -0.1965
     77  CA         9.9680  -29.3730   53.8550 C.3   117  ALA117      0.1728
     78  C          9.0870  -28.1480   53.6180 C.2   117  ALA117      0.2617
     79  O          8.7310  -27.4280   54.5580 O.2   117  ALA117     -0.2715
     80  CB         9.1320  -30.5730   54.2630 C.3   117  ALA117      0.0334
     81  N          8.7420  -27.9200   52.3600 N.am  118  SER118     -0.1936
     82  CA         7.9550  -26.7540   51.9610 C.3   118  SER118      0.2055
     83  C          6.6030  -26.6490   52.6810 C.2   118  SER118      0.2642
     84  O          6.1780  -25.5480   53.0570 O.2   118  SER118     -0.2714
     85  CB         7.7330  -26.7830   50.4430 C.3   118  SER118      0.2130
     86  OG         7.0400  -27.9700   50.0760 O.3   118  SER118     -0.2179
     87  N          5.9200  -27.7710   52.8950 N.am  119  GLN119     -0.1976
     88  CA         4.5910  -27.6690   53.4990 C.3   119  GLN119      0.1601
     89  C          4.7030  -27.3150   54.9890 C.2   119  GLN119      0.2287
     90  O          3.7390  -26.8470   55.5900 O.2   119  GLN119     -0.2864
     91  CB         3.7800  -28.9560   53.3070 C.3   119  GLN119      0.0394
     92  CG         4.2360  -30.1510   54.1440 C.3   119  GLN119      0.0908
     93  CD         5.4130  -30.9120   53.5330 C.2   119  GLN119      0.2608
     94  OE1        5.7930  -30.6970   52.3760 O.2   119  GLN119     -0.2717
     95  NE2        5.9740  -31.8260   54.3070 N.am  119  GLN119     -0.0878
     96  N         11.0280  -25.7060   41.9320 N.3   140  ASP140     -0.1225
     97  CA        11.9180  -26.7070   41.3300 C.3   140  ASP140      0.1805
     98  C         12.2780  -27.7850   42.3570 C.2   140  ASP140      0.2598
     99  O         13.4070  -28.3050   42.3810 O.2   140  ASP140     -0.2718
    100  CB        13.1890  -26.0650   40.7630 C.3   140  ASP140      0.1424
    101  CG        13.8300  -26.9190   39.6650 C.2   140  ASP140      0.3668
    102  OD1       13.2110  -27.9030   39.2110 O.co2 140  ASP140     -0.2456
    103  OD2       14.9580  -26.6290   39.2410 O.co2 140  ASP140     -0.2456
    104  N         11.2970  -28.1340   43.1810 N.am  141  HIS141     -0.1961
    105  CA        11.4960  -29.1460   44.2040 C.3   141  HIS141      0.1787
    106  C         10.7790  -30.4300   43.7420 C.2   141  HIS141      0.2620
    107  O         10.7870  -30.7320   42.5470 O.2   141  HIS141     -0.2715
    108  CB        11.0090  -28.6390   45.5660 C.3   141  HIS141      0.0785
    109  CG         9.5690  -28.2210   45.6120 C.ar  141  HIS141      0.0821
    110  ND1        8.9120  -27.6380   44.5330 N.ar  141  HIS141     -0.2267
    111  CD2        8.6550  -28.2720   46.6020 C.ar  141  HIS141      0.1154
    112  CE1        7.6650  -27.3780   44.8620 C.ar  141  HIS141      0.1986
    113  NE2        7.4790  -27.7510   46.1280 N.ar  141  HIS141     -0.2212
    114  N         10.1820  -31.1940   44.6560 N.am  142  TRP142     -0.1960
    115  CA         9.4660  -32.4100   44.2460 C.3   142  TRP142      0.1771
    116  C          8.2940  -32.0890   43.3410 C.2   142  TRP142      0.2619
    117  O          7.4560  -31.2350   43.6680 O.2   142  TRP142     -0.2715
    118  CB         8.9780  -33.1900   45.4590 C.3   142  TRP142      0.0590
    119  CG        10.0960  -33.7170   46.2810 C.ar  142  TRP142      0.0006
    120  CD1       11.4210  -33.7820   45.9250 C.ar  142  TRP142      0.0946
    121  CD2       10.0040  -34.2470   47.6060 C.ar  142  TRP142      0.0152
    122  NE1       12.1510  -34.3180   46.9500 N.ar  142  TRP142     -0.2442
    123  CE2       11.3110  -34.6210   47.9930 C.ar  142  TRP142      0.0810
    124  CE3        8.9430  -34.4540   48.5000 C.ar  142  TRP142      0.0012
    125  CZ2       11.5930  -35.1800   49.2410 C.ar  142  TRP142      0.0191
    126  CZ3        9.2210  -35.0080   49.7490 C.ar  142  TRP142      0.0001
    127  CH2       10.5410  -35.3630   50.1050 C.ar  142  TRP142      0.0015
    128  N          8.2070  -32.7980   42.2160 N.am  143  LYS143     -0.1977
    129  CA         7.2590  -32.4030   41.1880 C.3   143  LYS143      0.1596
    130  C          5.7960  -32.5560   41.6550 C.2   143  LYS143      0.2287
    131  O          4.9500  -31.7280   41.3250 O.2   143  LYS143     -0.2864
    132  CB         7.5000  -33.1950   39.8970 C.3   143  LYS143      0.0298
    133  CG         8.9320  -33.0290   39.3300 C.3   143  LYS143      0.0038
    134  CD         9.5170  -31.6250   39.6020 C.3   143  LYS143      0.0206
    135  CE        11.0170  -31.5760   39.3550 C.3   143  LYS143      0.1093
    136  NZ        11.6470  -30.3080   39.8350 N.3   143  LYS143     -0.1314
    137  N          4.6690  -31.8720   44.3170 N.3   145  ARG145     -0.1245
    138  CA         4.3610  -30.8570   45.3090 C.3   145  ARG145      0.1563
    139  C          4.0680  -29.4820   44.7120 C.2   145  ARG145      0.2260
    140  O          3.6420  -28.5890   45.4380 O.2   145  ARG145     -0.2867
    141  CB         5.5010  -30.7370   46.3270 C.3   145  ARG145      0.0307
    142  CG         5.8510  -32.0400   47.0300 C.3   145  ARG145      0.0489
    143  CD         4.6230  -32.7610   47.6190 C.3   145  ARG145      0.2205
    144  NE         5.0290  -34.0740   48.1180 N.pl3 145  ARG145     -0.0865
    145  CZ         5.4670  -34.2940   49.3530 C.cat 145  ARG145      0.5346
    146  NH1        5.5410  -33.2890   50.2190 N.pl3 145  ARG145      0.1354
    147  NH2        5.8400  -35.5130   49.7220 N.pl3 145  ARG145      0.1354
    148  N         10.4910  -34.1580   34.0440 N.3   173  PRO173     -0.2116
    149  CA         9.6390  -35.3290   33.8090 C.3   173  PRO173      0.1372
    150  C          8.1500  -35.0080   33.8100 C.2   173  PRO173      0.2244
    151  O          7.3500  -35.8900   33.5020 O.2   173  PRO173     -0.2868
    152  CB         9.9900  -36.2470   34.9830 C.3   173  PRO173      0.0268
    153  CG        10.3200  -35.3030   36.0750 C.3   173  PRO173      0.0207
    154  CD        11.0470  -34.1550   35.4090 C.3   173  PRO173      0.0892
@<TRIPOS>BOND
     1   151   150    2
     2   149   150    1
     3   149   148    1
     4   149   152    1
     5   148   154    1
     6   152   153    1
     7   154   153    1
     8    11    10    1
     9    11    12    2
    10     9    10    1
    11     9     3   am
    12     2     1    1
    13     2     3    1
    14     2     5    1
    15    10    13    1
    16     3     4    2
    17   102   101   ar
    18   103   101   ar
    19   133   134    1
    20   133   132    1
    21   135   134    1
    22   135   136    1
    23   101   100    1
    24     5     6    1
    25   132   129    1
    26    15    14    2
    27    13    14    1
    28   100    97    1
    29    14    16   am
    30     8     7    1
    31     6     7    1
    32   129   130    1
    33   129   128    1
    34   131   130    2
    35    97    96    1
    36    97    98    1
    37   128   116   am
    38    98    99    2
    39    98   104   am
    40    38    36   ar
    41    38    39   ar
    42   107   106    2
    43    36    34   ar
    44    40    39    1
    45   104   105    1
    46   116   117    2
    47   116   115    1
    48    39    37   ar
    49   106   105    1
    50   106   114   am
    51    34    33    1
    52    34    35   ar
    53   105   108    1
    54   115   114    1
    55   115   118    1
    56   137   138    1
    57    33    30    1
    58    28    27    2
    59   110   112   ar
    60   110   109   ar
    61    20    19    2
    62    37    35   ar
    63   139   138    1
    64   139   140    2
    65   112   113   ar
    66   138   141    1
    67   118   119    1
    68   108   109    1
    69    27    26    1
    70   109   111   ar
    71    19    18    1
    72    19    25   am
    73    30    29    1
    74    30    31    1
    75    17    18    1
    76   120   119   ar
    77   120   122   ar
    78    26    25    1
    79   113   111   ar
    80    31    32    2
    81   119   121   ar
    82   141   142    1
    83    21    18    1
    84    21    22    1
    85    23    22    1
    86    22    24    1
    87   122   123   ar
    88   142   143    1
    89   121   123   ar
    90   121   124   ar
    91   143   144    1
    92   123   125   ar
    93   144   145    2
    94    56    55   ar
    95   124   126   ar
    96    71    70    1
    97    44    43    2
    98   125   127   ar
    99   145   147    1
   100   145   146    1
   101    55    57   ar
   102    55    54    1
   103    70    67    1
   104   126   127   ar
   105    41    42    1
   106    86    85    1
   107    69    68    2
   108    43    42    1
   109    43    49   am
   110    67    68    1
   111    67    66    1
   112    54    53    1
   113    85    82    1
   114    53    50    1
   115    64    62    1
   116    50    49    1
   117    50    51    1
   118    42    45    1
   119    45    46    1
   120    58    51   am
   121    58    59    1
   122    46    47    1
   123    51    52    2
   124    62    59    1
   125    62    63    1
   126    47    48    1
   127    82    81    1
   128    82    83    1
   129    81    78   am
   130    94    93    2
   131    59    60    1
   132    65    63    1
   133    83    87   am
   134    83    84    2
   135    87    88    1
   136    60    61    2
   137    91    88    1
   138    91    92    1
   139    75    74    2
   140    88    89    1
   141    93    92    1
   142    93    95   am
   143    78    77    1
   144    78    79    2
   145    77    80    1
   146    77    76    1
   147    74    76   am
   148    74    73    1
   149    89    90    2
   150    72    73    1
