@<TRIPOS>MOLECULE
tmp/5k0nC01.pdb
 126 122 0 0 0
SMALL
GASTEIGER

@<TRIPOS>ATOM
      1  N          8.2980    2.1500   16.2640 N.3    37  TRP37      -0.1227
      2  CA         9.6430    2.7050   16.1830 C.3    37  TRP37       0.1737
      3  C         10.0300    3.0120   14.7520 C.2    37  TRP37       0.2595
      4  O          9.6310    2.3060   13.8400 O.2    37  TRP37      -0.2718
      5  CB        10.6570    1.7280   16.7870 C.3    37  TRP37       0.0564
      6  CG        12.0840    2.1270   16.5710 C.ar   37  TRP37       0.0003
      7  CD1       12.8340    2.9480   17.3680 C.ar   37  TRP37       0.0946
      8  CD2       12.9340    1.7270   15.4850 C.ar   37  TRP37       0.0152
      9  NE1       14.1030    3.0800   16.8440 N.ar   37  TRP37      -0.2442
     10  CE2       14.1900    2.3420   15.6960 C.ar   37  TRP37       0.0810
     11  CE3       12.7590    0.9170   14.3630 C.ar   37  TRP37       0.0012
     12  CZ2       15.2580    2.1680   14.8190 C.ar   37  TRP37       0.0191
     13  CZ3       13.8240    0.7460   13.4950 C.ar   37  TRP37       0.0001
     14  CH2       15.0600    1.3680   13.7300 C.ar   37  TRP37       0.0015
     15  N         10.7910    4.0830   14.5650 N.am   38  ALA38      -0.1966
     16  CA        11.4470    4.3420   13.2880 C.3    38  ALA38       0.1728
     17  C         12.7680    5.0310   13.5810 C.2    38  ALA38       0.2616
     18  O         12.9170    5.6860   14.6110 O.2    38  ALA38      -0.2715
     19  CB        10.5660    5.1890   12.3730 C.3    38  ALA38       0.0334
     20  N         13.7430    4.8860   12.6950 N.am   39  MET39      -0.1963
     21  CA        15.0180    5.5180   12.9650 C.3    39  MET39       0.1736
     22  C         14.9700    7.0110   12.6350 C.2    39  MET39       0.2616
     23  O         14.0150    7.4860   12.0070 O.2    39  MET39      -0.2715
     24  CB        16.1380    4.8330   12.1840 C.3    39  MET39       0.0427
     25  CG        16.0230    4.9420   10.6820 C.3    39  MET39       0.0599
     26  SD        17.4560    4.1380    9.9150 S.3    39  MET39      -0.1393
     27  CE        17.5430    2.6660   10.8880 C.3    39  MET39       0.0692
     28  N         16.0020    7.7300   13.0810 N.am   40  ASN40      -0.1958
     29  CA        16.2390    9.1270   12.7170 C.3    40  ASN40       0.1819
     30  C         15.0820   10.0660   13.0740 C.2    40  ASN40       0.2621
     31  O         14.7630   10.9960   12.3200 O.2    40  ASN40      -0.2715
     32  CB        16.5630    9.2390   11.2140 C.3    40  ASN40       0.1195
     33  CG        17.9570    8.7200   10.8780 C.2    40  ASN40       0.2630
     34  OD1       18.5160    7.8970   11.6090 O.2    40  ASN40      -0.2716
     35  ND2       18.5260    9.2030    9.7710 N.am   40  ASN40      -0.0877
     36  N         14.4640    9.8180   14.2250 N.am   41  VAL41      -0.1977
     37  CA        13.4920   10.7430   14.7980 C.3    41  VAL41       0.1596
     38  C         13.8430   10.9590   16.2690 C.2    41  VAL41       0.2287
     39  O         14.8190   10.4050   16.7670 O.2    41  VAL41      -0.2864
     40  CB        12.0340   10.2280   14.6760 C.3    41  VAL41       0.0276
     41  CG1       11.6760    9.9800   13.2190 C.3    41  VAL41       0.0022
     42  CG2       11.8310    8.9670   15.5100 C.3    41  VAL41       0.0022
     43  N         16.7750   14.5350   20.7910 N.3    45  LYS45      -0.1245
     44  CA        17.9380   14.8540   19.9590 C.3    45  LYS45       0.1561
     45  C         17.6590   16.0360   19.0350 C.2    45  LYS45       0.2260
     46  O         18.5590   16.8220   18.7430 O.2    45  LYS45      -0.2867
     47  CB        18.3690   13.6520   19.1360 C.3    45  LYS45       0.0271
     48  CG        19.0160   12.5720   19.9710 C.3    45  LYS45       0.0035
     49  CD        19.6670   11.5630   19.0720 C.3    45  LYS45       0.0206
     50  CE        20.3490   10.4680   19.8670 C.3    45  LYS45       0.1093
     51  NZ        20.5940    9.3390   18.9520 N.3    45  LYS45      -0.1314
     52  N         23.7020   11.3950    9.5960 N.3   140  ASP140     -0.1239
     53  CA        22.8280   10.3970   10.2150 C.3   140  ASP140      0.1674
     54  C         22.4860    9.2960    9.2270 C.2   140  ASP140      0.2266
     55  O         21.3790    8.7670    9.2260 O.2   140  ASP140     -0.2867
     56  CB        21.5420   11.0340   10.7640 C.3   140  ASP140      0.1410
     57  CG        20.8880   10.1760   11.8650 C.2   140  ASP140      0.3668
     58  OD1       21.5260    9.2110   12.3380 O.co2 140  ASP140     -0.2456
     59  OD2       19.7470   10.4540   12.2610 O.co2 140  ASP140     -0.2456
     60  N         26.6650    4.4030    9.5050 N.3   143  LYS143     -0.1245
     61  CA        27.6250    4.8500   10.5050 C.3   143  LYS143      0.1561
     62  C         29.0710    4.6790   10.0360 C.2   143  LYS143      0.2260
     63  O         29.9420    5.5010   10.3550 O.2   143  LYS143     -0.2867
     64  CB        27.4080    4.1050   11.8230 C.3   143  LYS143      0.0271
     65  CG        25.9650    4.1870   12.3310 C.3   143  LYS143      0.0035
     66  CD        25.3780    5.5710   12.1130 C.3   143  LYS143      0.0206
     67  CE        23.8750    5.6100   12.4240 C.3   143  LYS143      0.1093
     68  NZ        23.1510    6.7460   11.7660 N.3   143  LYS143     -0.1314
     69  N         25.1020   12.0920   14.4450 N.3   168  ASP168     -0.1225
     70  CA        24.2290   11.3930   15.3990 C.3   168  ASP168      0.1805
     71  C         24.6380    9.9280   15.5870 C.2   168  ASP168      0.2597
     72  O         25.3660    9.3750   14.7620 O.2   168  ASP168     -0.2718
     73  CB        22.7720   11.4820   14.9440 C.3   168  ASP168      0.1424
     74  CG        21.7830   11.0850   16.0460 C.2   168  ASP168      0.3668
     75  OD1       22.1910   10.9930   17.2310 O.co2 168  ASP168     -0.2456
     76  OD2       20.5950   10.8780   15.7270 O.co2 168  ASP168     -0.2456
     77  N         24.1570    9.3090   16.6640 N.am  169  ASN169     -0.1974
     78  CA        24.3860    7.8870   16.9220 C.3   169  ASN169      0.1688
     79  C         25.8820    7.5200   17.0300 C.2   169  ASN169      0.2292
     80  O         26.2870    6.4180   16.6640 O.2   169  ASN169     -0.2864
     81  CB        23.7150    7.0260   15.8240 C.3   169  ASN169      0.1181
     82  CG        22.1990    7.2100   15.7590 C.2   169  ASN169      0.2629
     83  OD1       21.6200    7.3410   14.6740 O.2   169  ASN169     -0.2716
     84  ND2       21.5500    7.2090   16.9180 N.am  169  ASN169     -0.0877
     85  N         25.6780    4.8780   20.0240 N.3   172  VAL172     -0.1231
     86  CA        24.8690    3.7090   19.6700 C.3   172  VAL172      0.1678
     87  C         24.2010    3.9060   18.3210 C.2   172  VAL172      0.2434
     88  O         23.4110    4.8270   18.1580 O.2   172  VAL172     -0.2733
     89  CB        23.7790    3.4120   20.7250 C.3   172  VAL172      0.0265
     90  CG1       22.8670    2.2900   20.2490 C.3   172  VAL172      0.0020
     91  CG2       24.4050    3.0440   22.0620 C.3   172  VAL172      0.0020
     92  N         24.4910    3.0280   17.3450 N.am  173  PRO173     -0.2729
     93  CA        25.4040    1.8770   17.4020 C.3   173  PRO173      0.1401
     94  C         26.8750    2.2440   17.5730 C.2   173  PRO173      0.2269
     95  O         27.6710    1.3860   17.9660 O.2   173  PRO173     -0.2865
     96  CB        25.1830    1.1860   16.0540 C.3   173  PRO173      0.0296
     97  CG        24.5970    2.2220   15.1660 C.3   173  PRO173      0.0237
     98  CD        23.7590    3.0790   16.0700 C.3   173  PRO173      0.0939
     99  N         18.3430    7.4480   24.4030 N.3   197  LEU197     -0.1245
    100  CA        17.4310    7.0080   23.3510 C.3   197  LEU197      0.1561
    101  C         16.0160    6.9000   23.8960 C.2   197  LEU197      0.2260
    102  O         15.8090    6.4980   25.0400 O.2   197  LEU197     -0.2867
    103  CB        17.8770    5.6670   22.7740 C.3   197  LEU197      0.0270
    104  CG        19.1990    5.7280   22.0130 C.3   197  LEU197      0.0019
    105  CD1       19.5750    4.3610   21.4320 C.3   197  LEU197      0.0001
    106  CD2       19.0990    6.7750   20.9230 C.3   197  LEU197      0.0001
    107  N         13.5590    5.0200   22.7460 N.3   199  TYR199     -0.1227
    108  CA        12.8930    3.7410   22.4940 C.3   199  TYR199      0.1736
    109  C         13.5390    2.5470   23.1900 C.2   199  TYR199      0.2595
    110  O         13.0110    1.4390   23.1410 O.2   199  TYR199     -0.2718
    111  CB        12.8420    3.4770   20.9890 C.3   199  TYR199      0.0548
    112  CG        14.1930    3.5630   20.3080 C.ar  199  TYR199     -0.0200
    113  CD1       15.0210    2.4450   20.2150 C.ar  199  TYR199     -0.0009
    114  CD2       14.6400    4.7620   19.7560 C.ar  199  TYR199     -0.0009
    115  CE1       16.2530    2.5200   19.5880 C.ar  199  TYR199      0.0417
    116  CE2       15.8720    4.8490   19.1290 C.ar  199  TYR199      0.0417
    117  CZ        16.6700    3.7240   19.0440 C.ar  199  TYR199      0.1957
    118  OH        17.8920    3.8070   18.4210 O.3   199  TYR199     -0.2866
    119  N         14.6980    2.7730   23.7950 N.am  200  MET200     -0.1979
    120  CA        15.3480    1.7870   24.6530 C.3   200  MET200      0.1605
    121  C         16.2270    2.5740   25.6190 C.2   200  MET200      0.2287
    122  O         16.5870    3.7220   25.3480 O.2   200  MET200     -0.2864
    123  CB        16.1590    0.7670   23.8470 C.3   200  MET200      0.0413
    124  CG        17.4790    1.3070   23.3120 C.3   200  MET200      0.0598
    125  SD        18.1330    0.4780   21.8350 S.3   200  MET200     -0.1393
    126  CE        18.9870   -0.9250   22.5260 C.3   200  MET200      0.0692
@<TRIPOS>BOND
     1    55    54    2
     2    54    53    1
     3    60    61    1
     4    52    53    1
     5    35    33   am
     6    26    25    1
     7    26    27    1
     8    62    63    2
     9    62    61    1
    10    53    56    1
    11    61    64    1
    12    25    24    1
    13    56    57    1
    14    33    32    1
    15    33    34    2
    16    32    29    1
    17    68    67    1
    18    64    65    1
    19    57    59   ar
    20    57    58   ar
    21    23    22    2
    22    66    65    1
    23    66    67    1
    24    24    21    1
    25    31    30    2
    26    19    16    1
    27    22    21    1
    28    22    28   am
    29    20    21    1
    30    20    17   am
    31    29    30    1
    32    29    28    1
    33    30    36   am
    34    41    40    1
    35    16    17    1
    36    16    15    1
    37    13    14   ar
    38    13    11   ar
    39    17    18    2
    40    14    12   ar
    41     4     3    2
    42    36    37    1
    43    11     8   ar
    44    69    70    1
    45    15     3   am
    46    83    82    2
    47    40    37    1
    48    40    42    1
    49     3     2    1
    50    72    71    2
    51    37    38    1
    52    12    10   ar
    53    73    70    1
    54    73    74    1
    55    97    96    1
    56    97    98    1
    57    70    71    1
    58     8    10   ar
    59     8     6   ar
    60    71    77   am
    61    10     9   ar
    62    76    74   ar
    63    82    81    1
    64    82    84   am
    65    81    78    1
    66    74    75   ar
    67    96    93    1
    68    98    92    1
    69     2     1    1
    70     2     5    1
    71    38    39    2
    72     6     5    1
    73     6     7   ar
    74    80    79    2
    75    77    78    1
    76     9     7   ar
    77    78    79    1
    78    92    93    1
    79    92    87   am
    80    93    94    1
    81    94    95    2
    82    88    87    2
    83    87    86    1
    84   118   117    1
    85    46    45    2
    86    51    50    1
    87    45    44    1
    88   117   116   ar
    89   117   115   ar
    90    49    50    1
    91    49    48    1
    92   116   114   ar
    93    47    44    1
    94    47    48    1
    95   115   113   ar
    96    86    85    1
    97    86    89    1
    98   114   112   ar
    99    44    43    1
   100   113   112   ar
   101    90    89    1
   102   112   111    1
   103    89    91    1
   104   106   104    1
   105   111   108    1
   106   105   104    1
   107   125   126    1
   108   125   124    1
   109   104   103    1
   110   108   107    1
   111   108   109    1
   112   103   100    1
   113   110   109    2
   114   109   119   am
   115   124   123    1
   116   100   101    1
   117   100    99    1
   118   119   120    1
   119   123   120    1
   120   101   102    2
   121   120   121    1
   122   122   121    2
