@<TRIPOS>MOLECULE
tmp/5k0sC00.pdb
 204 204 0 0 0
SMALL
GASTEIGER

@<TRIPOS>ATOM
      1  N         -0.4320    8.3720   71.3980 N.3     9  ALA9       -0.1231
      2  CA        -1.3300    9.3850   70.8730 C.3     9  ALA9        0.1694
      3  C         -2.4280    8.7020   70.0690 C.2     9  ALA9        0.2591
      4  O         -2.1710    7.7510   69.3250 O.2     9  ALA9       -0.2718
      5  CB        -0.5670   10.3780   70.0000 C.3     9  ALA9        0.0304
      6  N         -3.6670    9.1620   70.2420 N.am   10  ILE10      -0.1980
      7  CA        -4.7520    8.6000   69.4540 C.3    10  ILE10       0.1595
      8  C         -4.5840    9.0320   68.0050 C.2    10  ILE10       0.2287
      9  O         -4.1790   10.1650   67.7130 O.2    10  ILE10      -0.2864
     10  CB        -6.1260    9.0070   70.0180 C.3    10  ILE10       0.0276
     11  CG1       -6.2250   10.5220   70.1790 C.3    10  ILE10       0.0022
     12  CG2       -6.3880    8.3100   71.3470 C.3    10  ILE10       0.0022
     13  CD1       -7.5050   10.9710   70.8590 C.3    10  ILE10       0.0001
     14  N         -5.6820    9.7510   63.9660 N.3    12  TYR12      -0.1241
     15  CA        -6.7290   10.4750   63.2620 C.3    12  TYR12       0.1605
     16  C         -7.1920    9.6260   62.0880 C.2    12  TYR12       0.2264
     17  O         -6.4870    9.5490   61.0680 O.2    12  TYR12      -0.2867
     18  CB        -6.2090   11.8330   62.7830 C.3    12  TYR12       0.0534
     19  CG        -7.2670   12.7750   62.2550 C.ar   12  TYR12      -0.0201
     20  CD1       -8.4390   13.0080   62.9650 C.ar   12  TYR12      -0.0009
     21  CD2       -7.0820   13.4540   61.0570 C.ar   12  TYR12      -0.0009
     22  CE1       -9.4040   13.8760   62.4830 C.ar   12  TYR12       0.0417
     23  CE2       -8.0380   14.3240   60.5730 C.ar   12  TYR12       0.0417
     24  CZ        -9.1960   14.5290   61.2870 C.ar   12  TYR12       0.1957
     25  OH       -10.1460   15.3940   60.7980 O.3    12  TYR12      -0.2866
     26  N         -9.0260    9.5200   67.3120 N.3    49  ASP49      -0.1239
     27  CA        -9.5800   10.8640   67.4610 C.3    49  ASP49       0.1674
     28  C        -10.4610   11.1280   66.2450 C.2    49  ASP49       0.2266
     29  O         -9.9540   11.3500   65.1410 O.2    49  ASP49      -0.2867
     30  CB        -8.4400   11.8770   67.5870 C.3    49  ASP49       0.1410
     31  CG        -8.8350   13.2900   67.2040 C.2    49  ASP49       0.3668
     32  OD1      -10.0130   13.6740   67.3680 O.co2  49  ASP49      -0.2456
     33  OD2       -7.9380   14.0320   66.7530 O.co2  49  ASP49      -0.2456
     34  N        -13.4800   13.2680   65.9240 N.3    51  HIS51      -0.1226
     35  CA       -14.2600   14.4800   65.7230 C.3    51  HIS51       0.1752
     36  C        -13.5180   15.4560   64.8110 C.2    51  HIS51       0.2597
     37  O        -12.3660   15.2420   64.4270 O.2    51  HIS51      -0.2718
     38  CB       -14.5800   15.1390   67.0670 C.3    51  HIS51       0.0759
     39  CG       -15.4730   14.3210   67.9490 C.ar   51  HIS51       0.0818
     40  ND1      -15.1800   14.0610   69.2700 N.ar   51  HIS51      -0.2268
     41  CD2      -16.6560   13.7100   67.7000 C.ar   51  HIS51       0.1154
     42  CE1      -16.1400   13.3220   69.7960 C.ar   51  HIS51       0.1986
     43  NE2      -17.0490   13.0950   68.8640 N.ar   51  HIS51      -0.2212
     44  N        -14.1980   16.5370   64.4510 N.am   52  GLY52      -0.1942
     45  CA       -13.5670   17.6520   63.7770 C.3    52  GLY52       0.2014
     46  C        -14.2240   17.9920   62.4500 C.2    52  GLY52       0.2639
     47  O        -15.0810   17.2750   61.9360 O.2    52  GLY52      -0.2714
     48  N        -13.7680   19.1170   61.8960 N.am   53  ILE53      -0.1963
     49  CA       -14.3760   19.6570   60.6840 C.3    53  ILE53       0.1727
     50  C        -13.9740   18.8370   59.4620 C.2    53  ILE53       0.2616
     51  O        -14.7790   18.6340   58.5450 O.2    53  ILE53      -0.2715
     52  CB       -14.0140   21.1480   60.5250 C.3    53  ILE53       0.0290
     53  CG1      -14.8080   21.7780   59.3810 C.3    53  ILE53       0.0022
     54  CG2      -12.5100   21.3410   60.3120 C.3    53  ILE53       0.0023
     55  CD1      -16.3050   21.7060   59.5690 C.3    53  ILE53       0.0001
     56  N        -12.7320   18.3430   59.4280 N.am   54  LYS54      -0.1977
     57  CA       -12.3010   17.5400   58.2890 C.3    54  LYS54       0.1596
     58  C        -12.9970   16.1860   58.2620 C.2    54  LYS54       0.2287
     59  O        -13.2750   15.6550   57.1800 O.2    54  LYS54      -0.2864
     60  CB       -10.7840   17.3530   58.3070 C.3    54  LYS54       0.0298
     61  CG        -9.9970   18.5190   57.7270 C.3    54  LYS54       0.0038
     62  CD        -8.5020   18.2460   57.7760 C.3    54  LYS54       0.0206
     63  CE        -7.7080   19.4220   57.2370 C.3    54  LYS54       0.1093
     64  NZ        -6.2790   19.3510   57.6470 N.3    54  LYS54      -0.1314
     65  N        -19.1380   23.6670   63.4010 N.3   211  PHE211     -0.1241
     66  CA       -19.4940   22.3000   63.0510 C.3   211  PHE211      0.1605
     67  C        -20.1560   21.6130   64.2350 C.2   211  PHE211      0.2264
     68  O        -19.9520   21.9800   65.3960 O.2   211  PHE211     -0.2867
     69  CB       -18.2800   21.4970   62.5680 C.3   211  PHE211      0.0534
     70  CG       -17.1330   21.4760   63.5380 C.ar  211  PHE211     -0.0203
     71  CD1      -16.2040   22.5030   63.5540 C.ar  211  PHE211     -0.0042
     72  CD2      -16.9710   20.4190   64.4180 C.ar  211  PHE211     -0.0042
     73  CE1      -15.1430   22.4840   64.4380 C.ar  211  PHE211     -0.0003
     74  CE2      -15.9110   20.3930   65.3040 C.ar  211  PHE211     -0.0003
     75  CZ       -14.9960   21.4270   65.3140 C.ar  211  PHE211     -0.0000
     76  N        -19.9850   18.1430   64.6870 N.3   213  TRP213     -0.1227
     77  CA       -19.3560   16.8510   64.9520 C.3   213  TRP213      0.1737
     78  C        -18.3190   17.0030   66.0530 C.2   213  TRP213      0.2596
     79  O        -17.1290   17.1950   65.8010 O.2   213  TRP213     -0.2718
     80  CB       -18.7430   16.2990   63.6700 C.3   213  TRP213      0.0564
     81  CG       -18.0820   14.9720   63.8210 C.ar  213  TRP213      0.0003
     82  CD1      -16.8250   14.6370   63.4140 C.ar  213  TRP213      0.0946
     83  CD2      -18.6400   13.7930   64.4160 C.ar  213  TRP213      0.0152
     84  NE1      -16.5650   13.3230   63.7130 N.ar  213  TRP213     -0.2442
     85  CE2      -17.6620   12.7830   64.3310 C.ar  213  TRP213      0.0810
     86  CE3      -19.8700   13.4920   65.0100 C.ar  213  TRP213      0.0012
     87  CZ2      -17.8750   11.4960   64.8180 C.ar  213  TRP213      0.0191
     88  CZ3      -20.0780   12.2130   65.4950 C.ar  213  TRP213      0.0001
     89  CH2      -19.0860   11.2310   65.3940 C.ar  213  TRP213      0.0015
     90  N        -18.7810   16.9150   67.2960 N.am  214  GLY214     -0.1957
     91  CA       -17.8890   17.0370   68.4300 C.3   214  GLY214      0.1869
     92  C        -18.6600   16.9600   69.7290 C.2   214  GLY214      0.2309
     93  O        -19.8610   16.6870   69.7440 O.2   214  GLY214     -0.2863
     94  N        -16.3910   21.3500   71.5110 N.3   225  MET225     -0.1230
     95  CA       -14.9990   21.4680   71.9160 C.3   225  MET225      0.1702
     96  C        -14.0690   21.2890   70.7230 C.2   225  MET225      0.2592
     97  O        -14.3350   20.4930   69.8170 O.2   225  MET225     -0.2718
     98  CB       -14.6640   20.4400   72.9940 C.3   225  MET225      0.0401
     99  CG       -15.4870   20.5650   74.2630 C.3   225  MET225      0.0596
    100  SD       -14.9480   19.3960   75.5240 S.3   225  MET225     -0.1393
    101  CE       -16.2490   19.5880   76.7400 C.3   225  MET225      0.0692
    102  N        -12.9710   22.0400   70.7300 N.am  226  TYR226     -0.1962
    103  CA       -11.9190   21.8800   69.7390 C.3   226  TYR226      0.1771
    104  C        -11.0010   20.7240   70.1530 C.2   226  TYR226      0.2619
    105  O        -11.2290   20.0440   71.1570 O.2   226  TYR226     -0.2715
    106  CB       -11.1690   23.2030   69.5660 C.3   226  TYR226      0.0574
    107  CG       -10.2230   23.2610   68.3840 C.ar  226  TYR226     -0.0198
    108  CD1      -10.6220   22.8530   67.1170 C.ar  226  TYR226     -0.0009
    109  CD2       -8.9300   23.7410   68.5400 C.ar  226  TYR226     -0.0009
    110  CE1       -9.7530   22.9110   66.0420 C.ar  226  TYR226      0.0417
    111  CE2       -8.0570   23.8040   67.4740 C.ar  226  TYR226      0.0417
    112  CZ        -8.4720   23.3890   66.2270 C.ar  226  TYR226      0.1957
    113  OH        -7.6000   23.4510   65.1640 O.3   226  TYR226     -0.2866
    114  N         -9.9470   20.4980   69.3640 N.am  227  VAL227     -0.1963
    115  CA        -9.1690   19.2660   69.4720 C.3   227  VAL227      0.1727
    116  C         -8.4900   19.1490   70.8310 C.2   227  VAL227      0.2616
    117  O         -8.3070   18.0380   71.3470 O.2   227  VAL227     -0.2715
    118  CB        -8.1420   19.1860   68.3220 C.3   227  VAL227      0.0290
    119  CG1       -7.1860   20.3660   68.3740 C.3   227  VAL227      0.0023
    120  CG2       -7.3750   17.8640   68.3600 C.3   227  VAL227      0.0023
    121  N         -8.1330   20.2790   71.4450 N.am  228  TRP228     -0.1974
    122  CA        -7.2400   20.2430   72.6000 C.3   228  TRP228      0.1640
    123  C         -7.8420   19.4360   73.7440 C.2   228  TRP228      0.2290
    124  O         -7.2320   18.4800   74.2320 O.2   228  TRP228     -0.2864
    125  CB        -6.9020   21.6660   73.0590 C.3   228  TRP228      0.0576
    126  CG        -6.4980   22.5930   71.9460 C.ar  228  TRP228      0.0006
    127  CD1       -7.0510   23.8050   71.6530 C.ar  228  TRP228      0.0946
    128  CD2       -5.4690   22.3770   70.9680 C.ar  228  TRP228      0.0152
    129  NE1       -6.4300   24.3600   70.5620 N.ar  228  TRP228     -0.2442
    130  CE2       -5.4560   23.5030   70.1210 C.ar  228  TRP228      0.0810
    131  CE3       -4.5570   21.3440   70.7290 C.ar  228  TRP228      0.0012
    132  CZ2       -4.5700   23.6250   69.0540 C.ar  228  TRP228      0.0191
    133  CZ3       -3.6820   21.4660   69.6690 C.ar  228  TRP228      0.0001
    134  CH2       -3.6920   22.5980   68.8450 C.ar  228  TRP228      0.0015
    135  N        -10.7060   17.6770   73.6970 N.3   230  ASP230     -0.1225
    136  CA       -11.2700   16.4190   73.2230 C.3   230  ASP230      0.1805
    137  C        -10.2070   15.3310   73.1910 C.2   230  ASP230      0.2598
    138  O        -10.3060   14.3330   73.9110 O.2   230  ASP230     -0.2718
    139  CB       -11.8940   16.6010   71.8330 C.3   230  ASP230      0.1424
    140  CG       -12.6980   15.3810   71.3800 C.2   230  ASP230      0.3668
    141  OD1      -12.5350   14.2790   71.9510 O.co2 230  ASP230     -0.2456
    142  OD2      -13.5040   15.5180   70.4360 O.co2 230  ASP230     -0.2456
    143  N         -9.1710   15.5210   72.3700 N.am  231  ALA231     -0.1966
    144  CA        -8.1970   14.4550   72.1480 C.3   231  ALA231      0.1728
    145  C         -7.4140   14.1360   73.4160 C.2   231  ALA231      0.2616
    146  O         -7.2860   12.9680   73.8030 O.2   231  ALA231     -0.2715
    147  CB        -7.2500   14.8440   71.0140 C.3   231  ALA231      0.0334
    148  N         -6.8820   15.1660   74.0830 N.am  232  LEU232     -0.1977
    149  CA        -5.9800   14.9360   75.2100 C.3   232  LEU232      0.1596
    150  C         -6.6790   14.2570   76.3820 C.2   232  LEU232      0.2287
    151  O         -6.0400   13.5090   77.1310 O.2   232  LEU232     -0.2864
    152  CB        -5.3540   16.2550   75.6630 C.3   232  LEU232      0.0297
    153  CG        -4.3340   16.9050   74.7260 C.3   232  LEU232      0.0022
    154  CD1       -3.9390   18.2840   75.2430 C.3   232  LEU232      0.0001
    155  CD2       -3.1100   16.0140   74.5580 C.3   232  LEU232      0.0001
    156  N         -8.5740   11.8120   76.3220 N.3   234  ASN234     -0.1225
    157  CA        -8.6780   10.3690   76.1140 C.3   234  ASN234      0.1785
    158  C         -7.8670    9.5770   77.1350 C.2   234  ASN234      0.2597
    159  O         -8.2510    8.4600   77.5090 O.2   234  ASN234     -0.2718
    160  CB        -8.2180   10.0070   74.6980 C.3   234  ASN234      0.1169
    161  CG        -6.7140    9.8070   74.6040 C.2   234  ASN234      0.2627
    162  OD1       -6.2230    8.6810   74.6850 O.2   234  ASN234     -0.2716
    163  ND2       -5.9760   10.9000   74.4420 N.am  234  ASN234     -0.0877
    164  N         -6.7540   10.1420   77.6090 N.am  235  TYR235     -0.1976
    165  CA        -5.8540    9.4120   78.4960 C.3   235  TYR235      0.1639
    166  C         -6.5030    9.0860   79.8360 C.2   235  TYR235      0.2290
    167  O         -6.1280    8.0980   80.4760 O.2   235  TYR235     -0.2864
    168  CB        -4.5750   10.2180   78.7130 C.3   235  TYR235      0.0560
    169  CG        -3.7990   10.4690   77.4460 C.ar  235  TYR235     -0.0198
    170  CD1       -3.5750    9.4460   76.5340 C.ar  235  TYR235     -0.0009
    171  CD2       -3.3030   11.7320   77.1520 C.ar  235  TYR235     -0.0009
    172  CE1       -2.8700    9.6710   75.3700 C.ar  235  TYR235      0.0417
    173  CE2       -2.5980   11.9680   75.9910 C.ar  235  TYR235      0.0417
    174  CZ        -2.3850   10.9330   75.1040 C.ar  235  TYR235      0.1957
    175  OH        -1.6820   11.1610   73.9450 O.3   235  TYR235     -0.2866
    176  N          3.3940   16.9060   67.5930 N.3   263  ILE263     -0.1245
    177  CA         2.4310   17.2490   68.6290 C.3   263  ILE263      0.1561
    178  C          3.1160   17.4110   69.9850 C.2   263  ILE263      0.2260
    179  O          2.4670   17.3200   71.0250 O.2   263  ILE263     -0.2867
    180  CB         1.2940   16.2150   68.6900 C.3   263  ILE263      0.0252
    181  CG1        1.8560   14.8120   68.9180 C.3   263  ILE263      0.0019
    182  CG2        0.4740   16.2610   67.4100 C.3   263  ILE263      0.0019
    183  CD1        0.7910   13.7590   69.1030 C.3   263  ILE263      0.0001
    184  N          1.5950   20.1210   72.2670 N.3   266  PHE266     -0.1227
    185  CA         0.2510   19.9250   72.7950 C.3   266  PHE266      0.1736
    186  C          0.2710   19.0830   74.0660 C.2   266  PHE266      0.2595
    187  O         -0.5120   19.3270   74.9920 O.2   266  PHE266     -0.2718
    188  CB        -0.6410   19.2810   71.7350 C.3   266  PHE266      0.0547
    189  CG        -0.5290   19.9120   70.3720 C.ar  266  PHE266     -0.0202
    190  CD1       -0.3760   21.2830   70.2310 C.ar  266  PHE266     -0.0042
    191  CD2       -0.5680   19.1300   69.2320 C.ar  266  PHE266     -0.0042
    192  CE1       -0.2690   21.8570   68.9760 C.ar  266  PHE266     -0.0003
    193  CE2       -0.4610   19.6950   67.9770 C.ar  266  PHE266     -0.0003
    194  CZ        -0.3120   21.0620   67.8480 C.ar  266  PHE266     -0.0000
    195  N          1.1610   18.0920   74.1320 N.am  267  HIS267     -0.1975
    196  CA         1.2190   17.1840   75.2750 C.3   267  HIS267      0.1656
    197  C          2.0760   17.6990   76.4220 C.2   267  HIS267      0.2291
    198  O          1.8670   17.2790   77.5660 O.2   267  HIS267     -0.2864
    199  CB         1.7590   15.8170   74.8410 C.3   267  HIS267      0.0771
    200  CG         0.7620   14.9750   74.1110 C.ar  267  HIS267      0.0820
    201  ND1        0.3210   15.2770   72.8410 N.ar  267  HIS267     -0.2267
    202  CD2        0.1220   13.8370   74.4720 C.ar  267  HIS267      0.1154
    203  CE1       -0.5480   14.3620   72.4510 C.ar  267  HIS267      0.1986
    204  NE2       -0.6860   13.4770   73.4220 N.ar  267  HIS267     -0.2212
@<TRIPOS>BOND
     1    59    58    2
     2    63    64    1
     3    63    62    1
     4    61    62    1
     5    61    60    1
     6    58    57    1
     7    57    60    1
     8    57    56    1
     9    51    50    2
    10    53    55    1
    11    53    52    1
    12    56    50   am
    13    50    49    1
    14    54    52    1
    15    52    49    1
    16    23    21   ar
    17    23    24   ar
    18    49    48    1
    19    25    24    1
    20    21    19   ar
    21    17    16    2
    22    24    22   ar
    23    48    46   am
    24    47    46    2
    25    16    15    1
    26    19    18    1
    27    19    20   ar
    28    46    45    1
    29    22    20   ar
    30    69    66    1
    31    69    70    1
    32    18    15    1
    33    66    65    1
    34    66    67    1
    35    15    14    1
    36    82    84   ar
    37    82    81   ar
    38    70    71   ar
    39    70    72   ar
    40    71    73   ar
    41    80    81    1
    42    80    77    1
    43    84    85   ar
    44    45    44    1
    45    81    83   ar
    46    67    68    2
    47    85    83   ar
    48    85    87   ar
    49    83    86   ar
    50    72    74   ar
    51    37    36    2
    52    73    75   ar
    53    44    36   am
    54    76    77    1
    55    36    35    1
    56    87    89   ar
    57    77    78    1
    58    86    88   ar
    59    29    28    2
    60   113   112    1
    61    74    75   ar
    62    89    88   ar
    63    35    34    1
    64    35    38    1
    65    79    78    2
    66   110   112   ar
    67   110   108   ar
    68    78    90   am
    69   112   111   ar
    70    28    27    1
    71    33    31   ar
    72    38    39    1
    73   108   107   ar
    74    31    32   ar
    75    31    30    1
    76    90    91    1
    77    26    27    1
    78   182   180    1
    79    27    30    1
    80   111   109   ar
    81   176   177    1
    82    41    39   ar
    83    41    43   ar
    84     9     8    2
    85   194   193   ar
    86   194   192   ar
    87    39    40   ar
    88   193   191   ar
    89     8     7    1
    90   118   120    1
    91   118   119    1
    92   118   115    1
    93   107   109   ar
    94   107   106    1
    95    91    92    1
    96   177   180    1
    97   177   178    1
    98   180   181    1
    99   134   132   ar
   100   134   133   ar
   101    43    42   ar
   102   181   183    1
   103   192   190   ar
   104   132   130   ar
   105   191   189   ar
   106    40    42   ar
   107     4     3    2
   108   114   115    1
   109   114   104   am
   110     7    10    1
   111     7     6    1
   112   115   116    1
   113   106   103    1
   114   133   131   ar
   115    92    93    2
   116   103   104    1
   117   103   102    1
   118    97    96    2
   119   178   179    2
   120     5     2    1
   121    10    11    1
   122    10    12    1
   123     3     6   am
   124     3     2    1
   125   130   129   ar
   126   130   128   ar
   127   104   105    2
   128    11    13    1
   129   190   189   ar
   130   189   188    1
   131   142   140   ar
   132   129   127   ar
   133    96   102   am
   134    96    95    1
   135   131   128   ar
   136   116   117    2
   137   116   121   am
   138     2     1    1
   139   128   126   ar
   140   147   144    1
   141   140   139    1
   142   140   141   ar
   143   121   122    1
   144    94    95    1
   145   127   126   ar
   146   188   185    1
   147   139   136    1
   148    95    98    1
   149   126   125    1
   150   144   143    1
   151   144   145    1
   152   184   185    1
   153   143   137   am
   154   203   201   ar
   155   203   204   ar
   156   122   125    1
   157   122   123    1
   158   185   186    1
   159   201   200   ar
   160    98    99    1
   161   137   136    1
   162   137   138    2
   163   136   135    1
   164   145   146    2
   165   145   148   am
   166   204   202   ar
   167   123   124    2
   168   175   174    1
   169   186   195   am
   170   186   187    2
   171   148   149    1
   172   200   202   ar
   173   200   199    1
   174   195   196    1
   175    99   100    1
   176   163   161   am
   177   155   153    1
   178   161   162    2
   179   161   160    1
   180   160   157    1
   181   153   154    1
   182   153   152    1
   183   199   196    1
   184   174   172   ar
   185   174   173   ar
   186   149   152    1
   187   149   150    1
   188   196   197    1
   189   172   170   ar
   190   100   101    1
   191   173   171   ar
   192   157   156    1
   193   157   158    1
   194   150   151    2
   195   197   198    2
   196   170   169   ar
   197   158   159    2
   198   158   164   am
   199   171   169   ar
   200   169   168    1
   201   164   165    1
   202   165   168    1
   203   165   166    1
   204   166   167    2
