@<TRIPOS>MOLECULE
tmp/5k0tB00.pdb
 194 193 0 0 0
SMALL
GASTEIGER

@<TRIPOS>ATOM
      1  N         13.1830  -29.9930   30.1060 N.3    10  ALA10      -0.1231
      2  CA        13.5130  -30.0600   31.5280 C.3    10  ALA10       0.1694
      3  C         12.2560  -29.7270   32.3160 C.2    10  ALA10       0.2591
      4  O         11.4370  -28.9150   31.8780 O.2    10  ALA10      -0.2718
      5  CB        14.6320  -29.0920   31.8770 C.3    10  ALA10       0.0304
      6  N         12.1100  -30.3610   33.4720 N.am   11  ILE11      -0.1980
      7  CA        10.9200  -30.1770   34.3040 C.3    11  ILE11       0.1595
      8  C         11.0630  -28.9210   35.1630 C.2    11  ILE11       0.2287
      9  O         12.1260  -28.6630   35.7260 O.2    11  ILE11      -0.2864
     10  CB        10.5760  -31.4390   35.1350 C.3    11  ILE11       0.0276
     11  CG1       11.7420  -31.8900   36.0260 C.3    11  ILE11       0.0022
     12  CG2       10.1720  -32.5700   34.1990 C.3    11  ILE11       0.0022
     13  CD1       11.3980  -33.0320   36.9630 C.3    11  ILE11       0.0001
     14  N         10.4740  -26.0150   38.1050 N.3    13  TYR13      -0.1241
     15  CA        10.3030  -25.9360   39.5530 C.3    13  TYR13       0.1605
     16  C          9.1300  -24.9880   39.8150 C.2    13  TYR13       0.2264
     17  O          9.2570  -23.7860   39.5780 O.2    13  TYR13      -0.2867
     18  CB        11.5890  -25.4310   40.2230 C.3    13  TYR13       0.0534
     19  CG        11.7160  -25.7890   41.6980 C.ar   13  TYR13      -0.0201
     20  CD1       11.6220  -27.1130   42.1170 C.ar   13  TYR13      -0.0009
     21  CD2       11.9640  -24.8150   42.6650 C.ar   13  TYR13      -0.0009
     22  CE1       11.7480  -27.4670   43.4510 C.ar   13  TYR13       0.0417
     23  CE2       12.0900  -25.1610   44.0100 C.ar   13  TYR13       0.0417
     24  CZ        11.9830  -26.4890   44.3970 C.ar   13  TYR13       0.1957
     25  OH        12.1110  -26.8610   45.7220 O.3    13  TYR13      -0.2866
     26  N          9.0550  -30.5110   38.7460 N.3    50  ASP50      -0.1239
     27  CA         9.9120  -31.0250   39.8170 C.3    50  ASP50       0.1674
     28  C          9.3680  -30.4370   41.1170 C.2    50  ASP50       0.2266
     29  O          9.5720  -29.2630   41.3900 O.2    50  ASP50      -0.2867
     30  CB        11.3590  -30.5580   39.5540 C.3    50  ASP50       0.1410
     31  CG        12.3290  -30.8690   40.6920 C.2    50  ASP50       0.3668
     32  OD1       12.0100  -31.6790   41.5980 O.co2  50  ASP50      -0.2456
     33  OD2       13.4370  -30.2860   40.6580 O.co2  50  ASP50      -0.2456
     34  N          9.4510  -31.7840   44.6200 N.3    52  HIS52      -0.1226
     35  CA        10.0320  -32.0740   45.9420 C.3    52  HIS52       0.1752
     36  C         11.0790  -31.0340   46.3460 C.2    52  HIS52       0.2597
     37  O         11.4000  -30.1440   45.5600 O.2    52  HIS52      -0.2718
     38  CB        10.6520  -33.4770   45.9670 C.3    52  HIS52       0.0759
     39  CG         9.6550  -34.5790   45.8020 C.ar   52  HIS52       0.0818
     40  ND1        9.8530  -35.6380   44.9470 N.ar   52  HIS52      -0.2268
     41  CD2        8.4480  -34.7840   46.3800 C.ar   52  HIS52       0.1154
     42  CE1        8.8150  -36.4500   45.0030 C.ar   52  HIS52       0.1986
     43  NE2        7.9470  -35.9550   45.8650 N.ar   52  HIS52      -0.2212
     44  N         11.5840  -31.1430   47.5790 N.am   53  GLY53      -0.1942
     45  CA        12.7210  -30.3380   48.0530 C.3    53  GLY53       0.2014
     46  C         12.4250  -29.4590   49.2550 C.2    53  GLY53       0.2639
     47  O         11.2660  -29.2500   49.6140 O.2    53  GLY53      -0.2714
     48  N         13.4910  -28.9520   49.8760 N.am   54  ILE54      -0.1963
     49  CA        13.3780  -28.1260   51.0910 C.3    54  ILE54       0.1727
     50  C         12.6990  -26.7750   50.8320 C.2    54  ILE54       0.2616
     51  O         11.9300  -26.3000   51.6670 O.2    54  ILE54      -0.2715
     52  CB        14.7430  -27.9050   51.8080 C.3    54  ILE54       0.0290
     53  CG1       14.4950  -27.3670   53.2490 C.3    54  ILE54       0.0022
     54  CG2       15.6600  -26.9800   50.9950 C.3    54  ILE54       0.0023
     55  CD1       15.3220  -28.0360   54.3220 C.3    54  ILE54       0.0001
     56  N         12.9740  -26.1750   49.6740 N.am   55  LYS55      -0.1977
     57  CA        12.4070  -24.8750   49.3120 C.3    55  LYS55       0.1596
     58  C         10.8850  -24.9280   49.1470 C.2    55  LYS55       0.2287
     59  O         10.1950  -23.9510   49.4480 O.2    55  LYS55      -0.2864
     60  CB        13.0290  -24.3690   48.0160 C.3    55  LYS55       0.0298
     61  CG        14.5540  -24.3020   48.0200 C.3    55  LYS55       0.0038
     62  CD        15.0770  -23.3830   46.9150 C.3    55  LYS55       0.0206
     63  CE        14.5920  -21.9560   47.1040 C.3    55  LYS55       0.1093
     64  NZ        15.5630  -20.9180   46.6580 N.3    55  LYS55      -0.1314
     65  N         14.6370  -33.2300   55.4500 N.3   184  PHE184     -0.1241
     66  CA        13.2240  -33.0550   55.1080 C.3   184  PHE184      0.1605
     67  C         12.6420  -34.3800   54.6130 C.2   184  PHE184      0.2264
     68  O         13.3530  -35.1830   54.0040 O.2   184  PHE184     -0.2867
     69  CB        13.0580  -31.9570   54.0470 C.3   184  PHE184      0.0534
     70  CG        13.8480  -32.1940   52.7910 C.ar  184  PHE184     -0.0203
     71  CD1       15.1470  -31.7160   52.6720 C.ar  184  PHE184     -0.0042
     72  CD2       13.2940  -32.8880   51.7230 C.ar  184  PHE184     -0.0042
     73  CE1       15.8820  -31.9330   51.5160 C.ar  184  PHE184     -0.0003
     74  CE2       14.0240  -33.1120   50.5640 C.ar  184  PHE184     -0.0003
     75  CZ        15.3190  -32.6320   50.4610 C.ar  184  PHE184     -0.0000
     76  N         15.5110  -39.0080   48.6430 N.3   198  MET198     -0.1230
     77  CA        16.3320  -38.7480   47.4590 C.3   198  MET198      0.1702
     78  C         16.4580  -37.2510   47.2150 C.2   198  MET198      0.2592
     79  O         15.4780  -36.5080   47.3370 O.2   198  MET198     -0.2718
     80  CB        15.7420  -39.4130   46.2140 C.3   198  MET198      0.0401
     81  CG        15.7330  -40.9290   46.2610 C.3   198  MET198      0.0596
     82  SD        15.2150  -41.6610   44.7010 S.3   198  MET198     -0.1393
     83  CE        14.6340  -43.2470   45.2880 C.3   198  MET198      0.0692
     84  N         17.6750  -36.8240   46.8880 N.am  199  TYR199     -0.1962
     85  CA        17.9700  -35.4360   46.5420 C.3   199  TYR199      0.1771
     86  C         17.5950  -35.2280   45.0700 C.2   199  TYR199      0.2619
     87  O         17.2640  -36.1880   44.3740 O.2   199  TYR199     -0.2715
     88  CB        19.4560  -35.1430   46.8190 C.3   199  TYR199      0.0574
     89  CG        19.8540  -33.6820   46.7350 C.ar  199  TYR199     -0.0198
     90  CD1       19.2080  -32.7170   47.5090 C.ar  199  TYR199     -0.0009
     91  CD2       20.8720  -33.2600   45.8780 C.ar  199  TYR199     -0.0009
     92  CE1       19.5530  -31.3790   47.4280 C.ar  199  TYR199      0.0417
     93  CE2       21.2290  -31.9190   45.7930 C.ar  199  TYR199      0.0417
     94  CZ        20.5640  -30.9830   46.5710 C.ar  199  TYR199      0.1957
     95  OH        20.9070  -29.6520   46.4950 O.3   199  TYR199     -0.2866
     96  N         17.6300  -33.9780   44.6100 N.am  200  VAL200     -0.1963
     97  CA        17.1910  -33.5850   43.2560 C.3   200  VAL200      0.1727
     98  C         17.7080  -34.4520   42.0850 C.2   200  VAL200      0.2616
     99  O         16.9710  -34.6660   41.1210 O.2   200  VAL200     -0.2715
    100  CB        17.5020  -32.0770   42.9940 C.3   200  VAL200      0.0290
    101  CG1       18.9990  -31.8280   42.8490 C.3   200  VAL200      0.0023
    102  CG2       16.7500  -31.5600   41.7780 C.3   200  VAL200      0.0023
    103  N         18.9400  -34.9570   42.1760 N.am  201  TRP201     -0.1974
    104  CA        19.6050  -35.6010   41.0210 C.3   201  TRP201      0.1640
    105  C         18.8640  -36.8410   40.5040 C.2   201  TRP201      0.2290
    106  O         18.4490  -36.8700   39.3440 O.2   201  TRP201     -0.2864
    107  CB        21.0690  -35.9650   41.3190 C.3   201  TRP201      0.0576
    108  CG        21.8840  -34.8810   41.9690 C.ar  201  TRP201      0.0006
    109  CD1       22.6200  -35.0000   43.1040 C.ar  201  TRP201      0.0946
    110  CD2       22.0300  -33.5240   41.5340 C.ar  201  TRP201      0.0152
    111  NE1       23.2280  -33.8050   43.4080 N.ar  201  TRP201     -0.2442
    112  CE2       22.8830  -32.8800   42.4570 C.ar  201  TRP201      0.0810
    113  CE3       21.5260  -32.7870   40.4530 C.ar  201  TRP201      0.0012
    114  CZ2       23.2410  -31.5330   42.3320 C.ar  201  TRP201      0.0191
    115  CZ3       21.8830  -31.4490   40.3250 C.ar  201  TRP201      0.0001
    116  CH2       22.7320  -30.8350   41.2630 C.ar  201  TRP201      0.0015
    117  N         15.9270  -37.9530   41.6050 N.3   203  ASP203     -0.1225
    118  CA        14.5020  -37.6140   41.5110 C.3   203  ASP203      0.1805
    119  C         14.1530  -36.9760   40.1620 C.2   203  ASP203      0.2598
    120  O         13.3950  -37.5520   39.3870 O.2   203  ASP203     -0.2718
    121  CB        14.1020  -36.6790   42.6630 C.3   203  ASP203      0.1424
    122  CG        12.6000  -36.4180   42.7370 C.2   203  ASP203      0.3668
    123  OD1       11.8370  -36.7920   41.8240 O.co2 203  ASP203     -0.2456
    124  OD2       12.1730  -35.8230   43.7440 O.co2 203  ASP203     -0.2456
    125  N         14.7220  -35.8040   39.8870 N.am  204  ALA204     -0.1966
    126  CA        14.3110  -34.9940   38.7360 C.3   204  ALA204      0.1728
    127  C         14.6310  -35.6480   37.3940 C.2   204  ALA204      0.2616
    128  O         13.7740  -35.7030   36.5160 O.2   204  ALA204     -0.2715
    129  CB        14.9390  -33.6110   38.8050 C.3   204  ALA204      0.0334
    130  N         15.8570  -36.1440   37.2520 N.am  205  LEU205     -0.1977
    131  CA        16.3150  -36.7370   35.9900 C.3   205  LEU205      0.1596
    132  C         15.5860  -38.0270   35.5980 C.2   205  LEU205      0.2287
    133  O         15.4380  -38.3090   34.4070 O.2   205  LEU205     -0.2864
    134  CB        17.8290  -36.9740   36.0200 C.3   205  LEU205      0.0297
    135  CG        18.6850  -35.7010   35.9840 C.3   205  LEU205      0.0022
    136  CD1       20.0890  -35.9590   36.5100 C.3   205  LEU205      0.0001
    137  CD2       18.7430  -35.1250   34.5720 C.3   205  LEU205      0.0001
    138  N         12.4800  -38.6200   35.7750 N.3   207  ASN207     -0.1225
    139  CA        11.2040  -38.2870   35.1110 C.3   207  ASN207      0.1785
    140  C         11.1380  -38.7610   33.6460 C.2   207  ASN207      0.2597
    141  O         10.0810  -39.1840   33.1800 O.2   207  ASN207     -0.2718
    142  CB        10.9020  -36.7730   35.1920 C.3   207  ASN207      0.1169
    143  CG        11.5010  -35.9780   34.0360 C.2   207  ASN207      0.2627
    144  OD1       10.8130  -35.6760   33.0640 O.2   207  ASN207     -0.2716
    145  ND2       12.7850  -35.6640   34.1250 N.am  207  ASN207     -0.0877
    146  N         12.2690  -38.6890   32.9420 N.am  208  TYR208     -0.1976
    147  CA        12.3420  -39.0490   31.5180 C.3   208  TYR208      0.1639
    148  C         12.0340  -40.5240   31.2330 C.2   208  TYR208      0.2290
    149  O         11.5300  -40.8470   30.1660 O.2   208  TYR208     -0.2864
    150  CB        13.7220  -38.7050   30.9300 C.3   208  TYR208      0.0560
    151  CG        14.1370  -37.2470   31.0460 C.ar  208  TYR208     -0.0198
    152  CD1       13.2510  -36.2110   30.7350 C.ar  208  TYR208     -0.0009
    153  CD2       15.4290  -36.9020   31.4410 C.ar  208  TYR208     -0.0009
    154  CE1       13.6390  -34.8840   30.8220 C.ar  208  TYR208      0.0417
    155  CE2       15.8240  -35.5750   31.5290 C.ar  208  TYR208      0.0417
    156  CZ        14.9280  -34.5690   31.2200 C.ar  208  TYR208      0.1957
    157  OH        15.3170  -33.2520   31.3210 O.3   208  TYR208     -0.2866
    158  N         22.0900  -23.6200   32.3110 N.3   235  ASP235     -0.1225
    159  CA        22.3870  -23.7640   33.7520 C.3   235  ASP235      0.1805
    160  C         22.4070  -25.2030   34.2940 C.2   235  ASP235      0.2597
    161  O         23.0710  -25.4680   35.3010 O.2   235  ASP235     -0.2718
    162  CB        21.3970  -22.9380   34.5950 C.3   235  ASP235      0.1424
    163  CG        19.9340  -23.3110   34.3330 C.2   235  ASP235      0.3668
    164  OD1       19.5300  -23.3850   33.1460 O.co2 235  ASP235     -0.2456
    165  OD2       19.1850  -23.5070   35.3140 O.co2 235  ASP235     -0.2456
    166  N         21.6700  -26.1120   33.6490 N.am  236  ILE236     -0.1980
    167  CA        21.5630  -27.5120   34.0920 C.3   236  ILE236      0.1595
    168  C         22.2460  -28.4830   33.1240 C.2   236  ILE236      0.2287
    169  O         21.9390  -29.6780   33.1170 O.2   236  ILE236     -0.2864
    170  CB        20.0850  -27.9260   34.3420 C.3   236  ILE236      0.0276
    171  CG1       19.2510  -27.9090   33.0470 C.3   236  ILE236      0.0022
    172  CG2       19.4640  -27.0180   35.3990 C.3   236  ILE236      0.0022
    173  CD1       17.8070  -28.3190   33.2390 C.3   236  ILE236      0.0001
    174  N         24.2490  -31.5070   34.6790 N.3   239  PHE239     -0.1227
    175  CA        23.4390  -32.5460   35.3100 C.3   239  PHE239      0.1736
    176  C         22.9020  -33.5540   34.2840 C.2   239  PHE239      0.2595
    177  O         22.7390  -34.7360   34.5990 O.2   239  PHE239     -0.2718
    178  CB        22.2830  -31.9380   36.1230 C.3   239  PHE239      0.0547
    179  CG        22.6790  -30.7590   36.9900 C.ar  239  PHE239     -0.0202
    180  CD1       23.8920  -30.7400   37.6820 C.ar  239  PHE239     -0.0042
    181  CD2       21.8190  -29.6650   37.1290 C.ar  239  PHE239     -0.0042
    182  CE1       24.2430  -29.6530   38.4740 C.ar  239  PHE239     -0.0003
    183  CE2       22.1640  -28.5810   37.9290 C.ar  239  PHE239     -0.0003
    184  CZ        23.3770  -28.5730   38.5980 C.ar  239  PHE239     -0.0000
    185  N         22.6310  -33.0840   33.0680 N.am  240  HIS240     -0.1975
    186  CA        22.1230  -33.9410   31.9950 C.3   240  HIS240      0.1656
    187  C         23.2150  -34.6350   31.1730 C.2   240  HIS240      0.2291
    188  O         22.9360  -35.6530   30.5440 O.2   240  HIS240     -0.2864
    189  CB        21.2070  -33.1420   31.0650 C.3   240  HIS240      0.0771
    190  CG        19.8730  -32.8290   31.6620 C.ar  240  HIS240      0.0820
    191  ND1       19.6950  -31.8500   32.6130 N.ar  240  HIS240     -0.2267
    192  CD2       18.6510  -33.3680   31.4440 C.ar  240  HIS240      0.1154
    193  CE1       18.4200  -31.7980   32.9540 C.ar  240  HIS240      0.1986
    194  NE2       17.7640  -32.7070   32.2570 N.ar  240  HIS240     -0.2212
@<TRIPOS>BOND
     1     1     2    1
     2   149   148    2
     3   188   187    2
     4   152   154   ar
     5   152   151   ar
     6   154   156   ar
     7   150   151    1
     8   150   147    1
     9   151   153   ar
    10   189   190    1
    11   189   186    1
    12   187   186    1
    13   156   157    1
    14   156   155   ar
    15   148   147    1
    16   153   155   ar
    17   192   190   ar
    18   192   194   ar
    19   147   146    1
    20     2     5    1
    21     2     3    1
    22   190   191   ar
    23     4     3    2
    24   186   185    1
    25   194   193   ar
    26   158   159    1
    27     3     6   am
    28   191   193   ar
    29   146   140   am
    30   171   173    1
    31   171   170    1
    32   144   143    2
    33   185   176   am
    34   169   168    2
    35   168   167    1
    36   164   163   ar
    37   141   140    2
    38     6     7    1
    39   140   139    1
    40   166   167    1
    41   166   160   am
    42   159   160    1
    43   159   162    1
    44   143   145   am
    45   143   142    1
    46   167   170    1
    47    12    10    1
    48   176   177    2
    49   176   175    1
    50   160   161    2
    51     7    10    1
    52     7     8    1
    53   163   162    1
    54   163   165   ar
    55   170   172    1
    56   133   132    2
    57   137   135    1
    58   174   175    1
    59   139   142    1
    60   139   138    1
    61    10    11    1
    62     8     9    2
    63   175   178    1
    64   132   131    1
    65   135   134    1
    66   135   136    1
    67   131   134    1
    68   131   130    1
    69    11    13    1
    70   178   179    1
    71   128   127    2
    72   179   181   ar
    73   179   180   ar
    74   181   183   ar
    75   130   127   am
    76   127   126    1
    77   180   182   ar
    78   183   184   ar
    79    14    15    1
    80   182   184   ar
    81   126   129    1
    82   126   125    1
    83    26    27    1
    84   106   105    2
    85   120   119    2
    86    15    16    1
    87    15    18    1
    88    30    27    1
    89    30    31    1
    90    17    16    2
    91    27    28    1
    92   125   119   am
    93   119   118    1
    94    18    19    1
    95   115   113   ar
    96   115   116   ar
    97   113   110   ar
    98   105   104    1
    99    33    31   ar
   100    31    32   ar
   101   104   107    1
   102   104   103    1
   103    28    29    2
   104    99    98    2
   105   116   114   ar
   106   107   108    1
   107   118   117    1
   108   118   121    1
   109   110   108   ar
   110   110   112   ar
   111    19    20   ar
   112    19    21   ar
   113   102   100    1
   114   123   122   ar
   115   108   109   ar
   116    98   103   am
   117    98    97    1
   118    20    22   ar
   119   114   112   ar
   120   112   111   ar
   121   121   122    1
   122    21    23   ar
   123   122   124   ar
   124   101   100    1
   125   100    97    1
   126   109   111   ar
   127    97    96    1
   128    22    24   ar
   129    23    24   ar
   130    87    86    2
   131    24    25    1
   132    96    86   am
   133    34    35    1
   134    82    83    1
   135    82    81    1
   136    40    42   ar
   137    40    39   ar
   138    42    43   ar
   139    86    85    1
   140    37    36    2
   141    93    91   ar
   142    93    94   ar
   143    39    38    1
   144    39    41   ar
   145    43    41   ar
   146    91    89   ar
   147    35    38    1
   148    35    36    1
   149    80    81    1
   150    80    77    1
   151    36    44   am
   152    95    94    1
   153    85    88    1
   154    85    84    1
   155    94    92   ar
   156    64    63    1
   157    89    88    1
   158    89    90   ar
   159    84    78   am
   160    62    63    1
   161    62    61    1
   162    78    79    2
   163    78    77    1
   164    92    90   ar
   165    77    76    1
   166    44    45    1
   167    60    61    1
   168    60    57    1
   169    45    46    1
   170    58    57    1
   171    58    59    2
   172    46    47    2
   173    46    48   am
   174    57    56    1
   175    56    50   am
   176    48    49    1
   177    75    74   ar
   178    75    73   ar
   179    74    72   ar
   180    50    49    1
   181    50    51    2
   182    54    52    1
   183    49    52    1
   184    73    71   ar
   185    72    70   ar
   186    52    53    1
   187    71    70   ar
   188    70    69    1
   189    53    55    1
   190    68    67    2
   191    69    66    1
   192    67    66    1
   193    66    65    1
