@<TRIPOS>MOLECULE
tmp/5k0tC00.pdb
 190 188 0 0 0
SMALL
GASTEIGER

@<TRIPOS>ATOM
      1  N         -1.1110    8.4530   71.0170 N.3    11  ALA11      -0.1231
      2  CA        -1.9850    9.5070   70.5180 C.3    11  ALA11       0.1694
      3  C         -3.0680    8.8610   69.6670 C.2    11  ALA11       0.2591
      4  O         -2.8240    7.8520   68.9900 O.2    11  ALA11      -0.2718
      5  CB        -1.2070   10.5220   69.7000 C.3    11  ALA11       0.0304
      6  N         -4.2630    9.4340   69.7110 N.am   12  ILE12      -0.1980
      7  CA        -5.4070    8.8790   68.9890 C.3    12  ILE12       0.1595
      8  C         -5.3800    9.3350   67.5280 C.2    12  ILE12       0.2287
      9  O         -5.1170   10.5030   67.2370 O.2    12  ILE12      -0.2864
     10  CB        -6.7580    9.1800   69.6900 C.3    12  ILE12       0.0276
     11  CG1       -6.9870   10.6830   69.9030 C.3    12  ILE12       0.0022
     12  CG2       -6.8070    8.4530   71.0270 C.3    12  ILE12       0.0022
     13  CD1       -8.3540   11.0300   70.4540 C.3    12  ILE12       0.0001
     14  N         -6.5230   10.1530   63.5840 N.3    14  TYR14      -0.1241
     15  CA        -7.6120   10.8000   62.8620 C.3    14  TYR14       0.1605
     16  C         -8.0050    9.8820   61.7030 C.2    14  TYR14       0.2264
     17  O         -7.2320    9.7360   60.7560 O.2    14  TYR14      -0.2867
     18  CB        -7.1670   12.1860   62.3580 C.3    14  TYR14       0.0534
     19  CG        -8.3090   13.1280   62.0570 C.ar   14  TYR14      -0.0201
     20  CD1       -9.2670   13.4080   63.0230 C.ar   14  TYR14      -0.0009
     21  CD2       -8.4250   13.7570   60.8170 C.ar   14  TYR14      -0.0009
     22  CE1      -10.3240   14.2630   62.7710 C.ar   14  TYR14       0.0417
     23  CE2       -9.4840   14.6220   60.5530 C.ar   14  TYR14       0.0417
     24  CZ       -10.4320   14.8700   61.5360 C.ar   14  TYR14       0.1957
     25  OH       -11.4890   15.7220   61.3020 O.3    14  TYR14      -0.2866
     26  N         -9.7520    9.7920   67.0520 N.3    51  ASP51      -0.1239
     27  CA       -10.2980   11.1420   67.1890 C.3    51  ASP51       0.1674
     28  C        -11.2560   11.3370   66.0210 C.2    51  ASP51       0.2266
     29  O        -10.8160   11.5310   64.8990 O.2    51  ASP51      -0.2867
     30  CB        -9.1310   12.1480   67.1340 C.3    51  ASP51       0.1410
     31  CG        -9.5720   13.6090   67.0830 C.2    51  ASP51       0.3668
     32  OD1      -10.7510   13.9330   67.3590 O.co2  51  ASP51      -0.2456
     33  OD2       -8.6990   14.4490   66.7670 O.co2  51  ASP51      -0.2456
     34  N        -14.3240   13.4580   65.7140 N.3    53  HIS53      -0.1226
     35  CA       -15.0940   14.6960   65.4910 C.3    53  HIS53       0.1752
     36  C        -14.3600   15.6640   64.5650 C.2    53  HIS53       0.2597
     37  O        -13.2270   15.4040   64.1690 O.2    53  HIS53      -0.2718
     38  CB       -15.4120   15.3780   66.8270 C.3    53  HIS53       0.0759
     39  CG       -16.3170   14.5790   67.7090 C.ar   53  HIS53       0.0818
     40  ND1      -16.0700   14.3880   69.0490 N.ar   53  HIS53      -0.2268
     41  CD2      -17.4700   13.9210   67.4430 C.ar   53  HIS53       0.1154
     42  CE1      -17.0330   13.6530   69.5750 C.ar   53  HIS53       0.1986
     43  NE2      -17.8940   13.3530   68.6200 N.ar   53  HIS53      -0.2212
     44  N        -15.0250   16.7640   64.2090 N.am   54  GLY54      -0.1942
     45  CA       -14.4000   17.8770   63.4800 C.3    54  GLY54       0.2014
     46  C        -15.0270   18.1920   62.1350 C.2    54  GLY54       0.2639
     47  O        -15.8070   17.4080   61.6020 O.2    54  GLY54      -0.2714
     48  N        -14.6720   19.3550   61.5940 N.am   55  ILE55      -0.1963
     49  CA       -15.2210   19.8450   60.3190 C.3    55  ILE55       0.1727
     50  C        -14.7990   18.9850   59.1190 C.2    55  ILE55       0.2616
     51  O        -15.6010   18.7550   58.2140 O.2    55  ILE55      -0.2715
     52  CB       -14.8520   21.3440   60.0890 C.3    55  ILE55       0.0290
     53  CG1      -15.6500   21.9940   58.9780 C.3    55  ILE55       0.0022
     54  CG2      -13.3810   21.5400   59.7540 C.3    55  ILE55       0.0023
     55  CD1      -17.1300   22.1660   59.2040 C.3    55  ILE55       0.0001
     56  N        -13.5530   18.5100   59.1250 N.am   56  LYS56      -0.1977
     57  CA       -13.0150   17.6990   58.0240 C.3    56  LYS56       0.1596
     58  C        -13.7440   16.3550   57.8960 C.2    56  LYS56       0.2287
     59  O        -13.8980   15.8410   56.7880 O.2    56  LYS56      -0.2864
     60  CB       -11.5170   17.4270   58.2240 C.3    56  LYS56       0.0298
     61  CG       -10.6150   18.6610   58.3100 C.3    56  LYS56       0.0038
     62  CD        -9.5340   18.6930   57.2290 C.3    56  LYS56       0.0206
     63  CE        -8.4730   19.7710   57.4200 C.3    56  LYS56       0.1093
     64  NZ        -7.1960   19.1900   57.9130 N.3    56  LYS56      -0.1314
     65  N        -19.9350   23.8490   63.1660 N.3   196  PHE196     -0.1241
     66  CA       -20.3800   22.4760   62.9280 C.3   196  PHE196      0.1605
     67  C        -20.9360   21.8710   64.2180 C.2   196  PHE196      0.2264
     68  O        -20.4820   22.2180   65.3090 O.2   196  PHE196     -0.2867
     69  CB       -19.2210   21.6260   62.3840 C.3   196  PHE196      0.0534
     70  CG       -18.0010   21.6190   63.2630 C.ar  196  PHE196     -0.0203
     71  CD1      -17.0030   22.5760   63.1000 C.ar  196  PHE196     -0.0042
     72  CD2      -17.8490   20.6530   64.2540 C.ar  196  PHE196     -0.0042
     73  CE1      -15.8800   22.5750   63.9130 C.ar  196  PHE196     -0.0003
     74  CE2      -16.7300   20.6480   65.0700 C.ar  196  PHE196     -0.0003
     75  CZ       -15.7430   21.6090   64.9010 C.ar  196  PHE196     -0.0000
     76  N        -19.6160   17.2700   67.0690 N.3   199  GLY199     -0.1225
     77  CA       -18.6910   17.4860   68.1750 C.3   199  GLY199      0.1811
     78  C        -19.4070   17.2530   69.4890 C.2   199  GLY199      0.2280
     79  O        -20.5910   16.9020   69.5050 O.2   199  GLY199     -0.2866
     80  N        -17.2170   21.4940   71.3710 N.3   210  MET210     -0.1230
     81  CA       -15.8150   21.4950   71.7930 C.3   210  MET210      0.1702
     82  C        -14.8980   21.3030   70.5920 C.2   210  MET210      0.2592
     83  O        -15.1680   20.4670   69.7210 O.2   210  MET210     -0.2718
     84  CB       -15.5380   20.3970   72.8240 C.3   210  MET210      0.0401
     85  CG       -16.2590   20.5820   74.1460 C.3   210  MET210      0.0596
     86  SD       -15.7530   19.3760   75.3870 S.3   210  MET210     -0.1393
     87  CE       -17.1980   19.3920   76.4390 C.3   210  MET210      0.0692
     88  N        -13.8240   22.0880   70.5590 N.am  211  TYR211     -0.1962
     89  CA       -12.7910   21.9830   69.5340 C.3   211  TYR211      0.1771
     90  C        -11.8450   20.8390   69.9280 C.2   211  TYR211      0.2619
     91  O        -11.9540   20.2920   71.0290 O.2   211  TYR211     -0.2715
     92  CB       -12.0590   23.3310   69.4060 C.3   211  TYR211      0.0574
     93  CG       -11.1250   23.4500   68.2160 C.ar  211  TYR211     -0.0198
     94  CD1      -11.5830   23.2300   66.9190 C.ar  211  TYR211     -0.0009
     95  CD2       -9.7770   23.7770   68.3850 C.ar  211  TYR211     -0.0009
     96  CE1      -10.7300   23.3230   65.8270 C.ar  211  TYR211      0.0417
     97  CE2       -8.9160   23.8780   67.2980 C.ar  211  TYR211      0.0417
     98  CZ        -9.3970   23.6510   66.0210 C.ar  211  TYR211      0.1957
     99  OH        -8.5590   23.7500   64.9320 O.3   211  TYR211     -0.2866
    100  N        -10.9270   20.4810   69.0330 N.am  212  VAL212     -0.1963
    101  CA       -10.0130   19.3380   69.2040 C.3   212  VAL212      0.1727
    102  C         -9.2930   19.2180   70.5640 C.2   212  VAL212      0.2616
    103  O         -9.0950   18.1020   71.0460 O.2   212  VAL212     -0.2715
    104  CB        -8.9770   19.2850   68.0370 C.3   212  VAL212      0.0290
    105  CG1       -7.9640   20.4180   68.1300 C.3   212  VAL212      0.0023
    106  CG2       -8.2760   17.9350   67.9780 C.3   212  VAL212      0.0023
    107  N         -8.9310   20.3430   71.1810 N.am  213  TRP213     -0.1974
    108  CA        -8.0440   20.3330   72.3620 C.3   213  TRP213      0.1640
    109  C         -8.6280   19.5750   73.5600 C.2   213  TRP213      0.2290
    110  O         -8.0340   18.5970   74.0160 O.2   213  TRP213     -0.2864
    111  CB        -7.6390   21.7500   72.8040 C.3   213  TRP213      0.0576
    112  CG        -7.1760   22.6640   71.7010 C.ar  213  TRP213      0.0006
    113  CD1       -7.6510   23.9040   71.4370 C.ar  213  TRP213      0.0946
    114  CD2       -6.1720   22.4000   70.7120 C.ar  213  TRP213      0.0152
    115  NE1       -7.0070   24.4440   70.3500 N.ar  213  TRP213     -0.2442
    116  CE2       -6.0940   23.5390   69.8820 C.ar  213  TRP213      0.0810
    117  CE3       -5.3330   21.3130   70.4440 C.ar  213  TRP213      0.0012
    118  CZ2       -5.2070   23.6260   68.8010 C.ar  213  TRP213      0.0191
    119  CZ3       -4.4510   21.3960   69.3690 C.ar  213  TRP213      0.0001
    120  CH2       -4.3950   22.5480   68.5610 C.ar  213  TRP213      0.0015
    121  N        -11.4880   17.8590   73.5730 N.3   215  ASP215     -0.1225
    122  CA       -12.0230   16.5890   73.0710 C.3   215  ASP215      0.1805
    123  C        -10.9550   15.4910   73.0300 C.2   215  ASP215      0.2598
    124  O        -11.0630   14.5030   73.7470 O.2   215  ASP215     -0.2718
    125  CB       -12.6390   16.7870   71.6740 C.3   215  ASP215      0.1424
    126  CG       -13.3790   15.5530   71.1570 C.2   215  ASP215      0.3668
    127  OD1      -13.2960   14.4630   71.7580 O.co2 215  ASP215     -0.2456
    128  OD2      -14.0560   15.6830   70.1230 O.co2 215  ASP215     -0.2456
    129  N         -9.9250   15.6810   72.2100 N.am  216  ALA216     -0.1966
    130  CA        -8.9530   14.6200   71.9190 C.3   216  ALA216      0.1728
    131  C         -8.1160   14.2260   73.1280 C.2   216  ALA216      0.2616
    132  O         -7.9680   13.0440   73.4160 O.2   216  ALA216     -0.2715
    133  CB        -8.0450   15.0310   70.7680 C.3   216  ALA216      0.0334
    134  N         -7.5830   15.2200   73.8350 N.am  217  LEU217     -0.1977
    135  CA        -6.7020   14.9710   74.9820 C.3   217  LEU217      0.1596
    136  C         -7.3920   14.2890   76.1740 C.2   217  LEU217      0.2287
    137  O         -6.7440   13.5520   76.9150 O.2   217  LEU217     -0.2864
    138  CB        -6.0250   16.2710   75.4350 C.3   217  LEU217      0.0297
    139  CG        -4.9700   16.8230   74.4680 C.3   217  LEU217      0.0022
    140  CD1       -4.7180   18.3050   74.7060 C.3   217  LEU217      0.0001
    141  CD2       -3.6700   16.0400   74.5770 C.3   217  LEU217      0.0001
    142  N         -9.4320   11.8770   76.1040 N.3   219  ASN219     -0.1225
    143  CA        -9.4850   10.4210   75.8810 C.3   219  ASN219      0.1785
    144  C         -8.6820    9.6170   76.9200 C.2   219  ASN219      0.2597
    145  O         -9.0990    8.5280   77.3170 O.2   219  ASN219     -0.2718
    146  CB        -9.0210   10.0530   74.4520 C.3   219  ASN219      0.1169
    147  CG        -7.5190    9.8340   74.3500 C.2   219  ASN219      0.2627
    148  OD1       -7.0490    8.6970   74.3810 O.2   219  ASN219     -0.2716
    149  ND2       -6.7610   10.9140   74.2520 N.am  219  ASN219     -0.0877
    150  N         -7.5430   10.1630   77.3500 N.am  220  TYR220     -0.1976
    151  CA        -6.6450    9.4810   78.2930 C.3   220  TYR220      0.1639
    152  C         -7.2730    9.2270   79.6670 C.2   220  TYR220      0.2290
    153  O         -6.9140    8.2580   80.3310 O.2   220  TYR220     -0.2864
    154  CB        -5.3350   10.2690   78.4770 C.3   220  TYR220      0.0560
    155  CG        -4.5360   10.5170   77.2030 C.ar  220  TYR220     -0.0198
    156  CD1       -4.3160    9.4970   76.2710 C.ar  220  TYR220     -0.0009
    157  CD2       -3.9780   11.7690   76.9440 C.ar  220  TYR220     -0.0009
    158  CE1       -3.5830    9.7280   75.1150 C.ar  220  TYR220      0.0417
    159  CE2       -3.2400   12.0050   75.7950 C.ar  220  TYR220      0.0417
    160  CZ        -3.0460   10.9850   74.8820 C.ar  220  TYR220      0.1957
    161  OH        -2.3150   11.2210   73.7420 O.3   220  TYR220     -0.2866
    162  N          2.6090   17.0190   67.4880 N.3   248  ILE248     -0.1245
    163  CA         1.6000   17.3160   68.5210 C.3   248  ILE248      0.1561
    164  C          2.2200   17.4490   69.9150 C.2   248  ILE248      0.2260
    165  O          1.5280   17.3220   70.9240 O.2   248  ILE248     -0.2867
    166  CB         0.4500   16.2670   68.5230 C.3   248  ILE248      0.0252
    167  CG1        0.9430   14.8610   68.9240 C.3   248  ILE248      0.0019
    168  CG2       -0.2270   16.2330   67.1580 C.3   248  ILE248      0.0019
    169  CD1       -0.1470   13.8130   68.9600 C.3   248  ILE248      0.0001
    170  N          0.8170   20.2800   72.2570 N.3   251  PHE251     -0.1227
    171  CA        -0.5370   20.0660   72.7690 C.3   251  PHE251      0.1736
    172  C         -0.5440   19.1650   74.0110 C.2   251  PHE251      0.2595
    173  O         -1.3890   19.3300   74.9000 O.2   251  PHE251     -0.2718
    174  CB        -1.4580   19.4890   71.6860 C.3   251  PHE251      0.0547
    175  CG        -1.3350   20.1600   70.3320 C.ar  251  PHE251     -0.0202
    176  CD1       -1.1750   21.5440   70.2200 C.ar  251  PHE251     -0.0042
    177  CD2       -1.4030   19.4040   69.1580 C.ar  251  PHE251     -0.0042
    178  CE1       -1.0630   22.1530   68.9750 C.ar  251  PHE251     -0.0003
    179  CE2       -1.3020   20.0120   67.9100 C.ar  251  PHE251     -0.0003
    180  CZ        -1.1310   21.3880   67.8180 C.ar  251  PHE251     -0.0000
    181  N          0.3970   18.2240   74.0750 N.am  252  HIS252     -0.1975
    182  CA         0.5070   17.3080   75.2160 C.3   252  HIS252      0.1656
    183  C          1.3640   17.8360   76.3700 C.2   252  HIS252      0.2291
    184  O          1.2070   17.3710   77.4980 O.2   252  HIS252     -0.2864
    185  CB         1.0490   15.9530   74.7530 C.3   252  HIS252      0.0771
    186  CG         0.0530   15.1410   73.9890 C.ar  252  HIS252      0.0820
    187  ND1       -0.2760   15.4070   72.6760 N.ar  252  HIS252     -0.2267
    188  CD2       -0.6910   14.0710   74.3560 C.ar  252  HIS252      0.1154
    189  CE1       -1.1810   14.5350   72.2690 C.ar  252  HIS252      0.1986
    190  NE2       -1.4470   13.7110   73.2670 N.ar  252  HIS252     -0.2212
@<TRIPOS>BOND
     1    59    58    2
     2    62    63    1
     3    62    61    1
     4    63    64    1
     5    58    57    1
     6    57    60    1
     7    57    56    1
     8    51    50    2
     9    60    61    1
    10    53    55    1
    11    53    52    1
    12    50    56   am
    13    50    49    1
    14    54    52    1
    15    52    49    1
    16    49    48    1
    17    23    21   ar
    18    23    24   ar
    19    17    16    2
    20    21    19   ar
    21    25    24    1
    22    24    22   ar
    23    48    46   am
    24    47    46    2
    25    16    15    1
    26    19    18    1
    27    19    20   ar
    28    46    45    1
    29    18    15    1
    30    69    66    1
    31    69    70    1
    32    22    20   ar
    33    15    14    1
    34    66    65    1
    35    66    67    1
    36    71    70   ar
    37    71    73   ar
    38    70    72   ar
    39    45    44    1
    40    73    75   ar
    41    37    36    2
    42    44    36   am
    43    67    68    2
    44    72    74   ar
    45    36    35    1
    46    29    28    2
    47    75    74   ar
    48    99    98    1
    49    35    34    1
    50    35    38    1
    51    96    98   ar
    52    96    94   ar
    53    98    97   ar
    54    28    27    1
    55    33    31   ar
    56    38    39    1
    57    94    93   ar
    58    26    27    1
    59    76    77    1
    60    31    30    1
    61    31    32   ar
    62    30    27    1
    63   168   166    1
    64     9     8    2
    65    97    95   ar
    66    41    39   ar
    67    41    43   ar
    68   162   163    1
    69     8     7    1
    70    39    40   ar
    71   180   179   ar
    72   180   178   ar
    73   179   177   ar
    74   106   104    1
    75   104   105    1
    76   104   101    1
    77    77    78    1
    78    93    95   ar
    79    93    92    1
    80   163   166    1
    81   163   164    1
    82   166   167    1
    83   120   118   ar
    84   120   119   ar
    85    43    42   ar
    86   118   116   ar
    87   167   169    1
    88   178   176   ar
    89     7    10    1
    90     7     6    1
    91     4     3    2
    92   100   101    1
    93   100    90   am
    94    40    42   ar
    95   177   175   ar
    96   101   102    1
    97   119   117   ar
    98    92    89    1
    99    78    79    2
   100    89    90    1
   101    89    88    1
   102     3     6   am
   103     3     2    1
   104    10    11    1
   105    10    12    1
   106     5     2    1
   107    83    82    2
   108   116   115   ar
   109   116   114   ar
   110    11    13    1
   111   164   165    2
   112    90    91    2
   113   128   126   ar
   114   176   175   ar
   115   175   174    1
   116   115   113   ar
   117   117   114   ar
   118     2     1    1
   119    88    82   am
   120   102   103    2
   121   102   107   am
   122    82    81    1
   123   114   112   ar
   124   133   130    1
   125   126   125    1
   126   126   127   ar
   127   107   108    1
   128    80    81    1
   129   113   112   ar
   130   125   122    1
   131   174   171    1
   132   112   111    1
   133    81    84    1
   134   130   129    1
   135   130   131    1
   136   129   123   am
   137   170   171    1
   138   189   187   ar
   139   189   190   ar
   140   108   111    1
   141   108   109    1
   142   187   186   ar
   143   171   172    1
   144    84    85    1
   145   123   122    1
   146   123   124    2
   147   122   121    1
   148   131   132    2
   149   131   134   am
   150   190   188   ar
   151   109   110    2
   152   161   160    1
   153   134   135    1
   154   186   188   ar
   155   186   185    1
   156   172   181   am
   157   172   173    2
   158   181   182    1
   159    85    86    1
   160   149   147   am
   161   147   148    2
   162   147   146    1
   163   146   143    1
   164   139   141    1
   165   139   140    1
   166   139   138    1
   167   185   182    1
   168   160   158   ar
   169   160   159   ar
   170   135   138    1
   171   135   136    1
   172   158   156   ar
   173   182   183    1
   174    86    87    1
   175   159   157   ar
   176   143   142    1
   177   143   144    1
   178   136   137    2
   179   156   155   ar
   180   183   184    2
   181   144   145    2
   182   144   150   am
   183   157   155   ar
   184   155   154    1
   185   150   151    1
   186   151   154    1
   187   151   152    1
   188   152   153    2
