@<TRIPOS>MOLECULE
tmp/5k0xA00.pdb
 170 162 0 0 0
SMALL
GASTEIGER

@<TRIPOS>ATOM
      1  N          8.5700    2.3960   13.6130 N.3    18  LEU18      -0.1231
      2  CA         7.2330    2.9710   13.6710 C.3    18  LEU18       0.1693
      3  C          7.1900    4.3510   14.3250 C.2    18  LEU18       0.2593
      4  O          6.1720    5.0420   14.2050 O.2    18  LEU18      -0.2718
      5  CB         6.2930    2.0470   14.4540 C.3    18  LEU18       0.0284
      6  CG         6.2410    0.5930   14.0250 C.3    18  LEU18       0.0019
      7  CD1        5.2770   -0.1380   14.9400 C.3    18  LEU18       0.0001
      8  CD2        5.8120    0.4870   12.5350 C.3    18  LEU18       0.0001
      9  N          8.2380    4.7450   15.0330 N.am   19  GLY19      -0.1942
     10  CA         8.2180    5.9830   15.7960 C.3    19  GLY19       0.2014
     11  C          9.5120    6.0950   16.5730 C.2    19  GLY19       0.2638
     12  O         10.2350    5.1080   16.7580 O.2    19  GLY19      -0.2714
     13  N          9.7880    7.3210   17.0260 N.am   20  GLU20      -0.1977
     14  CA        10.9820    7.6330   17.8230 C.3    20  GLU20       0.1602
     15  C         10.6080    8.5190   19.0130 C.2    20  GLU20       0.2287
     16  O          9.4390    8.8720   19.1880 O.2    20  GLU20      -0.2864
     17  CB        12.0530    8.3300   16.9710 C.3    20  GLU20       0.0415
     18  CG        12.8030    7.3670   16.0370 C.3    20  GLU20       0.1163
     19  CD        13.7850    8.0620   15.1140 C.2    20  GLU20       0.3649
     20  OE1       13.6390    9.2890   14.9120 O.co2  20  GLU20      -0.2457
     21  OE2       14.6990    7.3800   14.5900 O.co2  20  GLU20      -0.2457
     22  N         11.4360    6.9840   23.0550 N.3    21  GLY21      -0.1225
     23  CA        12.5540    6.5760   22.2140 C.3    21  GLY21       0.1811
     24  C         12.1650    5.8900   20.9020 C.2    21  GLY21       0.2280
     25  O         11.1430    6.2650   20.3260 O.2    21  GLY21      -0.2866
     26  N         10.9190    2.8970   18.3320 N.3    23  VAL23      -0.1245
     27  CA         9.9510    1.7970   18.3150 C.3    23  VAL23       0.1561
     28  C          9.9140    1.1570   16.9260 C.2    23  VAL23       0.2260
     29  O          9.6600    1.8360   15.9270 O.2    23  VAL23      -0.2867
     30  CB         8.5360    2.2650   18.7130 C.3    23  VAL23       0.0252
     31  CG1        7.5110    1.1240   18.5620 C.3    23  VAL23       0.0019
     32  CG2        8.5380    2.7820   20.1310 C.3    23  VAL23       0.0019
     33  N          8.6170   -2.1620   14.3630 N.3    25  GLU25      -0.1245
     34  CA         7.8070   -3.3380   14.0980 C.3    25  GLU25       0.1567
     35  C          8.6390   -4.6230   14.2030 C.2    25  GLU25       0.2260
     36  O          9.8590   -4.6390   14.0230 O.2    25  GLU25      -0.2867
     37  CB         7.1700   -3.2380   12.7130 C.3    25  GLU25       0.0388
     38  CG         8.2020   -3.2430   11.5700 C.3    25  GLU25       0.1160
     39  CD         7.6710   -3.8450   10.2630 C.2    25  GLU25       0.3649
     40  OE1        6.4800   -4.2150   10.2440 O.co2  25  GLU25      -0.2457
     41  OE2        8.4400   -3.9290    9.2660 O.co2  25  GLU25      -0.2457
     42  N          5.3100   -4.9240   18.3060 N.3    39  ALA39      -0.1245
     43  CA         6.0210   -3.6500   18.3580 C.3    39  ALA39       0.1562
     44  C          7.1060   -3.7710   19.4220 C.2    39  ALA39       0.2260
     45  O          6.8920   -4.3920   20.4800 O.2    39  ALA39      -0.2867
     46  CB         5.0600   -2.5050   18.6710 C.3    39  ALA39       0.0290
     47  N         10.1230   -1.8830   21.5730 N.3    41  LYS41      -0.1245
     48  CA        10.5360   -0.5890   22.0980 C.3    41  LYS41       0.1561
     49  C         11.9530   -0.7170   22.6330 C.2    41  LYS41       0.2260
     50  O         12.2110   -1.4950   23.5660 O.2    41  LYS41      -0.2867
     51  CB         9.5660   -0.1120   23.1800 C.3    41  LYS41       0.0271
     52  CG         9.8040    1.3250   23.6330 C.3    41  LYS41       0.0035
     53  CD         8.6970    1.8300   24.5910 C.3    41  LYS41       0.0206
     54  CE         9.2740    2.3660   25.9100 C.3    41  LYS41       0.1093
     55  NZ        10.1340    3.5820   25.7210 N.3    41  LYS41      -0.1314
     56  N         -2.4870   -2.1520   27.6700 N.3    70  ILE70      -0.1245
     57  CA        -1.6730   -2.8830   26.7150 C.3    70  ILE70       0.1561
     58  C         -1.0020   -4.0550   27.4510 C.2    70  ILE70       0.2260
     59  O         -0.6850   -3.9690   28.6440 O.2    70  ILE70      -0.2867
     60  CB        -0.6480   -1.9410   26.0690 C.3    70  ILE70       0.0252
     61  CG1       -0.1130   -2.5660   24.8000 C.3    70  ILE70       0.0019
     62  CG2        0.5190   -1.6220   27.0560 C.3    70  ILE70       0.0019
     63  CD1        0.6110   -1.5780   23.9200 C.3    70  ILE70       0.0001
     64  N          5.7470   -5.6510   22.6340 N.3    85  LEU85      -0.1231
     65  CA         4.3580   -5.2690   22.7940 C.3    85  LEU85       0.1678
     66  C          3.5450   -5.7200   21.5900 C.2    85  LEU85       0.2434
     67  O          4.0900   -5.9340   20.5060 O.2    85  LEU85      -0.2733
     68  CB         4.2590   -3.7380   22.9340 C.3    85  LEU85       0.0284
     69  CG         5.1080   -3.1240   24.0770 C.3    85  LEU85       0.0019
     70  CD1        5.4580   -1.6300   23.8670 C.3    85  LEU85       0.0001
     71  CD2        4.3460   -3.3050   25.3970 C.3    85  LEU85       0.0001
     72  N          2.2380   -5.8090   21.7240 N.am   86  PRO86      -0.2718
     73  CA         1.4100   -6.0690   20.5540 C.3    86  PRO86       0.1535
     74  C          1.4730   -4.9190   19.5640 C.2    86  PRO86       0.2599
     75  O          1.7650   -3.7740   19.9130 O.2    86  PRO86      -0.2715
     76  CB        -0.0050   -6.2390   21.1350 C.3    86  PRO86       0.0310
     77  CG         0.1610   -6.2300   22.6790 C.3    86  PRO86       0.0237
     78  CD         1.4670   -5.5960   22.9660 C.3    86  PRO86       0.0939
     79  N          1.2190   -5.2600   18.3060 N.am   87  PHE87      -0.1960
     80  CA         1.1340   -4.3240   17.1910 C.3    87  PHE87       0.1771
     81  C         -0.3150   -3.9330   16.9590 C.2    87  PHE87       0.2619
     82  O         -1.1710   -4.8100   16.8430 O.2    87  PHE87      -0.2715
     83  CB         1.6900   -4.9590   15.9070 C.3    87  PHE87       0.0574
     84  CG         1.6380   -4.0500   14.6670 C.ar   87  PHE87      -0.0200
     85  CD1        2.7140   -3.2810   14.3290 C.ar   87  PHE87      -0.0042
     86  CD2        0.5180   -4.0260   13.8480 C.ar   87  PHE87      -0.0042
     87  CE1        2.7130   -2.5270   13.2060 C.ar   87  PHE87      -0.0003
     88  CE2        0.4930   -3.2990   12.7160 C.ar   87  PHE87      -0.0003
     89  CZ         1.6040   -2.5110   12.3920 C.ar   87  PHE87      -0.0000
     90  N         -0.5820   -2.6250   16.8480 N.am   88  MET88      -0.1963
     91  CA        -1.9450   -2.1470   16.6860 C.3    88  MET88       0.1736
     92  C         -1.9770   -1.2850   15.4460 C.2    88  MET88       0.2616
     93  O         -1.4380   -0.1670   15.4330 O.2    88  MET88      -0.2715
     94  CB        -2.4010   -1.4020   17.9110 C.3    88  MET88       0.0427
     95  CG        -2.5780   -2.4280   19.0510 C.3    88  MET88       0.0599
     96  SD        -2.0420   -1.6920   20.5320 S.3    88  MET88      -0.1393
     97  CE        -2.3850   -2.9610   21.7570 C.3    88  MET88       0.0692
     98  N         -2.5510   -1.8510   14.3960 N.am   89  LYS89      -0.1963
     99  CA        -2.4440   -1.2270   13.0970 C.3    89  LYS89       0.1728
    100  C         -3.1020    0.1420   13.0770 C.2    89  LYS89       0.2616
    101  O         -2.7010    0.9770   12.2570 O.2    89  LYS89      -0.2715
    102  CB        -3.0620   -2.1530   12.0410 C.3    89  LYS89       0.0311
    103  CG        -4.5100   -2.6010   12.3540 C.3    89  LYS89       0.0038
    104  CD        -5.0030   -3.4770   11.2030 C.3    89  LYS89       0.0206
    105  CE        -6.5370   -3.5430   11.0630 C.3    89  LYS89       0.1093
    106  NZ        -6.9830   -4.4370    9.8910 N.3    89  LYS89      -0.1314
    107  N         -4.0760    0.3960   13.9820 N.am   90  TYR90      -0.1960
    108  CA        -4.7740    1.6760   14.0410 C.3    90  TYR90       0.1771
    109  C         -4.0280    2.7600   14.8030 C.2    90  TYR90       0.2620
    110  O         -4.5020    3.9140   14.8130 O.2    90  TYR90      -0.2715
    111  CB        -6.1690    1.4730   14.6510 C.3    90  TYR90       0.0574
    112  CG        -7.0660    0.6600   13.7330 C.ar   90  TYR90      -0.0198
    113  CD1       -6.8900    0.6720   12.3370 C.ar   90  TYR90      -0.0009
    114  CD2       -8.0620   -0.1300   14.2520 C.ar   90  TYR90      -0.0009
    115  CE1       -7.6990   -0.0950   11.5150 C.ar   90  TYR90       0.0417
    116  CE2       -8.8700   -0.8910   13.4460 C.ar   90  TYR90       0.0417
    117  CZ        -8.6900   -0.8800   12.0810 C.ar   90  TYR90       0.1957
    118  OH        -9.5090   -1.6530   11.2860 O.3    90  TYR90      -0.2866
    119  N         -2.8930    2.4190   15.4390 N.am   91  GLY91      -0.1940
    120  CA        -1.9420    3.3850   16.0130 C.3    91  GLY91       0.2014
    121  C         -2.4800    4.0790   17.2590 C.2    91  GLY91       0.2638
    122  O         -3.4490    3.6450   17.9170 O.2    91  GLY91      -0.2714
    123  N         -1.8240    5.1910   17.5910 N.am   92  ASP92      -0.1971
    124  CA        -2.1010    5.9010   18.8210 C.3    92  ASP92       0.1709
    125  C         -3.3110    6.7980   18.6610 C.2    92  ASP92       0.2293
    126  O         -3.6510    7.2370   17.5650 O.2    92  ASP92      -0.2864
    127  CB        -0.9050    6.7320   19.2270 C.3    92  ASP92       0.1436
    128  CG        -0.7220    7.9300   18.3440 C.2    92  ASP92       0.3671
    129  OD1       -0.2340    7.7810   17.2220 O.co2  92  ASP92      -0.2456
    130  OD2       -1.0670    9.0250   18.7760 O.co2  92  ASP92      -0.2456
    131  N         -1.1790   10.5350   23.2050 N.3   141  ARG141     -0.1231
    132  CA        -0.1810    9.9150   22.3330 C.3   141  ARG141      0.1694
    133  C          0.2650    8.5490   22.8480 C.2   141  ARG141      0.2592
    134  O          0.8290    7.7760   22.0660 O.2   141  ARG141     -0.2718
    135  CB         1.0570   10.8110   22.1870 C.3   141  ARG141      0.0321
    136  CG         1.8740   10.8960   23.5050 C.3   141  ARG141      0.0489
    137  CD         3.0480   11.9160   23.4900 C.3   141  ARG141      0.2205
    138  NE         3.5380   12.1870   24.8520 N.pl3 141  ARG141     -0.0865
    139  CZ         3.0650   13.1510   25.6470 C.cat 141  ARG141      0.5346
    140  NH1        2.0910   13.9660   25.2140 N.pl3 141  ARG141      0.1354
    141  NH2        3.5710   13.3110   26.8710 N.pl3 141  ARG141      0.1354
    142  N          0.0490    8.2530   24.1430 N.am  142  ASN142     -0.1974
    143  CA         0.4450    6.9750   24.7150 C.3   142  ASN142      0.1688
    144  C         -0.7600    6.0700   24.9740 C.2   142  ASN142      0.2292
    145  O         -0.6300    5.0440   25.6400 O.2   142  ASN142     -0.2864
    146  CB         1.2800    7.1800   25.9820 C.3   142  ASN142      0.1181
    147  CG         2.6320    7.8420   25.7110 C.2   142  ASN142      0.2629
    148  OD1        3.2330    7.6500   24.6640 O.2   142  ASN142     -0.2716
    149  ND2        3.1130    8.6190   26.6650 N.am  142  ASN142     -0.0877
    150  N         -3.5370    3.6170   22.8870 N.3   144  MET144     -0.1245
    151  CA        -3.4440    2.9300   21.6010 C.3   144  MET144      0.1570
    152  C         -4.8130    2.4030   21.1840 C.2   144  MET144      0.2261
    153  O         -5.6240    2.0390   22.0290 O.2   144  MET144     -0.2867
    154  CB        -2.4350    1.7760   21.6520 C.3   144  MET144      0.0387
    155  CG        -1.1520    1.9590   22.4420 C.3   144  MET144      0.0595
    156  SD         0.0430    3.2530   22.1310 S.3   144  MET144     -0.1393
    157  CE        -0.2250    3.3130   20.4890 C.3   144  MET144      0.0692
    158  N         -0.9720    2.7360   27.4180 N.3   154  ALA154     -0.1231
    159  CA         0.3460    2.1800   27.1420 C.3   154  ALA154      0.1694
    160  C          1.4620    3.1010   27.6720 C.2   154  ALA154      0.2592
    161  O          1.2110    4.1840   28.2180 O.2   154  ALA154     -0.2718
    162  CB         0.4900    1.9120   25.6360 C.3   154  ALA154      0.0304
    163  N          2.7240    2.6560   27.5340 N.am  155  ASP155     -0.1974
    164  CA         3.9030    3.3960   28.0260 C.3   155  ASP155      0.1709
    165  C          3.9060    3.5610   29.5400 C.2   155  ASP155      0.2293
    166  O          4.4620    4.5150   30.0670 O.2   155  ASP155     -0.2864
    167  CB         4.0260    4.7860   27.3790 C.3   155  ASP155      0.1436
    168  CG         5.4780    5.1970   27.1590 C.2   155  ASP155      0.3671
    169  OD1        6.2470    4.3280   26.6810 O.co2 155  ASP155     -0.2456
    170  OD2        5.8550    6.3610   27.4640 O.co2 155  ASP155     -0.2456
@<TRIPOS>BOND
     1    41    39   ar
     2   106   105    1
     3    40    39   ar
     4    39    38    1
     5   105   104    1
     6   104   103    1
     7   118   117    1
     8   115   117   ar
     9   115   113   ar
    10    38    37    1
    11   102   103    1
    12   102    99    1
    13   117   116   ar
    14   101   100    2
    15   113   112   ar
    16    89    88   ar
    17    89    87   ar
    18     8     6    1
    19    37    34    1
    20    88    86   ar
    21   100    99    1
    22   100   107   am
    23    99    98    1
    24    87    85   ar
    25   116   114   ar
    26     1     2    1
    27     2     3    1
    28     2     5    1
    29   112   114   ar
    30   112   111    1
    31    86    84   ar
    32   107   108    1
    33    36    35    2
    34     6     5    1
    35     6     7    1
    36   108   111    1
    37   108   109    1
    38    34    35    1
    39    34    33    1
    40     4     3    2
    41     3     9   am
    42    85    84   ar
    43    98    92   am
    44    21    19   ar
    45    84    83    1
    46   109   110    2
    47   109   119   am
    48    20    19   ar
    49     9    10    1
    50    19    18    1
    51    93    92    2
    52   119   120    1
    53    92    91    1
    54    10    11    1
    55    83    80    1
    56    29    28    2
    57   120   121    1
    58    18    17    1
    59    11    12    2
    60    11    13   am
    61    91    90    1
    62    91    94    1
    63    82    81    2
    64    90    81   am
    65    28    27    1
    66    81    80    1
    67    17    14    1
    68    13    14    1
    69    80    79    1
    70   129   128   ar
    71   121   123   am
    72   121   122    2
    73   126   125    2
    74   123   124    1
    75    14    15    1
    76    94    95    1
    77    42    43    1
    78    79    74   am
    79    27    26    1
    80    27    30    1
    81   128   130   ar
    82   128   127    1
    83    43    46    1
    84    43    44    1
    85    31    30    1
    86   125   124    1
    87    30    32    1
    88   124   127    1
    89    15    16    2
    90    95    96    1
    91    44    45    2
    92    74    75    2
    93    74    73    1
    94    25    24    2
    95   157   156    1
    96    67    66    2
    97    96    97    1
    98    73    76    1
    99    73    72    1
   100    24    23    1
   101    76    77    1
   102   152   151    1
   103   152   153    2
   104    47    48    1
   105    66    72   am
   106    66    65    1
   107   151   154    1
   108   151   150    1
   109   154   155    1
   110    72    78    1
   111   134   133    2
   112    48    49    1
   113    48    51    1
   114   156   155    1
   115   135   132    1
   116   135   136    1
   117    23    22    1
   118   132   133    1
   119   132   131    1
   120    49    50    2
   121    64    65    1
   122    77    78    1
   123    65    68    1
   124   133   142   am
   125    68    69    1
   126    51    52    1
   127   137   136    1
   128   137   138    1
   129    52    53    1
   130    70    69    1
   131    63    61    1
   132    69    71    1
   133   142   143    1
   134    53    54    1
   135   148   147    2
   136   143   144    1
   137   143   146    1
   138    61    60    1
   139   138   139    2
   140   144   145    2
   141   140   139    1
   142   162   159    1
   143   139   141    1
   144   147   146    1
   145   147   149   am
   146    55    54    1
   147    60    57    1
   148    60    62    1
   149   169   168   ar
   150    57    58    1
   151    57    56    1
   152   159   158    1
   153   159   160    1
   154   168   167    1
   155   168   170   ar
   156   167   164    1
   157    58    59    2
   158   163   160   am
   159   163   164    1
   160   160   161    2
   161   164   165    1
   162   165   166    2
