@<TRIPOS>MOLECULE
tmp/5k13A00.pdb
 239 230 0 0 0
SMALL
GASTEIGER

@<TRIPOS>ATOM
      1  N         49.8650    1.6770    3.3030 N.3    19  PHE19      -0.1241
      2  CA        48.8450    1.1470    4.2100 C.3    19  PHE19       0.1605
      3  C         47.4470    1.2180    3.6280 C.2    19  PHE19       0.2264
      4  O         46.8520    2.2910    3.6380 O.2    19  PHE19      -0.2867
      5  CB        48.8870    1.9050    5.5480 C.3    19  PHE19       0.0534
      6  CG        47.8850    1.4070    6.5720 C.ar   19  PHE19      -0.0203
      7  CD1       48.1470    0.2720    7.3290 C.ar   19  PHE19      -0.0042
      8  CD2       46.7320    2.1400    6.8560 C.ar   19  PHE19      -0.0042
      9  CE1       47.2360   -0.1680    8.2950 C.ar   19  PHE19      -0.0003
     10  CE2       45.8250    1.7000    7.8280 C.ar   19  PHE19      -0.0003
     11  CZ        46.0900    0.5560    8.5430 C.ar   19  PHE19      -0.0000
     12  N         48.5250  -19.2910   12.0300 N.3    45  TRP45      -0.1241
     13  CA        49.8990  -18.8140   12.1600 C.3    45  TRP45       0.1605
     14  C         50.5760  -18.7170   10.7730 C.2    45  TRP45       0.2264
     15  O         51.2780  -17.7320   10.4980 O.2    45  TRP45      -0.2867
     16  CB        50.7120  -19.7290   13.1030 C.3    45  TRP45       0.0550
     17  CG        52.1790  -19.4700   13.0090 C.ar   45  TRP45       0.0003
     18  CD1       53.0880  -20.1780   12.2820 C.ar   45  TRP45       0.0946
     19  CD2       52.8750  -18.3350   13.5330 C.ar   45  TRP45       0.0152
     20  NE1       54.3180  -19.5690   12.3450 N.ar   45  TRP45      -0.2442
     21  CE2       54.2210  -18.4450   13.1220 C.ar   45  TRP45       0.0810
     22  CE3       52.5050  -17.2590   14.3540 C.ar   45  TRP45       0.0012
     23  CZ2       55.1890  -17.5020   13.4780 C.ar   45  TRP45       0.0191
     24  CZ3       53.4660  -16.3270   14.7110 C.ar   45  TRP45       0.0001
     25  CH2       54.7920  -16.4570   14.2800 C.ar   45  TRP45       0.0015
     26  N         49.0760  -15.6770    8.9330 N.3    48  PHE48      -0.1227
     27  CA        49.5210  -14.5250    9.7150 C.3    48  PHE48       0.1736
     28  C         50.9900  -14.2000    9.4620 C.2    48  PHE48       0.2596
     29  O         51.3040  -13.0460    9.1850 O.2    48  PHE48      -0.2718
     30  CB        49.2410  -14.7550   11.2110 C.3    48  PHE48       0.0547
     31  CG        49.7230  -13.6650   12.1500 C.ar   48  PHE48      -0.0202
     32  CD1       49.4080  -12.3310   11.9160 C.ar   48  PHE48      -0.0042
     33  CD2       50.4350  -13.9820   13.2940 C.ar   48  PHE48      -0.0042
     34  CE1       49.8280  -11.3330   12.7960 C.ar   48  PHE48      -0.0003
     35  CE2       50.8270  -12.9920   14.1870 C.ar   48  PHE48      -0.0003
     36  CZ        50.5410  -11.6710   13.9210 C.ar   48  PHE48      -0.0000
     37  N         51.8880  -15.2020    9.5280 N.am   49  SER49      -0.1952
     38  CA        53.3180  -14.9440    9.2920 C.3    49  SER49       0.1924
     39  C         53.6170  -14.5360    7.8380 C.2    49  SER49       0.2314
     40  O         54.4940  -13.6960    7.6140 O.2    49  SER49      -0.2863
     41  CB        54.1790  -16.1130    9.7630 C.3    49  SER49       0.2116
     42  OG        53.7480  -17.3360    9.1990 O.3    49  SER49      -0.2180
     43  N         51.4510  -12.7730    5.9470 N.3    51  LEU51      -0.1231
     44  CA        50.9730  -11.4020    5.8960 C.3    51  LEU51       0.1693
     45  C         52.0040  -10.4840    6.5520 C.2    51  LEU51       0.2592
     46  O         52.2330   -9.3930    6.0580 O.2    51  LEU51      -0.2718
     47  CB        49.6040  -11.2710    6.5710 C.3    51  LEU51       0.0284
     48  CG        48.4320  -11.7550    5.7180 C.3    51  LEU51       0.0019
     49  CD1       47.2430  -12.1100    6.5780 C.3    51  LEU51       0.0001
     50  CD2       48.0560  -10.7220    4.6650 C.3    51  LEU51       0.0001
     51  N         52.6360  -10.9460    7.6470 N.am   52  SER52      -0.1952
     52  CA        53.6580  -10.1740    8.3590 C.3    52  SER52       0.1924
     53  C         54.8470   -9.8280    7.4720 C.2    52  SER52       0.2314
     54  O         55.3080   -8.6870    7.4990 O.2    52  SER52      -0.2863
     55  CB        54.1380  -10.9280    9.5930 C.3    52  SER52       0.2116
     56  OG        54.8900  -10.0510   10.4130 O.3    52  SER52      -0.2180
     57  N         53.9050   -7.0050    5.2340 N.3    55  CYS55      -0.1221
     58  CA        53.7430   -5.7950    6.0270 C.3    55  CYS55       0.1808
     59  C         55.0900   -5.1990    6.4460 C.2    55  CYS55       0.2601
     60  O         55.2160   -3.9810    6.4780 O.2    55  CYS55      -0.2717
     61  CB        52.8750   -6.0830    7.2440 C.3    55  CYS55       0.0970
     62  SG        52.4280   -4.6110    8.1880 S.3    55  CYS55      -0.0800
     63  N         56.0830   -6.0560    6.7810 N.am   56  ILE56      -0.1979
     64  CA        57.4470   -5.6180    7.1260 C.3    56  ILE56       0.1595
     65  C         58.0480   -4.9220    5.8870 C.2    56  ILE56       0.2287
     66  O         58.6430   -3.8480    6.0040 O.2    56  ILE56      -0.2864
     67  CB        58.2990   -6.7980    7.6800 C.3    56  ILE56       0.0276
     68  CG1       57.7930   -7.1880    9.1070 C.3    56  ILE56       0.0022
     69  CG2       59.8020   -6.4440    7.7010 C.3    56  ILE56       0.0022
     70  CD1       58.1360   -8.5850    9.5720 C.3    56  ILE56       0.0001
     71  N         57.9530   -4.2590   15.5430 N.3    86  LEU86      -0.1245
     72  CA        56.7800   -4.7630   16.2620 C.3    86  LEU86       0.1561
     73  C         55.8100   -3.6510   16.6210 C.2    86  LEU86       0.2260
     74  O         54.6180   -3.8240   16.4150 O.2    86  LEU86      -0.2867
     75  CB        57.1320   -5.6070   17.5000 C.3    86  LEU86       0.0270
     76  CG        57.7110   -6.9900   17.2450 C.3    86  LEU86       0.0019
     77  CD1       57.9590   -7.7010   18.5470 C.3    86  LEU86       0.0001
     78  CD2       56.7650   -7.8410   16.4220 C.3    86  LEU86       0.0001
     79  N         53.9360   -2.6220   13.3910 N.3    89  LEU89      -0.1231
     80  CA        52.9990   -3.7090   13.0000 C.3    89  LEU89       0.1693
     81  C         51.7970   -3.7180   13.9650 C.2    89  LEU89       0.2591
     82  O         50.6590   -3.8990   13.5220 O.2    89  LEU89      -0.2718
     83  CB        53.6780   -5.0940   13.0650 C.3    89  LEU89       0.0284
     84  CG        54.7990   -5.4120   12.0590 C.3    89  LEU89       0.0019
     85  CD1       55.3220   -6.8180   12.2560 C.3    89  LEU89       0.0001
     86  CD2       54.3750   -5.1820   10.6530 C.3    89  LEU89       0.0001
     87  N         52.0440   -3.5020   15.2860 N.am   90  ILE90      -0.1980
     88  CA        50.9420   -3.4430   16.2830 C.3    90  ILE90       0.1595
     89  C         50.0070   -2.2790   15.9490 C.2    90  ILE90       0.2287
     90  O         48.7890   -2.4440   15.9070 O.2    90  ILE90      -0.2864
     91  CB        51.4150   -3.3920   17.7610 C.3    90  ILE90       0.0276
     92  CG1       52.1310   -4.6920   18.1600 C.3    90  ILE90       0.0022
     93  CG2       50.2570   -3.0410   18.7210 C.3    90  ILE90       0.0022
     94  CD1       53.0690   -4.5280   19.4620 C.3    90  ILE90       0.0001
     95  N         49.5780   -0.7640   13.0450 N.3    92  ARG92      -0.1231
     96  CA        48.9330   -1.0470   11.7690 C.3    92  ARG92       0.1694
     97  C         47.7340   -1.9980   11.8810 C.2    92  ARG92       0.2591
     98  O         46.6660   -1.6550   11.3830 O.2    92  ARG92      -0.2718
     99  CB        49.9500   -1.5300   10.7250 C.3    92  ARG92       0.0321
    100  CG        50.6400   -0.3180   10.0970 C.3    92  ARG92       0.0489
    101  CD        51.8370   -0.6190    9.2220 C.3    92  ARG92       0.2205
    102  NE        52.3060    0.6150    8.5830 N.pl3  92  ARG92      -0.0865
    103  CZ        52.3360    0.8060    7.2690 C.cat  92  ARG92       0.5346
    104  NH1       51.9470   -0.1600    6.4390 N.pl3  92  ARG92       0.1354
    105  NH2       52.7370    1.9700    6.7720 N.pl3  92  ARG92       0.1354
    106  N         47.8740   -3.1350   12.5650 N.am   93  ILE93      -0.1980
    107  CA        46.7450   -4.0630   12.7350 C.3    93  ILE93       0.1595
    108  C         45.6480   -3.4520   13.6550 C.2    93  ILE93       0.2287
    109  O         44.4560   -3.5810   13.3350 O.2    93  ILE93      -0.2864
    110  CB        47.2280   -5.4810   13.1630 C.3    93  ILE93       0.0276
    111  CG1       46.1390   -6.5920   12.9140 C.3    93  ILE93       0.0022
    112  CG2       47.7290   -5.5150   14.6140 C.3    93  ILE93       0.0022
    113  CD1       45.5080   -6.5820   11.5310 C.3    93  ILE93       0.0001
    114  N         42.9600   -1.2350   12.0820 N.3    96  ARG96      -0.1245
    115  CA        41.8710   -1.8740   11.3580 C.3    96  ARG96       0.1563
    116  C         40.9730   -2.6750   12.3160 C.2    96  ARG96       0.2260
    117  O         40.5160   -3.7500   11.9750 O.2    96  ARG96      -0.2867
    118  CB        42.4150   -2.7340   10.2190 C.3    96  ARG96       0.0307
    119  CG        43.2860   -1.9570    9.1990 C.3    96  ARG96       0.0489
    120  CD        43.1890   -2.6140    7.8440 C.3    96  ARG96       0.2205
    121  NE        44.3120   -2.2650    6.9850 N.pl3  96  ARG96      -0.0865
    122  CZ        45.4690   -2.9140    6.9640 C.cat  96  ARG96       0.5346
    123  NH1       45.6770   -3.9420    7.7770 N.pl3  96  ARG96       0.1354
    124  NH2       46.4480   -2.5140    6.1590 N.pl3  96  ARG96       0.1354
    125  N         43.5590   -7.6630    8.2630 N.3   106  PHE106     -0.1227
    126  CA        44.8880   -7.6380    7.6440 C.3   106  PHE106      0.1736
    127  C         44.8400   -6.9400    6.2840 C.2   106  PHE106      0.2596
    128  O         43.7460   -6.7070    5.7390 O.2   106  PHE106     -0.2718
    129  CB        45.4810   -9.0470    7.5910 C.3   106  PHE106      0.0547
    130  CG        45.7490   -9.5680    8.9910 C.ar  106  PHE106     -0.0202
    131  CD1       44.7410  -10.1810    9.7290 C.ar  106  PHE106     -0.0042
    132  CD2       46.9790   -9.3510    9.6070 C.ar  106  PHE106     -0.0042
    133  CE1       44.9690  -10.5850   11.0540 C.ar  106  PHE106     -0.0003
    134  CE2       47.2160   -9.7820   10.9200 C.ar  106  PHE106     -0.0003
    135  CZ        46.2150  -10.4160   11.6240 C.ar  106  PHE106     -0.0000
    136  N         46.0150   -6.5910    5.7440 N.am  107  SER107     -0.1952
    137  CA        46.1520   -5.8550    4.4810 C.3   107  SER107      0.1924
    138  C         45.5780   -6.5720    3.2440 C.2   107  SER107      0.2314
    139  O         45.4710   -5.9430    2.1930 O.2   107  SER107     -0.2863
    140  CB        47.6050   -5.4520    4.2430 C.3   107  SER107      0.2116
    141  OG        48.0940   -4.6290    5.2910 O.3   107  SER107     -0.2180
    142  N         48.6790  -16.7360   17.2770 N.3   121  GLY121     -0.1210
    143  CA        49.9890  -16.5360   17.8850 C.3   121  GLY121      0.1956
    144  C         50.0770  -15.5030   18.9880 C.2   121  GLY121      0.2611
    145  O         51.0340  -15.5380   19.7680 O.2   121  GLY121     -0.2717
    146  N         49.1080  -14.5830   19.0750 N.am  122  PHE122     -0.1976
    147  CA        49.1180  -13.5590   20.1210 C.3   122  PHE122      0.1639
    148  C         49.0060  -14.1390   21.5300 C.2   122  PHE122      0.2290
    149  O         49.6210  -13.6110   22.4520 O.2   122  PHE122     -0.2864
    150  CB        48.0540  -12.4940   19.8740 C.3   122  PHE122      0.0560
    151  CG        48.4520  -11.5280   18.7730 C.ar  122  PHE122     -0.0200
    152  CD1       49.2460  -10.4210   19.0500 C.ar  122  PHE122     -0.0042
    153  CD2       48.0190  -11.7200   17.4670 C.ar  122  PHE122     -0.0042
    154  CE1       49.6100   -9.5170   18.0330 C.ar  122  PHE122     -0.0003
    155  CE2       48.3590  -10.8060   16.4570 C.ar  122  PHE122     -0.0003
    156  CZ        49.1630   -9.7170   16.7470 C.ar  122  PHE122     -0.0000
    157  N         49.1030  -12.1710   24.9580 N.3   125  LEU125     -0.1245
    158  CA        49.1830  -10.7580   24.5950 C.3   125  LEU125      0.1561
    159  C         47.9240  -10.2260   23.9480 C.2   125  LEU125      0.2260
    160  O         47.8450   -9.0240   23.7390 O.2   125  LEU125     -0.2867
    161  CB        50.3310  -10.5520   23.6120 C.3   125  LEU125      0.0270
    162  CG        51.5580   -9.8700   24.1550 C.3   125  LEU125      0.0019
    163  CD1       52.3740  -10.8230   25.0140 C.3   125  LEU125      0.0001
    164  CD2       52.3930   -9.3620   23.0240 C.3   125  LEU125      0.0001
    165  N         46.8000   -6.1290   23.2450 N.3   129  VAL129     -0.1245
    166  CA        46.7330   -5.6090   21.8530 C.3   129  VAL129      0.1561
    167  C         45.3060   -5.0690   21.5590 C.2   129  VAL129      0.2260
    168  O         45.1670   -3.9500   21.0540 O.2   129  VAL129     -0.2867
    169  CB        47.2190   -6.6830   20.8420 C.3   129  VAL129      0.0252
    170  CG1       46.8550   -6.3190   19.4040 C.3   129  VAL129      0.0019
    171  CG2       48.7340   -6.8990   20.9670 C.3   129  VAL129      0.0019
    172  N         55.7380   -8.4090   23.2310 N.3   211  GLY211     -0.1225
    173  CA        55.6810   -9.0630   21.9290 C.3   211  GLY211      0.1811
    174  C         56.9800   -9.7490   21.5820 C.2   211  GLY211      0.2280
    175  O         56.9700  -10.8790   21.0950 O.2   211  GLY211     -0.2866
    176  N         57.2720  -12.8570   23.3740 N.3   214  ARG214     -0.1231
    177  CA        56.4280  -13.8880   22.7610 C.3   214  ARG214      0.1694
    178  C         57.0670  -14.4750   21.4840 C.2   214  ARG214      0.2591
    179  O         56.9170  -15.6640   21.2300 O.2   214  ARG214     -0.2718
    180  CB        55.0100  -13.3590   22.5180 C.3   214  ARG214      0.0321
    181  CG        54.0840  -14.3890   21.8860 C.3   214  ARG214      0.0489
    182  CD        53.0870  -14.9520   22.8670 C.3   214  ARG214      0.2205
    183  NE        52.2290  -15.9280   22.2010 N.pl3 214  ARG214     -0.0865
    184  CZ        52.1210  -17.2010   22.5520 C.cat 214  ARG214      0.5346
    185  NH1       52.7890  -17.6670   23.6000 N.pl3 214  ARG214      0.1354
    186  NH2       51.3230  -18.0130   21.8770 N.pl3 214  ARG214      0.1354
    187  N         57.7400  -13.6350   20.6590 N.am  215  VAL215     -0.1980
    188  CA        58.4430  -14.0670   19.4430 C.3   215  VAL215      0.1595
    189  C         59.4520  -15.1730   19.8470 C.2   215  VAL215      0.2287
    190  O         59.5340  -16.2230   19.1980 O.2   215  VAL215     -0.2864
    191  CB        59.1870  -12.8670   18.7660 C.3   215  VAL215      0.0276
    192  CG1       60.2040  -13.3480   17.7330 C.3   215  VAL215      0.0022
    193  CG2       58.2170  -11.8670   18.1430 C.3   215  VAL215      0.0022
    194  N         57.6670  -18.3560   20.8700 N.3   218  LEU218     -0.1245
    195  CA        57.2180  -19.0590   19.6630 C.3   218  LEU218      0.1561
    196  C         58.3670  -19.7220   18.9080 C.2   218  LEU218      0.2260
    197  O         58.2040  -20.8460   18.4420 O.2   218  LEU218     -0.2867
    198  CB        56.3760  -18.1500   18.7440 C.3   218  LEU218      0.0270
    199  CG        54.9720  -17.8360   19.2570 C.3   218  LEU218      0.0019
    200  CD1       54.3910  -16.6290   18.5530 C.3   218  LEU218      0.0001
    201  CD2       54.0390  -19.0490   19.0980 C.3   218  LEU218      0.0001
    202  N         58.4530  -21.0780   11.9880 N.3   226  MET226     -0.1231
    203  CA        58.8670  -19.6810   12.0980 C.3   226  MET226      0.1687
    204  C         59.3880  -19.1320   10.7720 C.2   226  MET226      0.2434
    205  O         60.3310  -19.6920   10.2050 O.2   226  MET226     -0.2733
    206  CB        59.9500  -19.4930   13.1850 C.3   226  MET226      0.0400
    207  CG        59.4660  -19.7110   14.6060 C.3   226  MET226      0.0596
    208  SD        58.2550  -18.5150   15.2250 S.3   226  MET226     -0.1393
    209  CE        59.3150  -17.1530   15.6030 C.3   226  MET226      0.0692
    210  N         58.8520  -17.9910   10.2910 N.am  227  PRO227     -0.2718
    211  CA        59.4210  -17.3770    9.0810 C.3   227  PRO227      0.1520
    212  C         60.7590  -16.7190    9.4740 C.2   227  PRO227      0.2440
    213  O         61.0750  -16.7650   10.6710 O.2   227  PRO227     -0.2731
    214  CB        58.3660  -16.3290    8.7200 C.3   227  PRO227      0.0310
    215  CG        57.8170  -15.9110   10.0270 C.3   227  PRO227      0.0237
    216  CD        57.7640  -17.1610   10.8520 C.3   227  PRO227      0.0939
    217  N         61.5660  -16.0930    8.5750 N.am  228  PRO228     -0.2716
    218  CA        62.7930  -15.4320    9.0660 C.3   228  PRO228      0.1536
    219  C         62.4110  -14.3100   10.0400 C.2   228  PRO228      0.2598
    220  O         61.4330  -13.5940    9.7880 O.2   228  PRO228     -0.2715
    221  CB        63.4480  -14.8890    7.7910 C.3   228  PRO228      0.0310
    222  CG        62.3270  -14.7640    6.8070 C.3   228  PRO228      0.0237
    223  CD        61.3990  -15.9020    7.1180 C.3   228  PRO228      0.0939
    224  N         63.1250  -14.1980   11.1750 N.am  229  LEU229     -0.1964
    225  CA        62.8360  -13.1660   12.1760 C.3   229  LEU229      0.1728
    226  C         63.0190  -11.7520   11.5890 C.2   229  LEU229      0.2616
    227  O         63.6080  -11.6020   10.5120 O.2   229  LEU229     -0.2715
    228  CB        63.7000  -13.3430   13.4440 C.3   229  LEU229      0.0311
    229  CG        63.5700  -14.6520   14.2500 C.3   229  LEU229      0.0022
    230  CD1       64.6150  -14.7150   15.3470 C.3   229  LEU229      0.0001
    231  CD2       62.1900  -14.8030   14.8770 C.3   229  LEU229      0.0001
    232  N         62.4780  -10.7310   12.2820 N.am  230  ILE230     -0.1977
    233  CA        62.5610   -9.3200   11.8950 C.3   230  ILE230      0.1596
    234  C         64.0300   -8.9100   11.6760 C.2   230  ILE230      0.2287
    235  O         64.3680   -8.3990   10.6020 O.2   230  ILE230     -0.2864
    236  CB        61.8120   -8.4490   12.9400 C.3   230  ILE230      0.0276
    237  CG1       60.2830   -8.5910   12.7560 C.3   230  ILE230      0.0022
    238  CG2       62.2590   -6.9800   12.9020 C.3   230  ILE230      0.0022
    239  CD1       59.4750   -8.4020   13.9960 C.3   230  ILE230      0.0001
@<TRIPOS>BOND
     1   139   138    2
     2   138   137    1
     3     1     2    1
     4     3     4    2
     5     3     2    1
     6     2     5    1
     7   140   137    1
     8   140   141    1
     9   137   136    1
    10    50    48    1
    11    57    58    1
    12     5     6    1
    13    48    47    1
    14    48    49    1
    15   128   127    2
    16   136   127   am
    17    65    66    2
    18    65    64    1
    19    44    43    1
    20    44    45    1
    21    44    47    1
    22    58    59    1
    23    58    61    1
    24    46    45    2
    25   124   122    1
    26   127   126    1
    27   104   103    1
    28    59    60    2
    29    59    63   am
    30    45    51   am
    31     6     8   ar
    32     6     7   ar
    33   105   103    1
    34    63    64    1
    35   222   223    1
    36   222   221    1
    37     8    10   ar
    38   122   121    2
    39   122   123    1
    40   121   120    1
    41   223   217    1
    42    64    67    1
    43    61    62    1
    44   103   102    2
    45     7     9   ar
    46    53    54    2
    47    53    52    1
    48   129   126    1
    49   129   130    1
    50    40    39    2
    51   126   125    1
    52    51    52    1
    53    67    69    1
    54    67    68    1
    55   221   218    1
    56    10    11   ar
    57    39    38    1
    58   120   119    1
    59     9    11   ar
    60    52    55    1
    61   217   218    1
    62   217   212   am
    63   102   101    1
    64   214   211    1
    65   214   215    1
    66    26    27    1
    67   130   132   ar
    68   130   131   ar
    69   218   219    1
    70   211   212    1
    71   211   210    1
    72    68    70    1
    73    29    28    2
    74   119   118    1
    75    42    41    1
    76   101   100    1
    77    38    37    1
    78    38    41    1
    79    28    37   am
    80    28    27    1
    81   212   213    2
    82    55    56    1
    83   132   134   ar
    84    27    30    1
    85   131   133   ar
    86   220   219    2
    87   215   216    1
    88   219   224   am
    89   100    99    1
    90   205   204    2
    91   118   115    1
    92   210   204   am
    93   210   216    1
    94    15    14    2
    95   227   226    2
    96   235   234    2
    97    86    84    1
    98    99    96    1
    99   204   203    1
   100    14    13    1
   101   134   135   ar
   102   133   135   ar
   103   224   225    1
   104    30    31    1
   105   115   114    1
   106   115   116    1
   107    98    97    2
   108   113   111    1
   109   226   225    1
   110   226   232   am
   111   234   233    1
   112    96    97    1
   113    96    95    1
   114    97   106   am
   115   233   232    1
   116   233   236    1
   117    32    31   ar
   118    32    34   ar
   119   117   116    2
   120   202   203    1
   121    12    13    1
   122    84    85    1
   123    84    83    1
   124   203   206    1
   125    31    33   ar
   126    13    16    1
   127   225   228    1
   128    18    20   ar
   129    18    17   ar
   130    20    21   ar
   131   106   107    1
   132   107   110    1
   133   107   108    1
   134   237   236    1
   135   237   239    1
   136    34    36   ar
   137   238   236    1
   138   111   110    1
   139    80    83    1
   140    80    79    1
   141    80    81    1
   142    17    16    1
   143    17    19   ar
   144    21    23   ar
   145    21    19   ar
   146   110   112    1
   147   206   207    1
   148    33    35   ar
   149   109   108    2
   150   228   229    1
   151    23    25   ar
   152    82    81    2
   153    19    22   ar
   154    36    35   ar
   155    81    87   am
   156   229   231    1
   157   229   230    1
   158    25    24   ar
   159    22    24   ar
   160   207   208    1
   161   208   209    1
   162    87    88    1
   163    71    72    1
   164    90    89    2
   165    89    88    1
   166    72    73    1
   167    72    75    1
   168    88    91    1
   169    74    73    2
   170    78    76    1
   171   155   156   ar
   172   155   153   ar
   173   156   154   ar
   174    76    75    1
   175    76    77    1
   176   142   143    1
   177   153   151   ar
   178   192   191    1
   179    91    92    1
   180    91    93    1
   181   143   144    1
   182   154   152   ar
   183   193   191    1
   184    92    94    1
   185   197   196    2
   186   200   199    1
   187   198   199    1
   188   198   195    1
   189   191   188    1
   190   151   152   ar
   191   151   150    1
   192   196   195    1
   193   144   146   am
   194   144   145    2
   195   146   147    1
   196   201   199    1
   197   190   189    2
   198   170   169    1
   199   188   189    1
   200   188   187    1
   201   195   194    1
   202   150   147    1
   203   147   148    1
   204   187   178   am
   205   169   171    1
   206   169   166    1
   207   168   167    2
   208   175   174    2
   209   179   178    2
   210   178   177    1
   211   148   149    2
   212   167   166    1
   213   174   173    1
   214   166   165    1
   215   186   184    1
   216   181   180    1
   217   181   182    1
   218   173   172    1
   219   183   184    2
   220   183   182    1
   221   180   177    1
   222   184   185    1
   223   177   176    1
   224   164   162    1
   225   161   162    1
   226   161   158    1
   227   160   159    2
   228   159   158    1
   229   162   163    1
   230   158   157    1
