@<TRIPOS>MOLECULE
tmp/5k14A00.pdb
 152 151 0 0 0
SMALL
GASTEIGER

@<TRIPOS>ATOM
      1  N         11.4520   55.3540  -21.1340 N.3    92  PRO92      -0.2116
      2  CA        10.6750   55.3500  -19.8870 C.3    92  PRO92       0.1372
      3  C          9.1890   55.4070  -20.1600 C.2    92  PRO92       0.2244
      4  O          8.7690   55.8800  -21.2260 O.2    92  PRO92      -0.2868
      5  CB        11.1380   56.6160  -19.1500 C.3    92  PRO92       0.0268
      6  CG        12.2130   57.2190  -20.0140 C.3    92  PRO92       0.0207
      7  CD        12.6270   56.2290  -21.0480 C.3    92  PRO92       0.0892
      8  N          7.1430   57.7740  -13.9310 N.3    97  LEU97      -0.1231
      9  CA         7.7910   59.0080  -13.4940 C.3    97  LEU97       0.1693
     10  C          7.1870   59.4800  -12.1870 C.2    97  LEU97       0.2591
     11  O          5.9880   59.2910  -11.9370 O.2    97  LEU97      -0.2718
     12  CB         7.6770   60.1160  -14.5480 C.3    97  LEU97       0.0284
     13  CG         8.1050   59.7350  -15.9640 C.3    97  LEU97       0.0019
     14  CD1        7.9380   60.9270  -16.8700 C.3    97  LEU97       0.0001
     15  CD2        9.5470   59.1710  -16.0160 C.3    97  LEU97       0.0001
     16  N          8.0200   60.0980  -11.3580 N.am   98  LYS98      -0.1980
     17  CA         7.5500   60.7170  -10.1310 C.3    98  LYS98       0.1596
     18  C          7.1350   62.1590  -10.4010 C.2    98  LYS98       0.2287
     19  O          7.7300   62.8280  -11.2360 O.2    98  LYS98      -0.2864
     20  CB         8.6370   60.6270   -9.0650 C.3    98  LYS98       0.0298
     21  CG         8.8340   59.1770   -8.5690 C.3    98  LYS98       0.0038
     22  CD        10.2890   58.7500   -8.4090 C.3    98  LYS98       0.0206
     23  CE        11.0550   58.7850   -9.7570 C.3    98  LYS98       0.1093
     24  NZ        10.4250   58.0360  -10.9300 N.3    98  LYS98      -0.1314
     25  N          6.7850   66.1040  -10.3160 N.3   100  LYS100     -0.1245
     26  CA         7.7950   67.1570  -10.1330 C.3   100  LYS100      0.1561
     27  C          7.1760   68.5580  -10.1010 C.2   100  LYS100      0.2260
     28  O          6.1780   68.8300  -10.7910 O.2   100  LYS100     -0.2867
     29  CB         8.8580   67.1030  -11.2430 C.3   100  LYS100      0.0271
     30  CG        10.2120   66.5170  -10.8090 C.3   100  LYS100      0.0035
     31  CD        10.1830   65.0050  -10.7550 C.3   100  LYS100      0.0206
     32  CE        11.4620   64.4190  -10.1660 C.3   100  LYS100      0.1093
     33  NZ        11.4530   64.3510   -8.6750 N.3   100  LYS100     -0.1314
     34  N          9.6840   71.5580  -14.5640 N.3   103  VAL103     -0.1245
     35  CA        10.3200   70.7500  -15.5870 C.3   103  VAL103      0.1561
     36  C         10.7450   71.6280  -16.7620 C.2   103  VAL103      0.2260
     37  O          9.9760   72.4680  -17.2380 O.2   103  VAL103     -0.2867
     38  CB         9.3670   69.6270  -16.0750 C.3   103  VAL103      0.0252
     39  CG1       10.0600   68.7310  -17.0990 C.3   103  VAL103      0.0019
     40  CG2        8.9040   68.8260  -14.8950 C.3   103  VAL103      0.0019
     41  N         16.4350   65.6640  -11.4580 N.3   176  VAL176     -0.1231
     42  CA        16.2580   64.5970  -12.4060 C.3   176  VAL176      0.1692
     43  C         16.6040   65.1060  -13.7880 C.2   176  VAL176      0.2592
     44  O         16.1130   66.1580  -14.2230 O.2   176  VAL176     -0.2718
     45  CB        14.8200   64.0500  -12.3610 C.3   176  VAL176      0.0266
     46  CG1       14.3930   63.5950  -13.7230 C.3   176  VAL176      0.0020
     47  CG2       14.7250   62.9200  -11.3630 C.3   176  VAL176      0.0020
     48  N         17.4650   64.3600  -14.4680 N.am  177  ILE177     -0.1966
     49  CA        17.8880   64.7210  -15.8050 C.3   177  ILE177      0.1727
     50  C         17.6850   63.5230  -16.7070 C.2   177  ILE177      0.2616
     51  O         18.2450   62.4630  -16.4490 O.2   177  ILE177     -0.2715
     52  CB        19.3790   65.1630  -15.8250 C.3   177  ILE177      0.0290
     53  CG1       19.5590   66.4950  -15.0960 C.3   177  ILE177      0.0022
     54  CG2       19.8800   65.3160  -17.2460 C.3   177  ILE177      0.0023
     55  CD1       21.0170   66.9840  -15.0940 C.3   177  ILE177      0.0001
     56  N         16.8910   63.6750  -17.7620 N.am  178  TYR178     -0.1974
     57  CA        16.7250   62.5630  -18.6880 C.3   178  TYR178      0.1639
     58  C         17.2760   62.9070  -20.0610 C.2   178  TYR178      0.2290
     59  O         16.8600   63.8860  -20.6850 O.2   178  TYR178     -0.2864
     60  CB        15.2500   62.1220  -18.7960 C.3   178  TYR178      0.0560
     61  CG        15.0000   61.1080  -19.9140 C.ar  178  TYR178     -0.0198
     62  CD1       15.4990   59.7980  -19.8360 C.ar  178  TYR178     -0.0009
     63  CD2       14.2700   61.4660  -21.0480 C.ar  178  TYR178     -0.0009
     64  CE1       15.2790   58.8790  -20.8720 C.ar  178  TYR178      0.0417
     65  CE2       14.0430   60.5660  -22.0780 C.ar  178  TYR178      0.0417
     66  CZ        14.5450   59.2830  -21.9830 C.ar  178  TYR178      0.1957
     67  OH        14.3060   58.4230  -23.0160 O.3   178  TYR178     -0.2866
     68  N         15.8240   66.6870  -20.5320 N.3   185  TYR185     -0.1227
     69  CA        14.6490   67.0360  -19.7470 C.3   185  TYR185      0.1736
     70  C         15.1330   67.1140  -18.3090 C.2   185  TYR185      0.2595
     71  O         15.7860   66.1760  -17.8130 O.2   185  TYR185     -0.2718
     72  CB        13.5290   65.9920  -19.9090 C.3   185  TYR185      0.0548
     73  CG        12.8590   65.9560  -21.2710 C.ar  185  TYR185     -0.0200
     74  CD1       13.4290   65.2730  -22.3340 C.ar  185  TYR185     -0.0009
     75  CD2       11.6280   66.5710  -21.4820 C.ar  185  TYR185     -0.0009
     76  CE1       12.8070   65.2350  -23.5840 C.ar  185  TYR185      0.0417
     77  CE2       11.0040   66.5370  -22.7250 C.ar  185  TYR185      0.0417
     78  CZ        11.6030   65.8690  -23.7620 C.ar  185  TYR185      0.1957
     79  OH        10.9870   65.8330  -24.9910 O.3   185  TYR185     -0.2866
     80  N         14.8480   68.2300  -17.6480 N.am  186  VAL186     -0.1966
     81  CA        15.3300   68.4510  -16.2770 C.3   186  VAL186      0.1727
     82  C         14.1890   68.7770  -15.3260 C.2   186  VAL186      0.2616
     83  O         13.4190   69.7170  -15.5480 O.2   186  VAL186     -0.2715
     84  CB        16.3620   69.5850  -16.2070 C.3   186  VAL186      0.0290
     85  CG1       17.0870   69.5590  -14.8580 C.3   186  VAL186      0.0023
     86  CG2       17.3540   69.4530  -17.3550 C.3   186  VAL186      0.0023
     87  N         14.0840   67.9810  -14.2720 N.am  187  GLY187     -0.1955
     88  CA        12.9670   68.0810  -13.3680 C.3   187  GLY187      0.1869
     89  C         13.4620   68.2080  -11.9560 C.2   187  GLY187      0.2309
     90  O         14.5000   67.6380  -11.5800 O.2   187  GLY187     -0.2863
     91  N          5.0590   68.9800  -22.7970 N.3   220  PHE220     -0.1241
     92  CA         6.0480   68.4700  -23.7230 C.3   220  PHE220      0.1605
     93  C          5.5450   67.2740  -24.5090 C.2   220  PHE220      0.2264
     94  O          5.1960   66.2530  -23.9240 O.2   220  PHE220     -0.2867
     95  CB         7.3100   68.0680  -22.9750 C.3   220  PHE220      0.0534
     96  CG         7.8790   69.1520  -22.1280 C.ar  220  PHE220     -0.0203
     97  CD1        8.4670   70.2590  -22.7050 C.ar  220  PHE220     -0.0042
     98  CD2        7.8400   69.0550  -20.7510 C.ar  220  PHE220     -0.0042
     99  CE1        8.9960   71.2530  -21.9230 C.ar  220  PHE220     -0.0003
    100  CE2        8.3700   70.0480  -19.9610 C.ar  220  PHE220     -0.0003
    101  CZ         8.9480   71.1480  -20.5440 C.ar  220  PHE220     -0.0000
    102  N          6.4260   64.1400  -26.4770 N.3   222  TRP222     -0.1241
    103  CA         7.5700   63.2590  -26.5320 C.3   222  TRP222      0.1605
    104  C          7.0940   61.8400  -26.6560 C.2   222  TRP222      0.2264
    105  O          6.2490   61.4030  -25.8770 O.2   222  TRP222     -0.2867
    106  CB         8.4210   63.4430  -25.2790 C.3   222  TRP222      0.0550
    107  CG         9.4300   62.3810  -25.0280 C.ar  222  TRP222      0.0003
    108  CD1       10.7330   62.3560  -25.4580 C.ar  222  TRP222      0.0946
    109  CD2        9.2460   61.1990  -24.2480 C.ar  222  TRP222      0.0152
    110  NE1       11.3680   61.2150  -25.0040 N.ar  222  TRP222     -0.2442
    111  CE2       10.4760   60.4930  -24.2520 C.ar  222  TRP222      0.0810
    112  CE3        8.1610   60.6630  -23.5440 C.ar  222  TRP222      0.0012
    113  CZ2       10.6400   59.2810  -23.5920 C.ar  222  TRP222      0.0191
    114  CZ3        8.3310   59.4650  -22.8840 C.ar  222  TRP222      0.0001
    115  CH2        9.5630   58.7870  -22.9070 C.ar  222  TRP222      0.0015
    116  N          3.4540   65.3050  -21.7670 N.3   227  LEU227     -0.1231
    117  CA         3.9420   65.3050  -20.4060 C.3   227  LEU227      0.1693
    118  C          3.7340   66.6460  -19.7630 C.2   227  LEU227      0.2592
    119  O          4.2470   67.6540  -20.2530 O.2   227  LEU227     -0.2718
    120  CB         5.4250   64.9550  -20.3840 C.3   227  LEU227      0.0284
    121  CG         5.8380   63.4860  -20.2800 C.3   227  LEU227      0.0019
    122  CD1        4.7780   62.5620  -20.8560 C.3   227  LEU227      0.0001
    123  CD2        7.2150   63.2470  -20.9110 C.3   227  LEU227      0.0001
    124  N          2.9630   66.6600  -18.6790 N.am  228  HIS228     -0.1962
    125  CA         2.9160   67.8000  -17.7670 C.3   228  HIS228      0.1772
    126  C          3.7060   67.4190  -16.5300 C.2   228  HIS228      0.2462
    127  O          4.0940   66.2610  -16.3750 O.2   228  HIS228     -0.2730
    128  CB         1.4800   68.1720  -17.3910 C.3   228  HIS228      0.0785
    129  CG         0.5820   68.3930  -18.5660 C.ar  228  HIS228      0.0821
    130  ND1        0.0560   69.6300  -18.8780 N.ar  228  HIS228     -0.2267
    131  CD2        0.1140   67.5390  -19.5030 C.ar  228  HIS228      0.1154
    132  CE1       -0.6960   69.5250  -19.9570 C.ar  228  HIS228      0.1986
    133  NE2       -0.6830   68.2670  -20.3570 N.ar  228  HIS228     -0.2212
    134  N          3.9610   68.3850  -15.6400 N.am  229  PRO229     -0.2727
    135  CA         4.7390   68.0680  -14.4270 C.3   229  PRO229      0.1402
    136  C          3.9690   67.2620  -13.3650 C.2   229  PRO229      0.2269
    137  O          4.6140   66.6550  -12.4980 O.2   229  PRO229     -0.2865
    138  CB         5.1180   69.4500  -13.8800 C.3   229  PRO229      0.0296
    139  CG         5.0350   70.3590  -15.0780 C.3   229  PRO229      0.0237
    140  CD         3.8940   69.8290  -15.9000 C.3   229  PRO229      0.0939
    141  N          1.1520   60.3630  -11.7350 N.3   311  TYR311     -0.1241
    142  CA         2.5020   59.8700  -11.6280 C.3   311  TYR311      0.1605
    143  C          2.6660   58.9600  -10.4190 C.2   311  TYR311      0.2264
    144  O          1.7390   58.7720   -9.6280 O.2   311  TYR311     -0.2867
    145  CB         3.4870   61.0390  -11.5560 C.3   311  TYR311      0.0534
    146  CG         3.6490   61.7520  -12.8800 C.ar  311  TYR311     -0.0201
    147  CD1        4.0480   61.0510  -14.0120 C.ar  311  TYR311     -0.0009
    148  CD2        3.4380   63.1280  -12.9950 C.ar  311  TYR311     -0.0009
    149  CE1        4.2160   61.6820  -15.2220 C.ar  311  TYR311      0.0417
    150  CE2        3.6080   63.7660  -14.2010 C.ar  311  TYR311      0.0417
    151  CZ         3.9930   63.0340  -15.3130 C.ar  311  TYR311      0.1957
    152  OH         4.1480   63.6460  -16.5260 O.3   311  TYR311     -0.2866
@<TRIPOS>BOND
     1   104   103    1
     2   104   105    2
     3   103   102    1
     4   103   106    1
     5   108   107   ar
     6   108   110   ar
     7   106   107    1
     8   107   109   ar
     9   110   111   ar
    10    79    78    1
    11    93    94    2
    12    93    92    1
    13   111   109   ar
    14   111   113   ar
    15   109   112   ar
    16    78    76   ar
    17    78    77   ar
    18    92    95    1
    19    92    91    1
    20   113   115   ar
    21    76    74   ar
    22   112   114   ar
    23    67    66    1
    24    95    96    1
    25   115   114   ar
    26    77    75   ar
    27    97    96   ar
    28    97    99   ar
    29    74    73   ar
    30    96    98   ar
    31    65    66   ar
    32    65    63   ar
    33    66    64   ar
    34    99   101   ar
    35   116   117    1
    36    75    73   ar
    37    73    72    1
    38     4     3    2
    39     1     7    1
    40     1     2    1
    41     7     6    1
    42    63    61   ar
    43   123   121    1
    44    64    62   ar
    45   122   121    1
    46    98   100   ar
    47    59    58    2
    48   101   100   ar
    49    68    69    1
    50   117   120    1
    51   117   118    1
    52   120   121    1
    53   133   132   ar
    54   133   131   ar
    55   119   118    2
    56     3     2    1
    57    58    57    1
    58     6     5    1
    59   132   130   ar
    60    61    62   ar
    61    61    60    1
    62    72    69    1
    63     2     5    1
    64   118   124   am
    65    69    70    1
    66   131   129   ar
    67   130   129   ar
    68    60    57    1
    69    57    56    1
    70   124   125    1
    71   129   128    1
    72    70    71    2
    73    70    80   am
    74   125   128    1
    75   125   126    1
    76    56    50   am
    77    80    81    1
    78    86    84    1
    79    54    52    1
    80    37    36    2
    81    39    38    1
    82    14    13    1
    83    36    35    1
    84    50    51    2
    85    50    49    1
    86   126   127    2
    87   126   134   am
    88   152   151    1
    89    81    84    1
    90    81    82    1
    91    84    85    1
    92    38    35    1
    93    38    40    1
    94    15    13    1
    95    13    12    1
    96   140   134    1
    97   140   139    1
    98    52    49    1
    99    52    53    1
   100    49    48    1
   101   134   135    1
   102    35    34    1
   103    83    82    2
   104    82    87   am
   105   151   149   ar
   106   151   150   ar
   107   149   147   ar
   108    53    55    1
   109   139   138    1
   110    12     9    1
   111    48    43   am
   112   135   138    1
   113   135   136    1
   114    87    88    1
   115    44    43    2
   116   150   148   ar
   117   147   146   ar
   118     8     9    1
   119    43    42    1
   120    46    45    1
   121     9    10    1
   122    88    89    1
   123   136   137    2
   124   148   146   ar
   125   146   145    1
   126    42    45    1
   127    42    41    1
   128    45    47    1
   129    10    11    2
   130    10    16   am
   131    89    90    2
   132   141   142    1
   133   142   145    1
   134   142   143    1
   135    16    17    1
   136    29    30    1
   137    29    26    1
   138    19    18    2
   139    24    23    1
   140    30    31    1
   141    28    27    2
   142    31    32    1
   143   143   144    2
   144    18    17    1
   145    25    26    1
   146    32    33    1
   147    26    27    1
   148    17    20    1
   149    23    22    1
   150    20    21    1
   151    21    22    1
