@<TRIPOS>MOLECULE
tmp/5k18B00.pdb
 87 85 0 0 0
SMALL
GASTEIGER

@<TRIPOS>ATOM
      1  N        -62.2270   14.0930  -10.6600 N.3    22  LEU22      -0.1231
      2  CA       -62.8720   13.7560   -9.3990 C.3    22  LEU22       0.1693
      3  C        -62.1600   12.6130   -8.6930 C.2    22  LEU22       0.2592
      4  O        -62.6490   12.1150   -7.6730 O.2    22  LEU22      -0.2718
      5  CB       -64.3430   13.3950   -9.6240 C.3    22  LEU22       0.0284
      6  CG       -65.3110   14.5060  -10.0320 C.3    22  LEU22       0.0019
      7  CD1      -66.6660   13.9190  -10.3630 C.3    22  LEU22       0.0001
      8  CD2      -65.4530   15.5330   -8.9400 C.3    22  LEU22       0.0001
      9  N        -61.0230   12.1830   -9.2200 N.am   23  THR23      -0.1953
     10  CA       -60.2430   11.1020   -8.6390 C.3    23  THR23       0.1897
     11  C        -58.9730   11.6520   -7.9990 C.2    23  THR23       0.2313
     12  O        -58.1080   12.2120   -8.6910 O.2    23  THR23      -0.2863
     13  CB       -59.9030   10.0740   -9.7020 C.3    23  THR23       0.1794
     14  OG1      -61.1240    9.4770  -10.1550 O.3    23  THR23      -0.2208
     15  CG2      -58.9710    9.0360   -9.1180 C.3    23  THR23       0.0378
     16  N        -66.0530    3.6280    2.1130 N.3    74  ILE74      -0.1231
     17  CA       -65.5450    3.7150    0.7540 C.3    74  ILE74       0.1692
     18  C        -64.6960    4.9740    0.6620 C.2    74  ILE74       0.2593
     19  O        -65.2180    6.0910    0.7860 O.2    74  ILE74      -0.2718
     20  CB       -66.6830    3.7500   -0.2650 C.3    74  ILE74       0.0266
     21  CG1      -67.3910    2.3940   -0.3480 C.3    74  ILE74       0.0019
     22  CG2      -66.1470    4.1570   -1.5980 C.3    74  ILE74       0.0020
     23  CD1      -68.5630    2.3700   -1.3540 C.3    74  ILE74       0.0001
     24  N        -63.3840    4.8140    0.4390 N.am   75  THR75      -0.1939
     25  CA       -62.5540    5.9960    0.2690 C.3    75  THR75       0.2028
     26  C        -62.2660    6.3360   -1.1780 C.2    75  THR75       0.2642
     27  O        -61.7970    7.4450   -1.4390 O.2    75  THR75      -0.2714
     28  CB       -61.2230    5.8750    1.0160 C.3    75  THR75       0.1808
     29  OG1      -60.4200    4.8720    0.4140 O.3    75  THR75      -0.2208
     30  CG2      -61.4780    5.4940    2.4160 C.3    75  THR75       0.0379
     31  N        -62.5300    5.4360   -2.1220 N.am   76  ALA76      -0.1963
     32  CA       -62.3280    5.7680   -3.5310 C.3    76  ALA76       0.1728
     33  C        -62.9630    4.7120   -4.4150 C.2    76  ALA76       0.2616
     34  O        -62.7270    3.5120   -4.2400 O.2    76  ALA76      -0.2715
     35  CB       -60.8430    5.9040   -3.8750 C.3    76  ALA76       0.0334
     36  N        -63.8180    5.1580   -5.3230 N.am   77  VAL77      -0.1963
     37  CA       -64.2680    4.3720   -6.4630 C.3    77  VAL77       0.1727
     38  C        -64.1100    5.2560   -7.6800 C.2    77  VAL77       0.2616
     39  O        -64.4100    6.4540   -7.6210 O.2    77  VAL77      -0.2715
     40  CB       -65.7410    3.9240   -6.3600 C.3    77  VAL77       0.0290
     41  CG1      -65.9930    2.7900   -7.3290 C.3    77  VAL77       0.0023
     42  CG2      -66.1010    3.5230   -4.9740 C.3    77  VAL77       0.0023
     43  N        -63.6630    4.6770   -8.7840 N.am   78  THR78      -0.1951
     44  CA       -63.7310    5.4410  -10.0190 C.3    78  THR78       0.1897
     45  C        -63.6100    4.4680  -11.1790 C.2    78  THR78       0.2313
     46  O        -63.0050    3.4040  -11.0560 O.2    78  THR78      -0.2863
     47  CB       -62.6520    6.5440  -10.0650 C.3    78  THR78       0.1794
     48  OG1      -62.5710    7.1320  -11.3710 O.3    78  THR78      -0.2208
     49  CG2      -61.2940    5.9950   -9.6360 C.3    78  THR78       0.0378
     50  N        -69.5350    6.8900    3.0450 N.3   110  LEU110     -0.1231
     51  CA       -68.7340    7.5130    1.9880 C.3   110  LEU110      0.1693
     52  C        -68.9930    9.0170    1.9290 C.2   110  LEU110      0.2592
     53  O        -70.0860    9.4930    2.2550 O.2   110  LEU110     -0.2718
     54  CB       -69.0040    6.8960    0.6020 C.3   110  LEU110      0.0284
     55  CG       -70.3980    7.1460    0.0340 C.3   110  LEU110      0.0019
     56  CD1      -70.4400    8.3950   -0.8670 C.3   110  LEU110      0.0001
     57  CD2      -70.8930    5.9030   -0.6850 C.3   110  LEU110      0.0001
     58  N        -67.9830    9.7460    1.4560 N.am  111  PHE111     -0.1962
     59  CA       -68.0940   11.1630    1.1500 C.3   111  PHE111      0.1771
     60  C        -68.1980   11.3560   -0.3570 C.2   111  PHE111      0.2619
     61  O        -67.5100   10.6840   -1.1260 O.2   111  PHE111     -0.2715
     62  CB       -66.8810   11.9360    1.6590 C.3   111  PHE111      0.0574
     63  CG       -66.6580   11.8120    3.1180 C.ar  111  PHE111     -0.0200
     64  CD1      -67.5450   12.3970    4.0160 C.ar  111  PHE111     -0.0042
     65  CD2      -65.5660   11.1110    3.6040 C.ar  111  PHE111     -0.0042
     66  CE1      -67.3400   12.2890    5.3830 C.ar  111  PHE111     -0.0003
     67  CE2      -65.3540   10.9990    4.9670 C.ar  111  PHE111     -0.0003
     68  CZ       -66.2390   11.5820    5.8590 C.ar  111  PHE111     -0.0000
     69  N        -69.0310   12.3000   -0.7750 N.am  112  VAL112     -0.1977
     70  CA       -69.1510   12.6500   -2.1790 C.3   112  VAL112      0.1596
     71  C        -69.2190   14.1630   -2.3060 C.2   112  VAL112      0.2287
     72  O        -69.8990   14.8380   -1.5230 O.2   112  VAL112     -0.2864
     73  CB       -70.3860   12.0050   -2.8250 C.3   112  VAL112      0.0276
     74  CG1      -71.6250   12.3900   -2.0500 C.3   112  VAL112      0.0022
     75  CG2      -70.4920   12.4370   -4.2910 C.3   112  VAL112      0.0022
     76  N        -74.8880    6.4820   -5.9470 N.3   123  TYR123     -0.1241
     77  CA       -75.2260    5.9760   -4.6230 C.3   123  TYR123      0.1605
     78  C        -76.7250    6.0350   -4.3490 C.2   123  TYR123      0.2264
     79  O        -77.2440    5.2210   -3.5720 O.2   123  TYR123     -0.2867
     80  CB       -74.4240    6.7440   -3.5790 C.3   123  TYR123      0.0534
     81  CG       -72.9510    6.4790   -3.7340 C.ar  123  TYR123     -0.0201
     82  CD1      -72.4770    5.1870   -3.7680 C.ar  123  TYR123     -0.0009
     83  CD2      -72.0460    7.5160   -3.9040 C.ar  123  TYR123     -0.0009
     84  CE1      -71.1610    4.9250   -3.9220 C.ar  123  TYR123      0.0417
     85  CE2      -70.7010    7.2630   -4.0730 C.ar  123  TYR123      0.0417
     86  CZ       -70.2650    5.9530   -4.0780 C.ar  123  TYR123      0.1957
     87  OH       -68.9250    5.6240   -4.2400 O.3   123  TYR123     -0.2866
@<TRIPOS>BOND
     1    48    47    1
     2    45    46    2
     3    45    44    1
     4     1     2    1
     5     7     6    1
     6    14    13    1
     7    47    44    1
     8    47    49    1
     9     6     5    1
    10     6     8    1
    11    44    43    1
    12    13    15    1
    13    13    10    1
    14     5     2    1
    15     2     3    1
    16     9     3   am
    17     9    10    1
    18    43    38   am
    19     3     4    2
    20    12    11    2
    21    10    11    1
    22    38    39    2
    23    38    37    1
    24    41    40    1
    25    37    40    1
    26    37    36    1
    27    40    42    1
    28    76    77    1
    29    36    33   am
    30    77    78    1
    31    77    80    1
    32    33    34    2
    33    33    32    1
    34    78    79    2
    35    75    73    1
    36    87    86    1
    37    86    85   ar
    38    86    84   ar
    39    85    83   ar
    40    84    82   ar
    41    83    81   ar
    42    35    32    1
    43    82    81   ar
    44    81    80    1
    45    32    31    1
    46    73    70    1
    47    73    74    1
    48    71    70    1
    49    71    72    2
    50    70    69    1
    51    31    26   am
    52    22    20    1
    53    27    26    2
    54    23    21    1
    55    26    25    1
    56    61    60    2
    57    56    55    1
    58    69    60   am
    59    57    55    1
    60    60    59    1
    61    21    20    1
    62    20    17    1
    63    55    54    1
    64    25    24    1
    65    25    28    1
    66    29    28    1
    67    24    18   am
    68    54    51    1
    69    18    17    1
    70    18    19    2
    71    17    16    1
    72    28    30    1
    73    59    58    1
    74    59    62    1
    75    58    52   am
    76    62    63    1
    77    52    51    1
    78    52    53    2
    79    51    50    1
    80    63    65   ar
    81    63    64   ar
    82    65    67   ar
    83    64    66   ar
    84    67    68   ar
    85    66    68   ar
