@<TRIPOS>MOLECULE
tmp/5k18B01.pdb
 193 185 0 0 0
SMALL
GASTEIGER

@<TRIPOS>ATOM
      1  N        -58.5830   11.7060  -14.0390 N.3    20  ASP20      -0.1239
      2  CA       -59.9440   12.2080  -13.9890 C.3    20  ASP20       0.1674
      3  C        -60.0820   13.2300  -12.8560 C.2    20  ASP20       0.2266
      4  O        -59.5010   13.0450  -11.7750 O.2    20  ASP20      -0.2867
      5  CB       -60.8950   11.0230  -13.8120 C.3    20  ASP20       0.1410
      6  CG       -62.2870   11.4300  -13.4190 C.2    20  ASP20       0.3668
      7  OD1      -63.1120   11.6440  -14.3520 O.co2  20  ASP20      -0.2456
      8  OD2      -62.5590   11.4770  -12.1880 O.co2  20  ASP20      -0.2456
      9  N        -62.2270   14.0930  -10.6600 N.3    22  LEU22      -0.1231
     10  CA       -62.8720   13.7560   -9.3990 C.3    22  LEU22       0.1693
     11  C        -62.1600   12.6130   -8.6930 C.2    22  LEU22       0.2592
     12  O        -62.6490   12.1150   -7.6730 O.2    22  LEU22      -0.2718
     13  CB       -64.3430   13.3950   -9.6240 C.3    22  LEU22       0.0284
     14  CG       -65.3110   14.5060  -10.0320 C.3    22  LEU22       0.0019
     15  CD1      -66.6660   13.9190  -10.3630 C.3    22  LEU22       0.0001
     16  CD2      -65.4530   15.5330   -8.9400 C.3    22  LEU22       0.0001
     17  N        -61.0230   12.1830   -9.2200 N.am   23  THR23      -0.1953
     18  CA       -60.2430   11.1020   -8.6390 C.3    23  THR23       0.1897
     19  C        -58.9730   11.6520   -7.9990 C.2    23  THR23       0.2313
     20  O        -58.1080   12.2120   -8.6910 O.2    23  THR23      -0.2863
     21  CB       -59.9030   10.0740   -9.7020 C.3    23  THR23       0.1794
     22  OG1      -61.1240    9.4770  -10.1550 O.3    23  THR23      -0.2208
     23  CG2      -58.9710    9.0360   -9.1180 C.3    23  THR23       0.0378
     24  N        -66.0530    3.6280    2.1130 N.3    74  ILE74      -0.1245
     25  CA       -65.5450    3.7150    0.7540 C.3    74  ILE74       0.1561
     26  C        -64.6960    4.9740    0.6620 C.2    74  ILE74       0.2260
     27  O        -65.2180    6.0910    0.7860 O.2    74  ILE74      -0.2867
     28  CB       -66.6830    3.7500   -0.2650 C.3    74  ILE74       0.0252
     29  CG1      -67.3910    2.3940   -0.3480 C.3    74  ILE74       0.0019
     30  CG2      -66.1470    4.1570   -1.5980 C.3    74  ILE74       0.0019
     31  CD1      -68.5630    2.3700   -1.3540 C.3    74  ILE74       0.0001
     32  N        -62.5300    5.4360   -2.1220 N.3    76  ALA76      -0.1231
     33  CA       -62.3280    5.7680   -3.5310 C.3    76  ALA76       0.1694
     34  C        -62.9630    4.7120   -4.4150 C.2    76  ALA76       0.2592
     35  O        -62.7270    3.5120   -4.2400 O.2    76  ALA76      -0.2718
     36  CB       -60.8430    5.9040   -3.8750 C.3    76  ALA76       0.0304
     37  N        -63.8180    5.1580   -5.3230 N.am   77  VAL77      -0.1966
     38  CA       -64.2680    4.3720   -6.4630 C.3    77  VAL77       0.1727
     39  C        -64.1100    5.2560   -7.6800 C.2    77  VAL77       0.2617
     40  O        -64.4100    6.4540   -7.6210 O.2    77  VAL77      -0.2715
     41  CB       -65.7410    3.9240   -6.3600 C.3    77  VAL77       0.0290
     42  CG1      -65.9930    2.7900   -7.3290 C.3    77  VAL77       0.0023
     43  CG2      -66.1010    3.5230   -4.9740 C.3    77  VAL77       0.0023
     44  N        -63.6630    4.6770   -8.7840 N.am   78  THR78      -0.1937
     45  CA       -63.7310    5.4410  -10.0190 C.3    78  THR78       0.2028
     46  C        -63.6100    4.4680  -11.1790 C.2    78  THR78       0.2642
     47  O        -63.0050    3.4040  -11.0560 O.2    78  THR78      -0.2714
     48  CB       -62.6520    6.5440  -10.0650 C.3    78  THR78       0.1808
     49  OG1      -62.5710    7.1320  -11.3710 O.3    78  THR78      -0.2208
     50  CG2      -61.2940    5.9950   -9.6360 C.3    78  THR78       0.0379
     51  N        -64.2260    4.8350  -12.2920 N.am   79  VAL79      -0.1977
     52  CA       -64.2580    4.0120  -13.4880 C.3    79  VAL79       0.1596
     53  C        -63.6240    4.8140  -14.6080 C.2    79  VAL79       0.2287
     54  O        -63.9120    6.0110  -14.7660 O.2    79  VAL79      -0.2864
     55  CB       -65.7000    3.6130  -13.8620 C.3    79  VAL79       0.0276
     56  CG1      -65.7530    3.0570  -15.2650 C.3    79  VAL79       0.0022
     57  CG2      -66.2620    2.6260  -12.8540 C.3    79  VAL79       0.0022
     58  N        -67.6960    3.6510  -18.6240 N.3    84  ARG84      -0.1231
     59  CA       -68.7840    4.1570  -17.8130 C.3    84  ARG84       0.1694
     60  C        -70.1390    3.8080  -18.4150 C.2    84  ARG84       0.2592
     61  O        -70.2560    3.3830  -19.5680 O.2    84  ARG84      -0.2718
     62  CB       -68.6400    5.6560  -17.6360 C.3    84  ARG84       0.0321
     63  CG       -67.5180    5.9760  -16.6980 C.3    84  ARG84       0.0489
     64  CD       -67.1550    7.4140  -16.7180 C.3    84  ARG84       0.2205
     65  NE       -65.9780    7.6630  -15.8890 N.pl3  84  ARG84      -0.0865
     66  CZ       -65.5730    8.8790  -15.5680 C.cat  84  ARG84       0.5346
     67  NH1      -66.2670    9.9260  -15.9900 N.pl3  84  ARG84       0.1354
     68  NH2      -64.5080    9.0540  -14.8310 N.pl3  84  ARG84       0.1354
     69  N        -71.1690    3.9730  -17.5840 N.am   85  ARG85      -0.1966
     70  CA       -72.5650    3.7590  -17.9470 C.3    85  ARG85       0.1729
     71  C        -72.8630    2.3040  -18.3160 C.2    85  ARG85       0.2616
     72  O        -73.8680    2.0270  -18.9730 O.2    85  ARG85      -0.2715
     73  CB       -72.9920    4.7060  -19.0800 C.3    85  ARG85       0.0348
     74  CG       -72.7840    6.1930  -18.7780 C.3    85  ARG85       0.0492
     75  CD       -74.0110    7.0360  -19.0720 C.3    85  ARG85       0.2205
     76  NE       -75.1830    6.5650  -18.3420 N.pl3  85  ARG85      -0.0865
     77  CZ       -76.3570    7.1880  -18.3500 C.cat  85  ARG85       0.5346
     78  NH1      -76.5020    8.3090  -19.0450 N.pl3  85  ARG85       0.1354
     79  NH2      -77.3790    6.6910  -17.6640 N.pl3  85  ARG85       0.1354
     80  N        -72.0430    1.3460  -17.8800 N.am   86  ILE86      -0.1963
     81  CA       -72.3670   -0.0480  -18.1690 C.3    86  ILE86       0.1727
     82  C        -72.3670   -0.9140  -16.9150 C.2    86  ILE86       0.2617
     83  O        -72.0760   -2.1090  -16.9900 O.2    86  ILE86      -0.2715
     84  CB       -71.4050   -0.6400  -19.2090 C.3    86  ILE86       0.0290
     85  CG1      -69.9840   -0.1410  -18.9610 C.3    86  ILE86       0.0022
     86  CG2      -71.8430   -0.2700  -20.5910 C.3    86  ILE86       0.0023
     87  CD1      -68.9200   -1.0070  -19.6120 C.3    86  ILE86       0.0001
     88  N        -72.6980   -0.3380  -15.7600 N.am   87  GLY87      -0.1940
     89  CA       -72.8320   -1.1250  -14.5480 C.3    87  GLY87       0.2014
     90  C        -71.5650   -1.2790  -13.7320 C.2    87  GLY87       0.2639
     91  O        -71.6090   -1.8930  -12.6580 O.2    87  GLY87      -0.2714
     92  N        -70.4440   -0.7310  -14.1920 N.am   88  LEU88      -0.1963
     93  CA       -69.1580   -1.1150  -13.6250 C.3    88  LEU88       0.1728
     94  C        -68.9980   -0.6000  -12.1980 C.2    88  LEU88       0.2616
     95  O        -68.6390   -1.3610  -11.2960 O.2    88  LEU88      -0.2715
     96  CB       -68.0290   -0.6140  -14.5270 C.3    88  LEU88       0.0311
     97  CG       -66.5610   -0.8920  -14.2130 C.3    88  LEU88       0.0022
     98  CD1      -66.3980   -2.2510  -13.5810 C.3    88  LEU88       0.0001
     99  CD2      -65.7430   -0.8050  -15.4820 C.3    88  LEU88       0.0001
    100  N        -69.2500    0.6920  -11.9630 N.am   89  ALA89      -0.1963
    101  CA       -69.1350    1.1970  -10.5950 C.3    89  ALA89       0.1728
    102  C        -70.1550    0.5260   -9.6800 C.2    89  ALA89       0.2616
    103  O        -69.8650    0.2540   -8.5030 O.2    89  ALA89      -0.2715
    104  CB       -69.2950    2.7150  -10.5580 C.3    89  ALA89       0.0334
    105  N        -71.3510    0.2380  -10.2100 N.am   90  SER90      -0.1950
    106  CA       -72.3410   -0.4960   -9.4310 C.3    90  SER90       0.1924
    107  C        -71.8340   -1.8860   -9.0890 C.2    90  SER90       0.2314
    108  O        -71.9730   -2.3430   -7.9460 O.2    90  SER90      -0.2863
    109  CB       -73.6510   -0.5910  -10.2030 C.3    90  SER90       0.2116
    110  OG       -74.0060    0.6590  -10.7500 O.3    90  SER90      -0.2180
    111  N        -69.5350    6.8900    3.0450 N.3   110  LEU110     -0.1231
    112  CA       -68.7340    7.5130    1.9880 C.3   110  LEU110      0.1693
    113  C        -68.9930    9.0170    1.9290 C.2   110  LEU110      0.2592
    114  O        -70.0860    9.4930    2.2550 O.2   110  LEU110     -0.2718
    115  CB       -69.0040    6.8960    0.6020 C.3   110  LEU110      0.0284
    116  CG       -70.3980    7.1460    0.0340 C.3   110  LEU110      0.0019
    117  CD1      -70.4400    8.3950   -0.8670 C.3   110  LEU110      0.0001
    118  CD2      -70.8930    5.9030   -0.6850 C.3   110  LEU110      0.0001
    119  N        -67.9830    9.7460    1.4560 N.am  111  PHE111     -0.1962
    120  CA       -68.0940   11.1630    1.1500 C.3   111  PHE111      0.1771
    121  C        -68.1980   11.3560   -0.3570 C.2   111  PHE111      0.2619
    122  O        -67.5100   10.6840   -1.1260 O.2   111  PHE111     -0.2715
    123  CB       -66.8810   11.9360    1.6590 C.3   111  PHE111      0.0574
    124  CG       -66.6580   11.8120    3.1180 C.ar  111  PHE111     -0.0200
    125  CD1      -67.5450   12.3970    4.0160 C.ar  111  PHE111     -0.0042
    126  CD2      -65.5660   11.1110    3.6040 C.ar  111  PHE111     -0.0042
    127  CE1      -67.3400   12.2890    5.3830 C.ar  111  PHE111     -0.0003
    128  CE2      -65.3540   10.9990    4.9670 C.ar  111  PHE111     -0.0003
    129  CZ       -66.2390   11.5820    5.8590 C.ar  111  PHE111     -0.0000
    130  N        -69.0310   12.3000   -0.7750 N.am  112  VAL112     -0.1977
    131  CA       -69.1510   12.6500   -2.1790 C.3   112  VAL112      0.1596
    132  C        -69.2190   14.1630   -2.3060 C.2   112  VAL112      0.2287
    133  O        -69.8990   14.8380   -1.5230 O.2   112  VAL112     -0.2864
    134  CB       -70.3860   12.0050   -2.8250 C.3   112  VAL112      0.0276
    135  CG1      -71.6250   12.3900   -2.0500 C.3   112  VAL112      0.0022
    136  CG2      -70.4920   12.4370   -4.2910 C.3   112  VAL112      0.0022
    137  N        -70.6910   16.7850   -7.4280 N.3   116  ASN116     -0.1240
    138  CA       -70.4480   15.6110   -8.2650 C.3   116  ASN116      0.1653
    139  C        -71.7810   14.9380   -8.5640 C.2   116  ASN116      0.2266
    140  O        -72.2680   14.1080   -7.7900 O.2   116  ASN116     -0.2867
    141  CB       -69.4610   14.6470   -7.6150 C.3   116  ASN116      0.1155
    142  CG       -69.4320   13.3190   -8.3250 C.2   116  ASN116      0.2627
    143  OD1      -69.6730   13.2530   -9.5300 O.2   116  ASN116     -0.2716
    144  ND2      -69.0370   12.2710   -7.6180 N.am  116  ASN116     -0.0877
    145  N        -72.7340   12.7080  -10.9030 N.3   118  LEU118     -0.1231
    146  CA       -72.8150   11.2880  -11.2310 C.3   118  LEU118      0.1693
    147  C        -72.5750   10.4140  -10.0140 C.2   118  LEU118      0.2592
    148  O        -73.1740    9.3350   -9.8990 O.2   118  LEU118     -0.2718
    149  CB       -71.8300   10.9390  -12.3440 C.3   118  LEU118      0.0284
    150  CG       -72.1030   11.7320  -13.6160 C.3   118  LEU118      0.0019
    151  CD1      -71.2770   11.2440  -14.7960 C.3   118  LEU118      0.0001
    152  CD2      -73.5880   11.6620  -13.9200 C.3   118  LEU118      0.0001
    153  N        -71.7090   10.8540   -9.1000 N.am  119  GLY119     -0.1957
    154  CA       -71.4980   10.0870   -7.8830 C.3   119  GLY119      0.1869
    155  C        -72.7520    9.9990   -7.0340 C.2   119  GLY119      0.2309
    156  O        -73.0710    8.9430   -6.4740 O.2   119  GLY119     -0.2863
    157  N        -75.8650   10.2640   -8.1900 N.3   121  ILE121     -0.1231
    158  CA       -76.8020    9.3940   -8.8980 C.3   121  ILE121      0.1692
    159  C        -76.4610    7.9390   -8.6260 C.2   121  ILE121      0.2592
    160  O        -77.3460    7.0960   -8.4240 O.2   121  ILE121     -0.2718
    161  CB       -76.7790    9.6980  -10.4070 C.3   121  ILE121      0.0266
    162  CG1      -77.4750   11.0290  -10.6970 C.3   121  ILE121      0.0019
    163  CG2      -77.4020    8.5560  -11.1890 C.3   121  ILE121      0.0020
    164  CD1      -77.4860   11.3980  -12.1790 C.3   121  ILE121      0.0001
    165  N        -75.1630    7.6370   -8.6010 N.am  122  LEU122     -0.1966
    166  CA       -74.6760    6.2860   -8.3670 C.3   122  LEU122      0.1728
    167  C        -75.1490    5.7440   -7.0250 C.2   122  LEU122      0.2616
    168  O        -75.7350    4.6590   -6.9480 O.2   122  LEU122     -0.2715
    169  CB       -73.1540    6.2890   -8.4300 C.3   122  LEU122      0.0311
    170  CG       -72.5390    5.1200   -7.6830 C.3   122  LEU122      0.0022
    171  CD1      -72.6590    3.8440   -8.5370 C.3   122  LEU122      0.0001
    172  CD2      -71.0920    5.4440   -7.3510 C.3   122  LEU122      0.0001
    173  N        -74.8880    6.4820   -5.9470 N.am  123  TYR123     -0.1974
    174  CA       -75.2260    5.9760   -4.6230 C.3   123  TYR123      0.1639
    175  C        -76.7250    6.0350   -4.3490 C.2   123  TYR123      0.2290
    176  O        -77.2440    5.2210   -3.5720 O.2   123  TYR123     -0.2864
    177  CB       -74.4240    6.7440   -3.5790 C.3   123  TYR123      0.0560
    178  CG       -72.9510    6.4790   -3.7340 C.ar  123  TYR123     -0.0198
    179  CD1      -72.4770    5.1870   -3.7680 C.ar  123  TYR123     -0.0009
    180  CD2      -72.0460    7.5160   -3.9040 C.ar  123  TYR123     -0.0009
    181  CE1      -71.1610    4.9250   -3.9220 C.ar  123  TYR123      0.0417
    182  CE2      -70.7010    7.2630   -4.0730 C.ar  123  TYR123      0.0417
    183  CZ       -70.2650    5.9530   -4.0780 C.ar  123  TYR123      0.1957
    184  OH       -68.9250    5.6240   -4.2400 O.3   123  TYR123     -0.2866
    185  N        -79.1330    5.2550   -6.6130 N.3   125  LYS125     -0.1245
    186  CA       -79.6610    3.9880   -7.1080 C.3   125  LYS125      0.1561
    187  C        -79.2180    2.8110   -6.2380 C.2   125  LYS125      0.2260
    188  O        -79.9610    1.8370   -6.0820 O.2   125  LYS125     -0.2867
    189  CB       -79.2530    3.7610   -8.5680 C.3   125  LYS125      0.0271
    190  CG       -79.4450    2.3000   -9.0040 C.3   125  LYS125      0.0035
    191  CD       -79.4320    2.0750  -10.5050 C.3   125  LYS125      0.0206
    192  CE       -78.6360    0.7940  -10.8320 C.3   125  LYS125      0.1093
    193  NZ       -77.6640    0.9150  -11.9720 N.3   125  LYS125     -0.1314
@<TRIPOS>BOND
     1    86    84    1
     2    87    85    1
     3    61    60    2
     4    84    85    1
     5    84    81    1
     6    73    74    1
     7    73    70    1
     8    75    74    1
     9    75    76    1
    10    78    77    1
    11    72    71    2
    12    58    59    1
    13    60    59    1
    14    60    69   am
    15    77    76    2
    16    77    79    1
    17    71    70    1
    18    71    80   am
    19    81    80    1
    20    81    82    1
    21    70    69    1
    22    59    62    1
    23    62    63    1
    24    83    82    2
    25    82    88   am
    26    64    63    1
    27    64    65    1
    28    67    66    1
    29    65    66    2
    30    88    89    1
    31    66    68    1
    32    99    97    1
    33    56    55    1
    34   151   150    1
    35    54    53    2
    36    53    52    1
    37    89    90    1
    38    96    97    1
    39    96    93    1
    40     7     6   ar
    41    97    98    1
    42    92    90   am
    43    92    93    1
    44     1     2    1
    45     2     5    1
    46     2     3    1
    47   152   150    1
    48    55    52    1
    49    55    57    1
    50     5     6    1
    51    90    91    2
    52    93    94    1
    53   150   149    1
    54    52    51    1
    55     6     8   ar
    56     3     4    2
    57   149   146    1
    58    51    46   am
    59    94   100   am
    60    94    95    2
    61   164   162    1
    62   193   192    1
    63   100   101    1
    64    49    48    1
    65   146   145    1
    66   146   147    1
    67   163   161    1
    68    46    47    2
    69    46    45    1
    70   192   191    1
    71   110   109    1
    72   162   161    1
    73     9    10    1
    74   101   104    1
    75   101   102    1
    76   191   190    1
    77   161   158    1
    78    15    14    1
    79   105   102   am
    80   105   106    1
    81   109   106    1
    82    22    21    1
    83    48    45    1
    84    48    50    1
    85    14    13    1
    86    14    16    1
    87    45    44    1
    88   147   148    2
    89   147   153   am
    90    21    23    1
    91    21    18    1
    92   102   103    2
    93    13    10    1
    94   143   142    2
    95   106   107    1
    96    10    11    1
    97    17    11   am
    98    17    18    1
    99   153   154    1
   100   107   108    2
   101   190   189    1
   102   158   159    1
   103   158   157    1
   104    44    39   am
   105    11    12    2
   106    20    19    2
   107    18    19    1
   108   159   165   am
   109   159   160    2
   110   165   166    1
   111   189   186    1
   112   139   138    1
   113   139   140    2
   114   171   170    1
   115   169   166    1
   116   169   170    1
   117   166   167    1
   118   142   144   am
   119   142   141    1
   120   138   141    1
   121   138   137    1
   122   154   155    1
   123   170   172    1
   124    39    40    2
   125    39    38    1
   126    42    41    1
   127   186   185    1
   128   186   187    1
   129   155   156    2
   130   167   168    2
   131   167   173   am
   132    38    41    1
   133    38    37    1
   134    41    43    1
   135   187   188    2
   136   173   174    1
   137    37    34   am
   138   174   175    1
   139   174   177    1
   140    34    35    2
   141    34    33    1
   142   175   176    2
   143   136   134    1
   144   184   183    1
   145   183   182   ar
   146   183   181   ar
   147   182   180   ar
   148   181   179   ar
   149   180   178   ar
   150    36    33    1
   151   179   178   ar
   152   178   177    1
   153    33    32    1
   154   134   131    1
   155   134   135    1
   156   132   131    1
   157   132   133    2
   158   131   130    1
   159    30    28    1
   160    31    29    1
   161   122   121    2
   162   117   116    1
   163   130   121   am
   164   118   116    1
   165   121   120    1
   166    29    28    1
   167    28    25    1
   168   116   115    1
   169   115   112    1
   170    26    25    1
   171    26    27    2
   172    25    24    1
   173   120   119    1
   174   120   123    1
   175   119   113   am
   176   123   124    1
   177   113   112    1
   178   113   114    2
   179   112   111    1
   180   124   126   ar
   181   124   125   ar
   182   126   128   ar
   183   125   127   ar
   184   128   129   ar
   185   127   129   ar
