@<TRIPOS>MOLECULE
tmp/5k1cC00.pdb
 94 92 0 0 0
SMALL
GASTEIGER

@<TRIPOS>ATOM
      1  N         24.0490  241.6920  253.5650 N.3    49  PHE49      -0.1241
      2  CA        22.7700  242.3120  253.8690 C.3    49  PHE49       0.1605
      3  C         21.6360  241.2730  253.7930 C.2    49  PHE49       0.2264
      4  O         21.8250  240.1400  253.3120 O.2    49  PHE49      -0.2867
      5  CB        22.4970  243.4740  252.9140 C.3    49  PHE49       0.0534
      6  CG        23.4260  244.6400  253.0780 C.ar   49  PHE49      -0.0203
      7  CD1       23.1420  245.6520  253.9840 C.ar   49  PHE49      -0.0042
      8  CD2       24.5750  244.7530  252.2870 C.ar   49  PHE49      -0.0042
      9  CE1       23.9880  246.7490  254.1120 C.ar   49  PHE49      -0.0003
     10  CE2       25.4270  245.8410  252.4140 C.ar   49  PHE49      -0.0003
     11  CZ        25.1250  246.8400  253.3250 C.ar   49  PHE49      -0.0000
     12  N         16.1790  246.2780  257.1830 N.3    60  ASP60      -0.1239
     13  CA        17.4120  245.8760  256.5580 C.3    60  ASP60       0.1674
     14  C         18.4200  245.7010  257.6520 C.2    60  ASP60       0.2266
     15  O         18.4100  246.4590  258.6110 O.2    60  ASP60      -0.2867
     16  CB        17.8440  246.9120  255.5430 C.3    60  ASP60       0.1410
     17  CG        16.9960  246.8680  254.2860 C.2    60  ASP60       0.3668
     18  OD1       17.1280  245.8770  253.5250 O.co2  60  ASP60      -0.2456
     19  OD2       16.2180  247.8230  254.0460 O.co2  60  ASP60      -0.2456
     20  N         20.7240  248.2250  259.6340 N.3    75  TYR75      -0.1227
     21  CA        21.2960  249.0960  258.5680 C.3    75  TYR75       0.1736
     22  C         20.3070  250.1630  258.0830 C.2    75  TYR75       0.2595
     23  O         19.3420  249.8430  257.4270 O.2    75  TYR75      -0.2718
     24  CB        21.7890  248.2680  257.3770 C.3    75  TYR75       0.0548
     25  CG        22.3730  249.1330  256.2930 C.ar   75  TYR75      -0.0200
     26  CD1       23.5840  249.7750  256.4670 C.ar   75  TYR75      -0.0009
     27  CD2       21.7050  249.3330  255.1090 C.ar   75  TYR75      -0.0009
     28  CE1       24.1050  250.5870  255.4770 C.ar   75  TYR75       0.0417
     29  CE2       22.2210  250.1370  254.1110 C.ar   75  TYR75       0.0417
     30  CZ        23.4130  250.7600  254.3060 C.ar   75  TYR75       0.1957
     31  OH        23.9140  251.5610  253.3340 O.3    75  TYR75      -0.2866
     32  N         20.5700  251.4280  258.3990 N.am   76  LYS76      -0.1966
     33  CA        19.6710  252.5570  258.0600 C.3    76  LYS76       0.1728
     34  C         20.0180  253.3380  256.7440 C.2    76  LYS76       0.2617
     35  O         19.6040  254.5000  256.5930 O.2    76  LYS76      -0.2715
     36  CB        19.6070  253.5440  259.2490 C.3    76  LYS76       0.0311
     37  CG        18.9910  252.9940  260.5250 C.3    76  LYS76       0.0038
     38  CD        18.8750  254.0890  261.5860 C.3    76  LYS76       0.0206
     39  CE        17.8920  253.7640  262.7100 C.3    76  LYS76       0.1093
     40  NZ        16.5740  254.4240  262.4800 N.3    76  LYS76      -0.1314
     41  N         20.7850  252.7260  255.8300 N.am   77  GLY77      -0.1940
     42  CA        21.0430  253.3060  254.5090 C.3    77  GLY77       0.2014
     43  C         21.6260  254.7120  254.5450 C.2    77  GLY77       0.2638
     44  O         22.6730  254.9410  255.1370 O.2    77  GLY77      -0.2714
     45  N         20.9340  255.6690  253.9420 N.am   78  VAL78      -0.1977
     46  CA        21.4520  257.0350  253.8640 C.3    78  VAL78       0.1596
     47  C         20.9710  257.8490  255.0300 C.2    78  VAL78       0.2287
     48  O         21.1780  259.0590  255.0720 O.2    78  VAL78      -0.2864
     49  CB        21.0560  257.7870  252.5590 C.3    78  VAL78       0.0276
     50  CG1       21.4400  256.9920  251.3050 C.3    78  VAL78       0.0022
     51  CG2       19.5830  258.1800  252.5490 C.3    78  VAL78       0.0022
     52  N         20.3850  249.0790  239.4500 N.3   312  TYR312     -0.1241
     53  CA        19.5160  250.2370  239.4430 C.3   312  TYR312      0.1605
     54  C         19.9100  251.2980  238.3770 C.2   312  TYR312      0.2264
     55  O         19.2190  252.3290  238.2470 O.2   312  TYR312     -0.2867
     56  CB        19.4450  250.8420  240.8490 C.3   312  TYR312      0.0534
     57  CG        18.9430  249.8760  241.8980 C.ar  312  TYR312     -0.0201
     58  CD1       19.7610  248.8190  242.3670 C.ar  312  TYR312     -0.0009
     59  CD2       17.6550  250.0050  242.4350 C.ar  312  TYR312     -0.0009
     60  CE1       19.3090  247.9370  243.3340 C.ar  312  TYR312      0.0417
     61  CE2       17.1830  249.1190  243.4000 C.ar  312  TYR312      0.0417
     62  CZ        18.0080  248.0930  243.8490 C.ar  312  TYR312      0.1957
     63  OH        17.5460  247.2060  244.8030 O.3   312  TYR312     -0.2866
     64  N         22.7850  249.0030  245.8550 N.3   381  LEU381     -0.1231
     65  CA        21.5100  248.9980  246.5320 C.3   381  LEU381      0.1693
     66  C         20.6350  250.1390  246.0110 C.2   381  LEU381      0.2592
     67  O         21.1180  251.1340  245.4920 O.2   381  LEU381     -0.2718
     68  CB        21.7430  249.1840  248.0420 C.3   381  LEU381      0.0284
     69  CG        22.0880  248.0260  249.0060 C.3   381  LEU381      0.0019
     70  CD1       23.1750  247.0990  248.5290 C.3   381  LEU381      0.0001
     71  CD2       22.5400  248.5780  250.3560 C.3   381  LEU381      0.0001
     72  N         19.3370  250.0210  246.2170 N.am  382  GLU382     -0.1966
     73  CA        18.3840  251.0070  245.7370 C.3   382  GLU382      0.1733
     74  C         18.7630  252.4650  245.9960 C.2   382  GLU382      0.2616
     75  O         18.5450  253.2950  245.1080 O.2   382  GLU382     -0.2715
     76  CB        16.9640  250.7020  246.2610 C.3   382  GLU382      0.0429
     77  CG        15.8530  251.5540  245.6360 C.3   382  GLU382      0.1163
     78  CD        14.4340  251.1900  246.0810 C.2   382  GLU382      0.3649
     79  OE1       13.7540  252.0330  246.6940 O.co2 382  GLU382     -0.2457
     80  OE2       13.9780  250.0680  245.7970 O.co2 382  GLU382     -0.2457
     81  N         19.3450  252.7860  247.1510 N.am  383  ASP383     -0.1957
     82  CA        19.5880  254.1900  247.5080 C.3   383  ASP383      0.1840
     83  C         21.0490  254.5770  247.5670 C.2   383  ASP383      0.2622
     84  O         21.3300  255.7690  247.7320 O.2   383  ASP383     -0.2715
     85  CB        18.9630  254.5720  248.8510 C.3   383  ASP383      0.1450
     86  CG        17.4330  254.6450  248.8130 C.2   383  ASP383      0.3671
     87  OD1       16.8410  254.0570  247.8730 O.co2 383  ASP383     -0.2456
     88  OD2       16.8290  255.2760  249.7390 O.co2 383  ASP383     -0.2456
     89  N         21.9720  253.6210  247.4230 N.am  384  CYS384     -0.1968
     90  CA        23.3600  253.9140  247.7070 C.3   384  CYS384      0.1712
     91  C         24.2470  252.7930  247.3330 C.2   384  CYS384      0.2296
     92  O         23.8070  251.6650  247.2890 O.2   384  CYS384     -0.2864
     93  CB        23.5330  254.1260  249.2100 C.3   384  CYS384      0.0983
     94  SG        22.6320  252.9150  250.2160 S.3   384  CYS384     -0.0798
@<TRIPOS>BOND
     1    55    54    2
     2    54    53    1
     3    53    52    1
     4    53    56    1
     5    56    57    1
     6    57    58   ar
     7    57    59   ar
     8    58    60   ar
     9    59    61   ar
    10    60    62   ar
    11    61    62   ar
    12    62    63    1
    13    75    74    2
    14    67    66    2
    15    77    78    1
    16    77    76    1
    17    73    74    1
    18    73    72    1
    19    73    76    1
    20    80    78   ar
    21    64    65    1
    22    74    81   am
    23    66    72   am
    24    66    65    1
    25    78    79   ar
    26    65    68    1
    27    81    82    1
    28    92    91    2
    29    91    90    1
    30    89    83   am
    31    89    90    1
    32    82    83    1
    33    82    85    1
    34    83    84    2
    35    90    93    1
    36    87    86   ar
    37    68    69    1
    38    70    69    1
    39    86    85    1
    40    86    88   ar
    41    69    71    1
    42    93    94    1
    43    50    49    1
    44     8    10   ar
    45     8     6   ar
    46    10    11   ar
    47    51    49    1
    48    49    46    1
    49     5     6    1
    50     5     2    1
    51     6     7   ar
    52     4     3    2
    53    11     9   ar
    54    31    30    1
    55    18    17   ar
    56     1     2    1
    57     3     2    1
    58    46    45    1
    59    46    47    1
    60    45    43   am
    61     7     9   ar
    62    19    17   ar
    63    29    30   ar
    64    29    27   ar
    65    17    16    1
    66    30    28   ar
    67    42    43    1
    68    42    41    1
    69    43    44    2
    70    47    48    2
    71    27    25   ar
    72    28    26   ar
    73    16    13    1
    74    41    34   am
    75    25    26   ar
    76    25    24    1
    77    13    12    1
    78    13    14    1
    79    35    34    2
    80    34    33    1
    81    24    21    1
    82    23    22    2
    83    14    15    2
    84    33    32    1
    85    33    36    1
    86    22    32   am
    87    22    21    1
    88    21    20    1
    89    36    37    1
    90    37    38    1
    91    38    39    1
    92    40    39    1
