@<TRIPOS>MOLECULE
tmp/5k1fA00.pdb
 93 87 0 0 0
SMALL
GASTEIGER

@<TRIPOS>ATOM
      1  N          2.2670    2.0410   14.6630 N.3    67  SER67      -0.1217
      2  CA         1.0420    2.3330   13.9200 C.3    67  SER67       0.1889
      3  C          0.9290    3.7560   13.3690 C.2    67  SER67       0.2288
      4  O         -0.0290    4.0640   12.6560 O.2    67  SER67      -0.2866
      5  CB        -0.1710    2.0480   14.7940 C.3    67  SER67       0.2089
      6  OG        -0.1620    0.6930   15.2050 O.3    67  SER67      -0.2183
      7  N         -7.0360   -7.5740   15.8380 N.3   122  LEU122     -0.1231
      8  CA        -5.9230   -6.6380   15.9800 C.3   122  LEU122      0.1693
      9  C         -4.6460   -7.1290   15.2750 C.2   122  LEU122      0.2591
     10  O         -3.9990   -6.3670   14.5520 O.2   122  LEU122     -0.2718
     11  CB        -5.6500   -6.3890   17.4630 C.3   122  LEU122      0.0284
     12  CG        -4.5870   -5.3410   17.7910 C.3   122  LEU122      0.0019
     13  CD1       -4.9170   -4.0300   17.1080 C.3   122  LEU122      0.0001
     14  CD2       -4.5020   -5.1530   19.2950 C.3   122  LEU122      0.0001
     15  N         -4.3080   -8.4020   15.4770 N.am  123  GLN123     -0.1979
     16  CA        -3.1150   -9.0120   14.8740 C.3   123  GLN123      0.1601
     17  C         -3.4700  -10.2640   14.0770 C.2   123  GLN123      0.2287
     18  O         -4.4920  -10.8870   14.3320 O.2   123  GLN123     -0.2864
     19  CB        -2.0970   -9.3790   15.9470 C.3   123  GLN123      0.0394
     20  CG        -1.7380   -8.2300   16.8980 C.3   123  GLN123      0.0908
     21  CD        -0.7980   -7.1890   16.2800 C.2   123  GLN123      0.2608
     22  OE1       -0.3900   -7.3060   15.1200 O.2   123  GLN123     -0.2717
     23  NE2       -0.4530   -6.1640   17.0620 N.am  123  GLN123     -0.0878
     24  N        -10.0740   -2.0880   15.5640 N.3   153  TYR153     -0.1241
     25  CA        -8.7130   -1.7030   15.2010 C.3   153  TYR153      0.1605
     26  C         -7.9240   -2.9440   14.8200 C.2   153  TYR153      0.2264
     27  O         -7.8830   -3.9220   15.5700 O.2   153  TYR153     -0.2867
     28  CB        -8.0680   -0.9550   16.3680 C.3   153  TYR153      0.0534
     29  CG        -6.7340   -0.2810   16.0840 C.ar  153  TYR153     -0.0201
     30  CD1       -6.6130    0.6910   15.0840 C.ar  153  TYR153     -0.0009
     31  CD2       -5.6110   -0.5730   16.8520 C.ar  153  TYR153     -0.0009
     32  CE1       -5.4050    1.3330   14.8470 C.ar  153  TYR153      0.0417
     33  CE2       -4.3980    0.0610   16.6190 C.ar  153  TYR153      0.0417
     34  CZ        -4.3030    1.0130   15.6150 C.ar  153  TYR153      0.1957
     35  OH        -3.0980    1.6420   15.3850 O.3   153  TYR153     -0.2866
     36  N         -9.2490    1.0300   21.4210 N.3   294  ILE294     -0.1231
     37  CA        -8.1660    0.3220   20.7380 C.3   294  ILE294      0.1692
     38  C         -8.4120   -1.1840   20.6100 C.2   294  ILE294      0.2591
     39  O         -8.1100   -1.7860   19.5780 O.2   294  ILE294     -0.2718
     40  CB        -6.8250    0.5310   21.4570 C.3   294  ILE294      0.0266
     41  CG1       -6.4000    1.9970   21.3470 C.3   294  ILE294      0.0019
     42  CG2       -5.7660   -0.3700   20.8670 C.3   294  ILE294      0.0020
     43  CD1       -5.3230    2.3880   22.3320 C.3   294  ILE294      0.0001
     44  N         -8.9740   -1.7890   21.6530 N.am  295  LEU295     -0.1980
     45  CA        -8.9440   -3.2460   21.7640 C.3   295  LEU295      0.1596
     46  C        -10.2730   -3.9230   21.4990 C.2   295  LEU295      0.2287
     47  O        -10.3060   -5.1110   21.1900 O.2   295  LEU295     -0.2864
     48  CB        -8.4570   -3.6600   23.1500 C.3   295  LEU295      0.0297
     49  CG        -7.0260   -3.2410   23.4840 C.3   295  LEU295      0.0022
     50  CD1       -6.7350   -3.5270   24.9510 C.3   295  LEU295      0.0001
     51  CD2       -6.0500   -3.9740   22.5950 C.3   295  LEU295      0.0001
     52  N         -2.4020   10.4310   15.8870 N.3   312  LYS312     -0.1231
     53  CA        -2.1940    9.0030   15.7130 C.3   312  LYS312      0.1693
     54  C         -1.1040    8.5210   16.6720 C.2   312  LYS312      0.2593
     55  O          0.0070    9.0800   16.7290 O.2   312  LYS312     -0.2718
     56  CB        -1.8120    8.6690   14.2670 C.3   312  LYS312      0.0285
     57  CG        -1.8240    7.1750   13.9520 C.3   312  LYS312      0.0035
     58  CD        -3.2370    6.6120   14.0510 C.3   312  LYS312      0.0206
     59  CE        -3.2570    5.0850   13.9590 C.3   312  LYS312      0.1093
     60  NZ        -2.7950    4.4290   15.2250 N.3   312  LYS312     -0.1314
     61  N         -1.4320    7.4920   17.4360 N.am  313  THR313     -0.1939
     62  CA        -0.4530    6.8370   18.2870 C.3   313  THR313      0.2028
     63  C          0.2160    5.7230   17.5040 C.2   313  THR313      0.2643
     64  O         -0.3530    5.1970   16.5330 O.2   313  THR313     -0.2714
     65  CB        -1.0880    6.2180   19.5440 C.3   313  THR313      0.1808
     66  OG1       -2.0540    5.2340   19.1380 O.3   313  THR313     -0.2208
     67  CG2       -1.7630    7.2870   20.3980 C.3   313  THR313      0.0379
     68  N          1.4010    5.3330   17.9450 N.am  314  GLY314     -0.1939
     69  CA         2.0820    4.1990   17.3430 C.3   314  GLY314      0.2014
     70  C          2.9930    3.5720   18.3740 C.2   314  GLY314      0.2639
     71  O          3.6530    4.2860   19.1420 O.2   314  GLY314     -0.2714
     72  N          3.0230    2.2440   18.4070 N.am  315  SER315     -0.1949
     73  CA         3.8220    1.5310   19.4010 C.3   315  SER315      0.1924
     74  C          4.3490    0.2090   18.8500 C.2   315  SER315      0.2314
     75  O          3.6640   -0.4800   18.0930 O.2   315  SER315     -0.2863
     76  CB         2.9950    1.2690   20.6750 C.3   315  SER315      0.2116
     77  OG         2.1790    2.3830   21.0470 O.3   315  SER315     -0.2180
     78  N          8.1400    1.6670   24.7930 N.3   340  ASN340     -0.1240
     79  CA         6.6770    1.6710   24.6660 C.3   340  ASN340      0.1653
     80  C          6.0210    2.0080   25.9970 C.2   340  ASN340      0.2266
     81  O          5.6570    1.1200   26.7590 O.2   340  ASN340     -0.2867
     82  CB         6.1740    0.3120   24.1590 C.3   340  ASN340      0.1155
     83  CG         4.6660    0.2860   23.9310 C.2   340  ASN340      0.2627
     84  OD1        3.9810    1.2900   24.1180 O.2   340  ASN340     -0.2716
     85  ND2        4.1450   -0.8730   23.5200 N.am  340  ASN340     -0.0877
     86  N          0.0140    4.9890   26.5360 N.3   343  ILE343     -0.1245
     87  CA        -0.6300    5.9460   25.6440 C.3   343  ILE343      0.1561
     88  C         -1.1890    7.1500   26.4040 C.2   343  ILE343      0.2260
     89  O         -1.0740    8.2920   25.9390 O.2   343  ILE343     -0.2867
     90  CB        -1.7320    5.2480   24.8250 C.3   343  ILE343      0.0252
     91  CG1       -1.0700    4.3290   23.8010 C.3   343  ILE343      0.0019
     92  CG2       -2.6140    6.2530   24.1220 C.3   343  ILE343      0.0019
     93  CD1       -2.0150    3.7360   22.8140 C.3   343  ILE343      0.0001
@<TRIPOS>BOND
     1     4     3    2
     2     3     2    1
     3     2     1    1
     4     2     5    1
     5    57    58    1
     6    57    56    1
     7    59    58    1
     8    59    60    1
     9    17    18    2
    10    17    16    1
    11    56    53    1
    12    10     9    2
    13     5     6    1
    14    26    25    1
    15    26    27    2
    16    32    30   ar
    17    32    34   ar
    18    16    15    1
    19    16    19    1
    20    30    29   ar
    21    22    21    2
    22    25    24    1
    23    25    28    1
    24     9    15   am
    25     9     8    1
    26    35    34    1
    27    34    33   ar
    28    53    52    1
    29    53    54    1
    30     7     8    1
    31    19    20    1
    32     8    11    1
    33    29    28    1
    34    29    31   ar
    35    21    20    1
    36    21    23   am
    37    64    63    2
    38    33    31   ar
    39    54    55    2
    40    54    61   am
    41    13    12    1
    42    69    68    1
    43    69    70    1
    44    61    62    1
    45    11    12    1
    46    63    68   am
    47    63    62    1
    48    12    14    1
    49    75    74    2
    50    62    65    1
    51    70    72   am
    52    70    71    2
    53    72    73    1
    54    74    73    1
    55    66    65    1
    56    73    76    1
    57    65    67    1
    58    39    38    2
    59    38    37    1
    60    38    44   am
    61    76    77    1
    62    37    36    1
    63    37    40    1
    64    42    40    1
    65    47    46    2
    66    41    40    1
    67    41    43    1
    68    46    45    1
    69    44    45    1
    70    45    48    1
    71    51    49    1
    72    93    91    1
    73    48    49    1
    74    49    50    1
    75    85    83   am
    76    91    90    1
    77    83    84    2
    78    83    82    1
    79    92    90    1
    80    82    79    1
    81    79    78    1
    82    79    80    1
    83    90    87    1
    84    87    88    1
    85    87    86    1
    86    89    88    2
    87    80    81    2
