@<TRIPOS>MOLECULE
tmp/5k1iD00.pdb
 195 189 0 0 0
SMALL
GASTEIGER

@<TRIPOS>ATOM
      1  N         -0.3050   61.6470  149.9630 N.3    74  TYR74      -0.1227
      2  CA        -0.4360   63.1290  149.9980 C.3    74  TYR74       0.1736
      3  C         -1.3240   63.7140  148.8900 C.2    74  TYR74       0.2595
      4  O         -2.3110   64.3770  149.1600 O.2    74  TYR74      -0.2718
      5  CB         0.9410   63.7940  149.9260 C.3    74  TYR74       0.0548
      6  CG         0.9110   65.3170  149.9830 C.ar   74  TYR74      -0.0200
      7  CD1        1.2300   65.9900  151.1720 C.ar   74  TYR74      -0.0009
      8  CD2        0.5750   66.0930  148.8440 C.ar   74  TYR74      -0.0009
      9  CE1        1.2000   67.3890  151.2470 C.ar   74  TYR74       0.0417
     10  CE2        0.5570   67.4830  148.9040 C.ar   74  TYR74       0.0417
     11  CZ         0.8710   68.1340  150.1130 C.ar   74  TYR74       0.1957
     12  OH         0.8520   69.5240  150.2190 O.3    74  TYR74      -0.2866
     13  N         -0.9510   63.4880  147.6420 N.am   75  HIS75      -0.1975
     14  CA        -1.6920   64.0540  146.5140 C.3    75  HIS75       0.1656
     15  C         -3.0730   63.4260  146.2610 C.2    75  HIS75       0.2291
     16  O         -3.3220   62.8190  145.2110 O.2    75  HIS75      -0.2864
     17  CB        -0.8280   64.0150  145.2480 C.3    75  HIS75       0.0771
     18  CG         0.3150   64.9790  145.2970 C.ar   75  HIS75       0.0820
     19  ND1        1.6290   64.5780  145.3980 N.ar   75  HIS75      -0.2267
     20  CD2        0.3290   66.3340  145.3180 C.ar   75  HIS75       0.1154
     21  CE1        2.4050   65.6460  145.4610 C.ar   75  HIS75       0.1986
     22  NE2        1.6400   66.7240  145.4140 N.ar   75  HIS75      -0.2212
     23  N         -3.5820   62.0900  140.4010 N.3   119  HIS119     -0.1241
     24  CA        -2.1260   62.1050  140.6360 C.3   119  HIS119      0.1621
     25  C         -1.5840   60.7260  140.9550 C.2   119  HIS119      0.2264
     26  O         -1.9820   60.1320  141.9410 O.2   119  HIS119     -0.2867
     27  CB        -1.7970   63.0100  141.8170 C.3   119  HIS119      0.0745
     28  CG        -0.3730   63.4750  141.8440 C.ar  119  HIS119      0.0817
     29  ND1        0.6990   62.6060  141.8810 N.ar  119  HIS119     -0.2268
     30  CD2        0.1600   64.7230  141.8760 C.ar  119  HIS119      0.1154
     31  CE1        1.8270   63.2980  141.9220 C.ar  119  HIS119      0.1986
     32  NE2        1.5280   64.5840  141.9200 N.ar  119  HIS119     -0.2212
     33  N          6.5460   62.0690  140.7330 N.3   123  SER123     -0.1202
     34  CA         6.8010   63.4090  140.2200 C.3   123  SER123      0.2020
     35  C          6.8870   63.4910  138.6900 C.2   123  SER123      0.2618
     36  O          7.0550   62.4770  137.9830 O.2   123  SER123     -0.2717
     37  CB         8.0930   63.9450  140.8330 C.3   123  SER123      0.2103
     38  OG         9.2120   63.2260  140.3540 O.3   123  SER123     -0.2182
     39  N          6.7740   64.7170  138.1820 N.am  124  ASN124     -0.1974
     40  CA         6.9910   65.0010  136.7590 C.3   124  ASN124      0.1688
     41  C          8.2690   64.3530  136.2840 C.2   124  ASN124      0.2292
     42  O          8.2690   63.6040  135.3100 O.2   124  ASN124     -0.2864
     43  CB         7.0060   66.5100  136.5000 C.3   124  ASN124      0.1181
     44  CG         5.6250   67.0410  136.1660 C.2   124  ASN124      0.2629
     45  OD1        4.7270   66.2730  135.8450 O.2   124  ASN124     -0.2716
     46  ND2        5.4510   68.3490  136.2330 N.am  124  ASN124     -0.0877
     47  N          0.3350   68.3430  135.3700 N.3   145  GLU145     -0.1245
     48  CA        -0.5620   69.4840  135.3970 C.3   145  GLU145      0.1567
     49  C         -1.5320   69.4340  134.2150 C.2   145  GLU145      0.2260
     50  O         -2.7400   69.6780  134.3630 O.2   145  GLU145     -0.2867
     51  CB         0.2430   70.7690  135.3900 C.3   145  GLU145      0.0388
     52  CG         1.0000   71.0080  136.6930 C.3   145  GLU145      0.1160
     53  CD         2.2540   70.1480  136.8510 C.2   145  GLU145      0.3649
     54  OE1        2.9690   69.8800  135.8720 O.co2 145  GLU145     -0.2457
     55  OE2        2.5450   69.7630  137.9880 O.co2 145  GLU145     -0.2457
     56  N          0.7820   75.9120  138.6330 N.3   186  THR186     -0.1218
     57  CA         1.1130   75.1770  139.8640 C.3   186  THR186      0.1862
     58  C          2.2720   74.2400  139.6550 C.2   186  THR186      0.2287
     59  O          2.6730   73.5860  140.5920 O.2   186  THR186     -0.2866
     60  CB        -0.0650   74.3440  140.4900 C.3   186  THR186      0.1770
     61  OG1       -0.2590   73.1360  139.7650 O.3   186  THR186     -0.2211
     62  CG2       -1.3480   75.1260  140.5080 C.3   186  THR186      0.0375
     63  N          5.7260   73.1340  139.7190 N.3   188  MET188     -0.1245
     64  CA         6.8840   73.5970  140.5040 C.3   188  MET188      0.1570
     65  C          8.0610   74.1210  139.6900 C.2   188  MET188      0.2261
     66  O          8.8020   74.9700  140.1540 O.2   188  MET188     -0.2867
     67  CB         7.3370   72.5360  141.5040 C.3   188  MET188      0.0387
     68  CG         6.3710   72.3830  142.6790 C.3   188  MET188      0.0595
     69  SD         6.4880   73.8370  143.7240 S.3   188  MET188     -0.1393
     70  CE         8.2330   73.7890  144.1650 C.3   188  MET188      0.0692
     71  N         -1.7020   75.8120  147.3530 N.3   233  ASP233     -0.1225
     72  CA        -0.9380   74.6110  147.0920 C.3   233  ASP233      0.1805
     73  C          0.2580   74.3930  148.0250 C.2   233  ASP233      0.2597
     74  O          0.4270   73.3180  148.5630 O.2   233  ASP233     -0.2718
     75  CB        -0.4420   74.5870  145.6550 C.3   233  ASP233      0.1424
     76  CG        -0.0460   73.2150  145.2420 C.2   233  ASP233      0.3668
     77  OD1       -0.4690   72.2560  145.9200 O.co2 233  ASP233     -0.2456
     78  OD2        0.6780   73.0840  144.2540 O.co2 233  ASP233     -0.2456
     79  N          1.0800   75.4270  148.1730 N.am  234  LEU234     -0.1979
     80  CA         2.2360   75.4000  149.0540 C.3   234  LEU234      0.1596
     81  C          1.9180   75.9630  150.4430 C.2   234  LEU234      0.2287
     82  O          2.7020   76.7660  150.9920 O.2   234  LEU234     -0.2864
     83  CB         3.3800   76.2160  148.4380 C.3   234  LEU234      0.0297
     84  CG         3.8480   75.7420  147.0780 C.3   234  LEU234      0.0022
     85  CD1        5.0570   76.5500  146.6840 C.3   234  LEU234      0.0001
     86  CD2        4.1980   74.2760  147.1500 C.3   234  LEU234      0.0001
     87  N          0.9150   74.1810  153.4590 N.3   236  ASN236     -0.1226
     88  CA         0.9200   73.4460  154.7140 C.3   236  ASN236      0.1770
     89  C          1.8930   73.8480  155.8050 C.2   236  ASN236      0.2439
     90  O          1.5600   73.7340  156.9880 O.2   236  ASN236     -0.2733
     91  CB         0.5950   71.9280  154.6930 C.3   236  ASN236      0.1168
     92  CG         0.7680   71.2400  153.3490 C.2   236  ASN236      0.2627
     93  OD1        1.8360   70.7300  153.0530 O.2   236  ASN236     -0.2716
     94  ND2       -0.3280   71.0620  152.6220 N.am  236  ASN236     -0.0877
     95  N          3.0540   74.4190  155.4410 N.am  237  PRO237     -0.2729
     96  CA         3.8530   74.9410  156.5620 C.3   237  PRO237      0.1401
     97  C          3.2720   76.2460  157.1510 C.2   237  PRO237      0.2269
     98  O          3.8400   76.7990  158.1100 O.2   237  PRO237     -0.2865
     99  CB         5.2330   75.2000  155.9290 C.3   237  PRO237      0.0296
    100  CG         5.1600   74.6170  154.5520 C.3   237  PRO237      0.0237
    101  CD         3.7280   74.6130  154.1480 C.3   237  PRO237      0.0939
    102  N          0.3500   70.7300  159.8530 N.3   244  TYR244     -0.1241
    103  CA         1.5770   70.7140  159.1040 C.3   244  TYR244      0.1605
    104  C          2.2900   69.3690  159.2680 C.2   244  TYR244      0.2264
    105  O          2.7440   68.7710  158.2910 O.2   244  TYR244     -0.2867
    106  CB         2.4680   71.8580  159.5920 C.3   244  TYR244      0.0534
    107  CG         3.7630   72.0380  158.8210 C.ar  244  TYR244     -0.0201
    108  CD1        3.9380   71.5090  157.5390 C.ar  244  TYR244     -0.0009
    109  CD2        4.8040   72.7760  159.3810 C.ar  244  TYR244     -0.0009
    110  CE1        5.1290   71.6760  156.8700 C.ar  244  TYR244      0.0417
    111  CE2        6.0020   72.9670  158.7170 C.ar  244  TYR244      0.0417
    112  CZ         6.1750   72.4170  157.4660 C.ar  244  TYR244      0.1957
    113  OH         7.3950   72.6560  156.8410 O.3   244  TYR244     -0.2866
    114  N          0.7680   66.7380  157.1790 N.3   247  TRP247     -0.1227
    115  CA         1.0950   66.9630  155.7570 C.3   247  TRP247      0.1737
    116  C          2.5270   66.5350  155.4390 C.2   247  TRP247      0.2596
    117  O          2.8600   66.1780  154.3080 O.2   247  TRP247     -0.2718
    118  CB         0.8850   68.4590  155.3680 C.3   247  TRP247      0.0564
    119  CG        -0.5620   68.8520  155.3260 C.ar  247  TRP247      0.0003
    120  CD1       -1.1740   69.8490  156.0270 C.ar  247  TRP247      0.0946
    121  CD2       -1.5860   68.2280  154.5400 C.ar  247  TRP247      0.0152
    122  NE1       -2.5100   69.8860  155.7270 N.ar  247  TRP247     -0.2442
    123  CE2       -2.7880   68.8980  154.8170 C.ar  247  TRP247      0.0810
    124  CE3       -1.5960   67.1690  153.6120 C.ar  247  TRP247      0.0012
    125  CZ2       -3.9890   68.5410  154.2050 C.ar  247  TRP247      0.0191
    126  CZ3       -2.7880   66.8080  153.0180 C.ar  247  TRP247      0.0001
    127  CH2       -3.9650   67.4870  153.3160 C.ar  247  TRP247      0.0015
    128  N          3.3910   66.5780  156.4350 N.am  248  THR248     -0.1953
    129  CA         4.7780   66.2700  156.1670 C.3   248  THR248      0.1897
    130  C          4.9350   64.7540  156.1580 C.2   248  THR248      0.2313
    131  O          5.6700   64.1820  155.3670 O.2   248  THR248     -0.2863
    132  CB         5.7090   66.9830  157.1600 C.3   248  THR248      0.1794
    133  OG1        5.6080   68.3930  156.9370 O.3   248  THR248     -0.2208
    134  CG2        7.1450   66.5490  156.9680 C.3   248  THR248      0.0378
    135  N          3.5020   63.5050  152.6670 N.3   251  ILE251     -0.1231
    136  CA         4.3490   63.6180  151.4880 C.3   251  ILE251      0.1692
    137  C          5.6330   62.8110  151.6330 C.2   251  ILE251      0.2591
    138  O          6.1480   62.2680  150.6470 O.2   251  ILE251     -0.2718
    139  CB         4.6680   65.0580  151.0970 C.3   251  ILE251      0.0266
    140  CG1        4.7720   65.1510  149.5800 C.3   251  ILE251      0.0019
    141  CG2        5.9610   65.5200  151.7260 C.3   251  ILE251      0.0020
    142  CD1        4.9110   66.5030  149.1010 C.3   251  ILE251      0.0001
    143  N          6.1440   62.7080  152.8540 N.am  252  MET252     -0.1979
    144  CA         7.2980   61.8530  153.0810 C.3   252  MET252      0.1605
    145  C          7.0000   60.3980  152.7430 C.2   252  MET252      0.2287
    146  O          7.8350   59.7380  152.1410 O.2   252  MET252     -0.2864
    147  CB         7.8510   61.9920  154.5030 C.3   252  MET252      0.0413
    148  CG         8.6470   63.2670  154.7030 C.3   252  MET252      0.0598
    149  SD         9.7190   63.6610  153.2960 S.3   252  MET252     -0.1393
    150  CE        10.0930   65.3680  153.7090 C.3   252  MET252      0.0692
    151  N          6.7870   60.2650  148.8360 N.3   255  PHE255     -0.1241
    152  CA         8.1090   60.3460  148.2360 C.3   255  PHE255      0.1605
    153  C          8.8930   59.0640  148.4570 C.2   255  PHE255      0.2264
    154  O          9.4800   58.5080  147.5330 O.2   255  PHE255     -0.2867
    155  CB         8.8860   61.5260  148.8020 C.3   255  PHE255      0.0534
    156  CG         8.5050   62.8380  148.2090 C.ar  255  PHE255     -0.0203
    157  CD1        7.6250   62.9060  147.1350 C.ar  255  PHE255     -0.0042
    158  CD2        9.0640   64.0080  148.6860 C.ar  255  PHE255     -0.0042
    159  CE1        7.2700   64.1470  146.5570 C.ar  255  PHE255     -0.0003
    160  CE2        8.7290   65.2370  148.1260 C.ar  255  PHE255     -0.0003
    161  CZ         7.8200   65.3020  147.0520 C.ar  255  PHE255     -0.0000
    162  N         15.8240   63.2300  148.5940 N.3   272  MET272     -0.1245
    163  CA        14.6820   63.1810  149.5310 C.3   272  MET272      0.1570
    164  C         13.6920   62.0240  149.2980 C.2   272  MET272      0.2261
    165  O         12.6570   61.9430  149.9440 O.2   272  MET272     -0.2867
    166  CB        13.9360   64.5370  149.6170 C.3   272  MET272      0.0387
    167  CG        14.5790   65.5640  150.5830 C.3   272  MET272      0.0595
    168  SD        15.4840   64.8290  152.0250 S.3   272  MET272     -0.1393
    169  CE        14.1500   64.3150  153.1340 C.3   272  MET272      0.0692
    170  N         14.9310   68.9780  155.5040 N.3   283  SER283     -0.1202
    171  CA        14.2430   69.2430  154.2430 C.3   283  SER283      0.2020
    172  C         13.1930   70.3270  154.4030 C.2   283  SER283      0.2618
    173  O         13.1240   71.2240  153.5750 O.2   283  SER283     -0.2717
    174  CB        13.5970   67.9900  153.6930 C.3   283  SER283      0.2103
    175  OG        14.5680   66.9680  153.6820 O.3   283  SER283     -0.2182
    176  N         12.3870   70.2530  155.4620 N.am  284  GLN284     -0.1979
    177  CA        11.3240   71.2310  155.6500 C.3   284  GLN284      0.1601
    178  C         11.9110   72.5960  155.9510 C.2   284  GLN284      0.2287
    179  O         11.4950   73.5870  155.3590 O.2   284  GLN284     -0.2864
    180  CB        10.3110   70.8180  156.7200 C.3   284  GLN284      0.0394
    181  CG         9.4900   69.5810  156.3910 C.3   284  GLN284      0.0908
    182  CD         8.6790   69.7220  155.1040 C.2   284  GLN284      0.2608
    183  OE1        8.0590   70.7400  154.8480 O.2   284  GLN284     -0.2717
    184  NE2        8.6960   68.6850  154.2830 N.am  284  GLN284     -0.0878
    185  N         12.9650   73.8130  152.7050 N.3   287  PHE287     -0.1241
    186  CA        11.8210   74.1140  151.8600 C.3   287  PHE287      0.1605
    187  C         11.1400   75.4250  152.3110 C.2   287  PHE287      0.2264
    188  O         10.6030   76.1920  151.4800 O.2   287  PHE287     -0.2867
    189  CB        10.8440   72.9580  151.9400 C.3   287  PHE287      0.0534
    190  CG         9.5690   73.1370  151.1120 C.ar  287  PHE287     -0.0203
    191  CD1        9.6240   73.4710  149.7570 C.ar  287  PHE287     -0.0042
    192  CD2        8.3180   72.8770  151.6830 C.ar  287  PHE287     -0.0042
    193  CE1        8.4630   73.5710  149.0160 C.ar  287  PHE287     -0.0003
    194  CE2        7.1570   72.9810  150.9430 C.ar  287  PHE287     -0.0003
    195  CZ         7.2210   73.3310  149.6060 C.ar  287  PHE287     -0.0000
@<TRIPOS>BOND
     1    49    50    2
     2    49    48    1
     3    42    41    2
     4    47    48    1
     5    51    48    1
     6    51    52    1
     7    45    44    2
     8    54    53   ar
     9    44    46   am
    10    44    43    1
    11    41    40    1
    12    43    40    1
    13    52    53    1
    14    40    39    1
    15    53    55   ar
    16    36    35    2
    17    39    35   am
    18    56    57    1
    19    35    34    1
    20    58    57    1
    21    58    59    2
    22    65    66    2
    23    65    64    1
    24    63    64    1
    25    61    60    1
    26    57    60    1
    27    34    33    1
    28    34    37    1
    29    38    37    1
    30    23    24    1
    31    60    62    1
    32    64    67    1
    33    24    25    1
    34    24    27    1
    35    25    26    2
    36    67    68    1
    37    27    28    1
    38    28    30   ar
    39    28    29   ar
    40    30    32   ar
    41    29    31   ar
    42    32    31   ar
    43    68    69    1
    44    69    70    1
    45    78    76   ar
    46    16    15    2
    47    76    75    1
    48    76    77   ar
    49    17    18    1
    50    17    14    1
    51    18    20   ar
    52    18    19   ar
    53    20    22   ar
    54    19    21   ar
    55    22    21   ar
    56    75    72    1
    57    15    14    1
    58    14    13    1
    59   159   161   ar
    60   159   157   ar
    61    85    84    1
    62   161   160   ar
    63    84    86    1
    64    84    83    1
    65    72    71    1
    66    72    73    1
    67   157   156   ar
    68   154   153    2
    69    13     3   am
    70    73    79   am
    71    73    74    2
    72   160   158   ar
    73    79    80    1
    74   156   158   ar
    75   156   155    1
    76   152   153    1
    77   152   155    1
    78   152   151    1
    79    83    80    1
    80   162   163    1
    81     8    10   ar
    82     8     6   ar
    83     3     4    2
    84     3     2    1
    85    10    11   ar
    86   193   195   ar
    87   193   191   ar
    88    80    81    1
    89   142   140    1
    90   164   163    1
    91   164   165    2
    92   163   166    1
    93   140   139    1
    94   195   194   ar
    95   166   167    1
    96   191   190   ar
    97     5     6    1
    98     5     2    1
    99     1     2    1
   100     6     7   ar
   101    11    12    1
   102    11     9   ar
   103    81    82    2
   104   167   168    1
   105   138   137    2
   106   194   192   ar
   107   139   136    1
   108   139   141    1
   109   190   192   ar
   110   190   189    1
   111     7     9   ar
   112   188   187    2
   113   136   137    1
   114   136   135    1
   115   137   143   am
   116   186   189    1
   117   186   187    1
   118   186   185    1
   119   168   169    1
   120   146   145    2
   121    94    92   am
   122   145   144    1
   123   143   144    1
   124   126   127   ar
   125   126   124   ar
   126    93    92    2
   127   144   147    1
   128   149   150    1
   129   149   148    1
   130   127   125   ar
   131    92    91    1
   132    87    88    1
   133   173   172    2
   134   124   121   ar
   135   175   174    1
   136   174   171    1
   137   101   100    1
   138   101    95    1
   139   125   123   ar
   140   171   172    1
   141   171   170    1
   142   184   182   am
   143   117   116    2
   144   172   176   am
   145   147   148    1
   146   121   123   ar
   147   121   119   ar
   148   100    99    1
   149    91    88    1
   150    88    89    1
   151   123   122   ar
   152   183   182    2
   153   182   181    1
   154   119   118    1
   155   119   120   ar
   156   179   178    2
   157   131   130    2
   158   118   115    1
   159   116   115    1
   160   116   128   am
   161    95    89   am
   162    95    96    1
   163   176   177    1
   164   177   178    1
   165   177   180    1
   166   122   120   ar
   167   115   114    1
   168    89    90    2
   169    99    96    1
   170   130   129    1
   171   129   128    1
   172   129   132    1
   173   181   180    1
   174    96    97    1
   175   113   112    1
   176   110   112   ar
   177   110   108   ar
   178   133   132    1
   179   134   132    1
   180    97    98    2
   181   112   111   ar
   182   108   107   ar
   183   105   104    2
   184   111   109   ar
   185   107   109   ar
   186   107   106    1
   187   103   104    1
   188   103   106    1
   189   103   102    1
