@<TRIPOS>MOLECULE
tmp/5k1kA01.pdb
 117 113 0 0 0
SMALL
GASTEIGER

@<TRIPOS>ATOM
      1  N         24.3670    4.0140   13.4290 N.3    25  PRO25      -0.2116
      2  CA        24.0390    5.0280   14.4240 C.3    25  PRO25       0.1372
      3  C         24.7700    4.7610   15.7370 C.2    25  PRO25       0.2244
      4  O         24.7220    3.6400   16.2510 O.2    25  PRO25      -0.2868
      5  CB        22.5280    4.8900   14.5650 C.3    25  PRO25       0.0268
      6  CG        22.2180    3.4840   14.1900 C.3    25  PRO25       0.0207
      7  CD        23.2230    3.1510   13.1140 C.3    25  PRO25       0.0892
      8  N         25.3810    6.6070   19.4550 N.3    27  THR27      -0.1218
      9  CA        25.2320    7.5670   20.5200 C.3    27  THR27       0.1862
     10  C         26.5890    7.9070   21.1180 C.2    27  THR27       0.2287
     11  O         27.3440    7.0060   21.5140 O.2    27  THR27      -0.2866
     12  CB        24.2930    6.9680   21.5940 C.3    27  THR27       0.1770
     13  OG1       22.9570    6.9970   21.0940 O.3    27  THR27      -0.2211
     14  CG2       24.3240    7.7340   22.9150 C.3    27  THR27       0.0375
     15  N         21.4000    8.3770   17.5730 N.3    58  ALA58      -0.1245
     16  CA        19.9950    8.5190   17.9690 C.3    58  ALA58       0.1562
     17  C         19.7130    9.9480   18.4630 C.2    58  ALA58       0.2260
     18  O         20.4470   10.4780   19.2700 O.2    58  ALA58      -0.2867
     19  CB        19.6470    7.4880   19.0340 C.3    58  ALA58       0.0290
     20  N         19.8100    9.4640   28.2250 N.3    68  TYR68      -0.1241
     21  CA        21.2680    9.4690   28.3820 C.3    68  TYR68       0.1605
     22  C         21.6840   10.9260   28.2930 C.2    68  TYR68       0.2264
     23  O         21.0070   11.7490   27.6800 O.2    68  TYR68      -0.2867
     24  CB        21.9540    8.6330   27.2910 C.3    68  TYR68       0.0534
     25  CG        21.3940    7.2260   27.1780 C.ar   68  TYR68      -0.0201
     26  CD1       20.2880    6.9440   26.3990 C.ar   68  TYR68      -0.0009
     27  CD2       21.9640    6.1710   27.8780 C.ar   68  TYR68      -0.0009
     28  CE1       19.7810    5.6750   26.3250 C.ar   68  TYR68       0.0417
     29  CE2       21.4540    4.8980   27.7880 C.ar   68  TYR68       0.0417
     30  CZ        20.3650    4.6580   27.0060 C.ar   68  TYR68       0.1957
     31  OH        19.8540    3.3900   26.9230 O.3    68  TYR68      -0.2866
     32  N         18.7310    9.5860   12.8590 N.3   100  GLN100     -0.1245
     33  CA        18.0020    8.5120   13.5040 C.3   100  GLN100      0.1566
     34  C         17.0540    9.0970   14.5570 C.2   100  GLN100      0.2260
     35  O         17.4920    9.6540   15.5390 O.2   100  GLN100     -0.2867
     36  CB        18.9420    7.5010   14.1530 C.3   100  GLN100      0.0367
     37  CG        18.1670    6.2610   14.5670 C.3   100  GLN100      0.0905
     38  CD        18.9560    5.2870   15.4080 C.2   100  GLN100      0.2608
     39  OE1       19.5400    5.6590   16.4360 O.2   100  GLN100     -0.2717
     40  NE2       18.9130    4.0020   15.0190 N.am  100  GLN100     -0.0878
     41  N         14.5450    9.1890   17.5990 N.3   102  TRP102     -0.1241
     42  CA        14.5330    8.4050   18.8370 C.3   102  TRP102      0.1605
     43  C         13.4910    8.8460   19.8330 C.2   102  TRP102      0.2264
     44  O         13.3590   10.0400   20.1450 O.2   102  TRP102     -0.2867
     45  CB        15.8670    8.6070   19.5100 C.3   102  TRP102      0.0550
     46  CG        16.3320    7.5850   20.4760 C.ar  102  TRP102      0.0003
     47  CD1       15.9180    6.2890   20.6460 C.ar  102  TRP102      0.0946
     48  CD2       17.4610    7.7650   21.3330 C.ar  102  TRP102      0.0152
     49  NE1       16.7470    5.6450   21.5560 N.ar  102  TRP102     -0.2442
     50  CE2       17.6980    6.5400   21.9850 C.ar  102  TRP102      0.0810
     51  CE3       18.3120    8.8520   21.5800 C.ar  102  TRP102      0.0012
     52  CZ2       18.7560    6.3790   22.8620 C.ar  102  TRP102      0.0191
     53  CZ3       19.3640    8.6770   22.4430 C.ar  102  TRP102      0.0001
     54  CH2       19.5860    7.4620   23.0610 C.ar  102  TRP102      0.0015
     55  N         14.0470    4.9410   14.6830 N.3   174  HIS174     -0.1241
     56  CA        14.6610    4.0040   15.6090 C.3   174  HIS174      0.1621
     57  C         13.5810    3.1050   16.1880 C.2   174  HIS174      0.2264
     58  O         12.9730    3.4070   17.2110 O.2   174  HIS174     -0.2867
     59  CB        15.4220    4.7140   16.7150 C.3   174  HIS174      0.0745
     60  CG        16.3320    3.8040   17.4580 C.ar  174  HIS174      0.0817
     61  ND1       16.2650    2.4270   17.3500 N.ar  174  HIS174     -0.2268
     62  CD2       17.3750    4.0740   18.2660 C.ar  174  HIS174      0.1154
     63  CE1       17.2370    1.8950   18.0650 C.ar  174  HIS174      0.1986
     64  NE2       17.9160    2.8700   18.6410 N.ar  174  HIS174     -0.2212
     65  N         16.3530   -1.9760   19.3890 N.3   177  ASN177     -0.1240
     66  CA        17.1750   -1.9510   20.5840 C.3   177  ASN177      0.1653
     67  C         16.4170   -1.6130   21.8520 C.2   177  ASN177      0.2266
     68  O         16.9790   -1.0250   22.7730 O.2   177  ASN177     -0.2867
     69  CB        18.3780   -1.0360   20.3890 C.3   177  ASN177      0.1155
     70  CG        19.2430   -1.4700   19.2450 C.2   177  ASN177      0.2627
     71  OD1       19.1680   -2.6220   18.7850 O.2   177  ASN177     -0.2716
     72  ND2       20.0690   -0.5600   18.7640 N.am  177  ASN177     -0.0877
     73  N         13.8930    0.4110   22.4620 N.3   179  TYR179     -0.1241
     74  CA        13.3940    1.7610   22.6700 C.3   179  TYR179      0.1605
     75  C         11.8850    1.8310   22.3480 C.2   179  TYR179      0.2264
     76  O         11.2400    0.7920   22.2470 O.2   179  TYR179     -0.2867
     77  CB        14.3120    2.7730   21.9760 C.3   179  TYR179      0.0534
     78  CG        15.6680    2.7580   22.6270 C.ar  179  TYR179     -0.0201
     79  CD1       15.8330    3.1440   23.9410 C.ar  179  TYR179     -0.0009
     80  CD2       16.7840    2.2950   21.9480 C.ar  179  TYR179     -0.0009
     81  CE1       17.0790    3.1290   24.5460 C.ar  179  TYR179      0.0417
     82  CE2       18.0280    2.2750   22.5490 C.ar  179  TYR179      0.0417
     83  CZ        18.1740    2.6810   23.8370 C.ar  179  TYR179      0.1957
     84  OH        19.4400    2.6540   24.3810 O.3   179  TYR179     -0.2866
     85  N         14.8710    0.9540   11.5730 N.3   226  ARG226     -0.1245
     86  CA        15.6710   -0.0310   12.2760 C.3   226  ARG226      0.1563
     87  C         14.7640   -0.8530   13.1780 C.2   226  ARG226      0.2260
     88  O         13.9150   -0.2950   13.8660 O.2   226  ARG226     -0.2867
     89  CB        16.7740    0.6410   13.1080 C.3   226  ARG226      0.0307
     90  CG        17.9790   -0.2840   13.2740 C.3   226  ARG226      0.0489
     91  CD        19.1610    0.3720   13.9320 C.3   226  ARG226      0.2205
     92  NE        20.3680   -0.3590   13.5640 N.pl3 226  ARG226     -0.0865
     93  CZ        21.5050   -0.4050   14.2550 C.cat 226  ARG226      0.5346
     94  NH1       21.6140    0.1300   15.4480 N.pl3 226  ARG226      0.1354
     95  NH2       22.5560   -1.0030   13.7390 N.pl3 226  ARG226      0.1354
     96  N         18.4600   -6.0990   24.1570 N.3   233  PHE233     -0.1241
     97  CA        18.8470   -4.8760   24.8500 C.3   233  PHE233      0.1605
     98  C         17.6230   -4.2610   25.4970 C.2   233  PHE233      0.2264
     99  O         16.6340   -3.8580   24.8610 O.2   233  PHE233     -0.2867
    100  CB        19.5610   -3.8760   23.9310 C.3   233  PHE233      0.0534
    101  CG        20.2020   -2.7020   24.6560 C.ar  233  PHE233     -0.0203
    102  CD1       20.9510   -2.8810   25.8130 C.ar  233  PHE233     -0.0042
    103  CD2       20.0880   -1.4160   24.1440 C.ar  233  PHE233     -0.0042
    104  CE1       21.5510   -1.7920   26.4470 C.ar  233  PHE233     -0.0003
    105  CE2       20.6870   -0.3350   24.7770 C.ar  233  PHE233     -0.0003
    106  CZ        21.4100   -0.5250   25.9300 C.ar  233  PHE233     -0.0000
    107  N         24.1380   -6.2870   17.9820 N.3   265  PHE265     -0.1241
    108  CA        25.5650   -6.0110   18.1520 C.3   265  PHE265      0.1605
    109  C         26.4530   -7.0960   17.5450 C.2   265  PHE265      0.2264
    110  O         27.5350   -6.7980   17.0920 O.2   265  PHE265     -0.2867
    111  CB        25.9350   -5.7890   19.6150 C.3   265  PHE265      0.0534
    112  CG        25.7230   -4.3880   20.0950 C.ar  265  PHE265     -0.0203
    113  CD1       24.4440   -3.8230   20.0850 C.ar  265  PHE265     -0.0042
    114  CD2       26.7810   -3.6440   20.5980 C.ar  265  PHE265     -0.0042
    115  CE1       24.2390   -2.5400   20.5600 C.ar  265  PHE265     -0.0003
    116  CE2       26.5610   -2.3780   21.0830 C.ar  265  PHE265     -0.0003
    117  CZ        25.2990   -1.8290   21.0660 C.ar  265  PHE265     -0.0000
@<TRIPOS>BOND
     1    85    86    1
     2    86    89    1
     3    86    87    1
     4    32    33    1
     5    89    90    1
     6     7     1    1
     7     7     6    1
     8    87    88    2
     9    90    91    1
    10     1     2    1
    11    33    36    1
    12    33    34    1
    13    92    91    1
    14    92    93    2
    15    95    93    1
    16    36    37    1
    17     6     5    1
    18    93    94    1
    19     2     5    1
    20     2     3    1
    21    34    35    2
    22    37    38    1
    23    55    56    1
    24    40    38   am
    25    38    39    2
    26    56    57    1
    27    56    59    1
    28     3     4    2
    29    57    58    2
    30    59    60    1
    31   110   109    2
    32    61    60   ar
    33    61    63   ar
    34    60    62   ar
    35   109   108    1
    36    15    16    1
    37    41    42    1
    38    16    17    1
    39    16    19    1
    40   107   108    1
    41    63    64   ar
    42   108   111    1
    43    62    64   ar
    44    17    18    2
    45    72    70   am
    46    71    70    2
    47    42    45    1
    48    42    43    1
    49    70    69    1
    50    65    66    1
    51     8     9    1
    52    45    46    1
    53   111   112    1
    54    43    44    2
    55   113   112   ar
    56   113   115   ar
    57   112   114   ar
    58    69    66    1
    59    46    47   ar
    60    46    48   ar
    61     9    10    1
    62     9    12    1
    63   115   117   ar
    64    66    67    1
    65   114   116   ar
    66    47    49   ar
    67   117   116   ar
    68    13    12    1
    69    10    11    2
    70    48    51   ar
    71    48    50   ar
    72    49    50   ar
    73    51    53   ar
    74    12    14    1
    75    67    68    2
    76    80    82   ar
    77    80    78   ar
    78    77    78    1
    79    77    74    1
    80    50    52   ar
    81    76    75    2
    82    75    74    1
    83    53    54   ar
    84    73    74    1
    85    82    83   ar
    86    78    79   ar
    87    52    54   ar
    88    83    84    1
    89    83    81   ar
    90   100   101    1
    91   100    97    1
    92    79    81   ar
    93   103   101   ar
    94   103   105   ar
    95    96    97    1
    96   101   102   ar
    97   105   106   ar
    98    97    98    1
    99    99    98    2
   100   102   104   ar
   101   106   104   ar
   102    28    26   ar
   103    28    30   ar
   104    26    25   ar
   105    31    30    1
   106    30    29   ar
   107    25    24    1
   108    25    27   ar
   109    24    21    1
   110    23    22    2
   111    29    27   ar
   112    20    21    1
   113    22    21    1
