@<TRIPOS>MOLECULE
tmp/5k1kA05.pdb
 117 114 0 0 0
SMALL
GASTEIGER

@<TRIPOS>ATOM
      1  N         26.7900    4.9570   33.0610 N.3   132  ARG132     -0.1245
      2  CA        27.7510    6.0610   33.0280 C.3   132  ARG132      0.1563
      3  C         27.2400    7.3250   33.7220 C.2   132  ARG132      0.2260
      4  O         27.7780    8.4280   33.5220 O.2   132  ARG132     -0.2867
      5  CB        28.1710    6.3560   31.5770 C.3   132  ARG132      0.0307
      6  CG        28.5840    5.1140   30.7560 C.3   132  ARG132      0.0489
      7  CD        29.1430    5.4980   29.3810 C.3   132  ARG132      0.2205
      8  NE        29.0700    4.3940   28.4170 N.pl3 132  ARG132     -0.0865
      9  CZ        30.0900    3.6120   28.0780 C.cat 132  ARG132      0.5346
     10  NH1       31.2770    3.7960   28.6280 N.pl3 132  ARG132      0.1354
     11  NH2       29.9190    2.6490   27.1770 N.pl3 132  ARG132      0.1354
     12  N         15.0850  -10.0500   20.8680 N.3   231  ALA231     -0.1231
     13  CA        15.1970   -9.2890   22.1140 C.3   231  ALA231      0.1694
     14  C         16.5860   -9.4610   22.7010 C.2   231  ALA231      0.2592
     15  O         17.0680  -10.5860   22.8580 O.2   231  ALA231     -0.2718
     16  CB        14.1700   -9.7920   23.1180 C.3   231  ALA231      0.0304
     17  N         17.2360   -8.3640   23.0570 N.am  232  TYR232     -0.1962
     18  CA        18.5670   -8.4690   23.6770 C.3   232  TYR232      0.1771
     19  C         18.9730   -7.2610   24.4990 C.2   232  TYR232      0.2619
     20  O         19.7660   -7.3990   25.4150 O.2   232  TYR232     -0.2715
     21  CB        19.6450   -8.7460   22.6040 C.3   232  TYR232      0.0574
     22  CG        20.0250   -7.5170   21.7810 C.ar  232  TYR232     -0.0198
     23  CD1       19.1730   -6.9870   20.8280 C.ar  232  TYR232     -0.0009
     24  CD2       21.2590   -6.9250   21.9490 C.ar  232  TYR232     -0.0009
     25  CE1       19.5360   -5.8650   20.1000 C.ar  232  TYR232      0.0417
     26  CE2       21.6290   -5.8060   21.2420 C.ar  232  TYR232      0.0417
     27  CZ        20.7630   -5.2820   20.3170 C.ar  232  TYR232      0.1957
     28  OH        21.1600   -4.1780   19.6110 O.3   232  TYR232     -0.2866
     29  N         18.4600   -6.0990   24.1570 N.am  233  PHE233     -0.1974
     30  CA        18.8470   -4.8760   24.8500 C.3   233  PHE233      0.1639
     31  C         17.6230   -4.2610   25.4970 C.2   233  PHE233      0.2290
     32  O         16.6340   -3.8580   24.8610 O.2   233  PHE233     -0.2864
     33  CB        19.5610   -3.8760   23.9310 C.3   233  PHE233      0.0560
     34  CG        20.2020   -2.7020   24.6560 C.ar  233  PHE233     -0.0200
     35  CD1       20.9510   -2.8810   25.8130 C.ar  233  PHE233     -0.0042
     36  CD2       20.0880   -1.4160   24.1440 C.ar  233  PHE233     -0.0042
     37  CE1       21.5510   -1.7920   26.4470 C.ar  233  PHE233     -0.0003
     38  CE2       20.6870   -0.3350   24.7770 C.ar  233  PHE233     -0.0003
     39  CZ        21.4100   -0.5250   25.9300 C.ar  233  PHE233     -0.0000
     40  N         24.1380   -6.2870   17.9820 N.3   265  PHE265     -0.1241
     41  CA        25.5650   -6.0110   18.1520 C.3   265  PHE265      0.1605
     42  C         26.4530   -7.0960   17.5450 C.2   265  PHE265      0.2264
     43  O         27.5350   -6.7980   17.0920 O.2   265  PHE265     -0.2867
     44  CB        25.9350   -5.7890   19.6150 C.3   265  PHE265      0.0534
     45  CG        25.7230   -4.3880   20.0950 C.ar  265  PHE265     -0.0203
     46  CD1       24.4440   -3.8230   20.0850 C.ar  265  PHE265     -0.0042
     47  CD2       26.7810   -3.6440   20.5980 C.ar  265  PHE265     -0.0042
     48  CE1       24.2390   -2.5400   20.5600 C.ar  265  PHE265     -0.0003
     49  CE2       26.5610   -2.3780   21.0830 C.ar  265  PHE265     -0.0003
     50  CZ        25.2990   -1.8290   21.0660 C.ar  265  PHE265     -0.0000
     51  N         25.0820  -14.1860   16.2370 N.3   269  ILE269     -0.1231
     52  CA        24.2540  -14.8290   17.2600 C.3   269  ILE269      0.1692
     53  C         22.9540  -15.3600   16.6750 C.2   269  ILE269      0.2592
     54  O         22.2720  -14.6590   15.9190 O.2   269  ILE269     -0.2718
     55  CB        23.9340  -13.8140   18.4020 C.3   269  ILE269      0.0266
     56  CG1       25.2130  -13.4850   19.1680 C.3   269  ILE269      0.0019
     57  CG2       22.8530  -14.3520   19.3370 C.3   269  ILE269      0.0020
     58  CD1       25.0970  -12.3270   20.1060 C.3   269  ILE269      0.0001
     59  N         22.6030  -16.5870   17.0170 N.am  270  GLU270     -0.1966
     60  CA        21.3330  -17.1590   16.6030 C.3   270  GLU270      0.1733
     61  C         20.2740  -16.9890   17.6890 C.2   270  GLU270      0.2616
     62  O         20.5540  -17.1450   18.8770 O.2   270  GLU270     -0.2715
     63  CB        21.5200  -18.6290   16.2320 C.3   270  GLU270      0.0429
     64  CG        22.4260  -18.8240   15.0420 C.3   270  GLU270      0.1163
     65  CD        22.7850  -20.2790   14.7890 C.2   270  GLU270      0.3649
     66  OE1       22.4860  -21.1330   15.6480 O.co2 270  GLU270     -0.2457
     67  OE2       23.3790  -20.5540   13.7280 O.co2 270  GLU270     -0.2457
     68  N         19.0560  -16.6540   17.2680 N.am  271  PHE271     -0.1974
     69  CA        17.8850  -16.5750   18.1420 C.3   271  PHE271      0.1639
     70  C         16.9660  -17.7510   17.8050 C.2   271  PHE271      0.2290
     71  O         16.4750  -17.8560   16.6740 O.2   271  PHE271     -0.2864
     72  CB        17.1030  -15.2760   17.8990 C.3   271  PHE271      0.0560
     73  CG        17.8370  -14.0140   18.2840 C.ar  271  PHE271     -0.0200
     74  CD1       18.6960  -13.3850   17.3940 C.ar  271  PHE271     -0.0042
     75  CD2       17.6230  -13.4460   19.5310 C.ar  271  PHE271     -0.0042
     76  CE1       19.3380  -12.2200   17.7360 C.ar  271  PHE271     -0.0003
     77  CE2       18.2610  -12.2870   19.9020 C.ar  271  PHE271     -0.0003
     78  CZ        19.1330  -11.6620   19.0050 C.ar  271  PHE271     -0.0000
     79  N         31.3580    0.2370   15.6890 N.3   317  ARG317     -0.1245
     80  CA        32.5770    0.3920   16.4570 C.3   317  ARG317      0.1563
     81  C         33.8490    0.6450   15.6170 C.2   317  ARG317      0.2260
     82  O         34.6440    1.5150   15.9690 O.2   317  ARG317     -0.2867
     83  CB        32.7040   -0.7810   17.4150 C.3   317  ARG317      0.0307
     84  CG        31.7310   -0.6570   18.5900 C.3   317  ARG317      0.0489
     85  CD        31.5230   -1.9460   19.3770 C.3   317  ARG317      0.2205
     86  NE        30.7890   -2.9290   18.5900 N.pl3 317  ARG317     -0.0865
     87  CZ        30.4420   -4.1280   19.0520 C.cat 317  ARG317      0.5346
     88  NH1       30.7370   -4.4720   20.2910 N.pl3 317  ARG317      0.1354
     89  NH2       29.7690   -4.9650   18.2970 N.pl3 317  ARG317      0.1354
     90  N         38.4540   -1.5090   18.0220 N.3   338  TYR338     -0.1241
     91  CA        37.7420   -0.6600   18.9570 C.3   338  TYR338      0.1605
     92  C         37.8810   -1.1130   20.3930 C.2   338  TYR338      0.2264
     93  O         37.9180   -2.3000   20.6850 O.2   338  TYR338     -0.2867
     94  CB        36.2680   -0.7020   18.6030 C.3   338  TYR338      0.0534
     95  CG        35.3430   -0.0470   19.6030 C.ar  338  TYR338     -0.0201
     96  CD1       35.0630    1.3030   19.5290 C.ar  338  TYR338     -0.0009
     97  CD2       34.7010   -0.7940   20.5920 C.ar  338  TYR338     -0.0009
     98  CE1       34.1930    1.8960   20.4180 C.ar  338  TYR338      0.0417
     99  CE2       33.8290   -0.2010   21.4860 C.ar  338  TYR338      0.0417
    100  CZ        33.5810    1.1530   21.3950 C.ar  338  TYR338      0.1957
    101  OH        32.6880    1.7940   22.2270 O.3   338  TYR338     -0.2866
    102  N         36.1750    0.3310   24.3030 N.3   340  ASP340     -0.1239
    103  CA        35.1720    1.1960   24.8910 C.3   340  ASP340      0.1674
    104  C         35.7920    2.5030   25.3770 C.2   340  ASP340      0.2266
    105  O         35.1130    3.5020   25.4390 O.2   340  ASP340     -0.2867
    106  CB        34.4410    0.4710   26.0400 C.3   340  ASP340      0.1410
    107  CG        33.2960    1.2940   26.6360 C.2   340  ASP340      0.3668
    108  OD1       32.1700    1.2600   26.0880 O.co2 340  ASP340     -0.2456
    109  OD2       33.5080    1.9460   27.6760 O.co2 340  ASP340     -0.2456
    110  N         35.3420    5.9210   23.5340 N.3   343  LEU343     -0.1245
    111  CA        34.1560    6.7570   23.6480 C.3   343  LEU343      0.1561
    112  C         34.4280    8.0540   24.3870 C.2   343  LEU343      0.2260
    113  O         33.6200    8.9830   24.2960 O.2   343  LEU343     -0.2867
    114  CB        32.9960    6.0100   24.3090 C.3   343  LEU343      0.0270
    115  CG        32.5130    4.7910   23.5250 C.3   343  LEU343      0.0019
    116  CD1       31.4720    4.0540   24.3250 C.3   343  LEU343      0.0001
    117  CD2       31.9930    5.1870   22.1600 C.3   343  LEU343      0.0001
@<TRIPOS>BOND
     1    67    65   ar
     2    65    64    1
     3    65    66   ar
     4    64    63    1
     5    81    82    2
     6    81    80    1
     7    79    80    1
     8    54    53    2
     9    63    60    1
    10    51    52    1
    11    80    83    1
    12    60    59    1
    13    60    61    1
    14    71    70    2
    15    53    59   am
    16    53    52    1
    17    43    42    2
    18    52    55    1
    19    68    61   am
    20    68    69    1
    21    74    76   ar
    22    74    73   ar
    23    83    84    1
    24    42    41    1
    25    61    62    2
    26    76    78   ar
    27    70    69    1
    28    72    69    1
    29    72    73    1
    30    40    41    1
    31    90    91    1
    32    41    44    1
    33    73    75   ar
    34    89    87    1
    35    55    56    1
    36    55    57    1
    37    84    85    1
    38    86    87    2
    39    86    85    1
    40    94    91    1
    41    94    95    1
    42    91    92    1
    43    78    77   ar
    44    87    88    1
    45    56    58    1
    46    96    95   ar
    47    96    98   ar
    48    75    77   ar
    49    95    97   ar
    50    28    27    1
    51    44    45    1
    52    46    45   ar
    53    46    48   ar
    54    45    47   ar
    55    25    27   ar
    56    25    23   ar
    57    27    26   ar
    58    92    93    2
    59    98   100   ar
    60    48    50   ar
    61    97    99   ar
    62    47    49   ar
    63    23    22   ar
    64    12    13    1
    65    50    49   ar
    66    26    24   ar
    67   100    99   ar
    68   100   101    1
    69    22    24   ar
    70    22    21    1
    71    13    14    1
    72    13    16    1
    73   117   115    1
    74    21    18    1
    75    14    15    2
    76    14    17   am
    77    17    18    1
    78   115   114    1
    79   115   116    1
    80   110   111    1
    81   111   114    1
    82   111   112    1
    83    18    19    1
    84    33    34    1
    85    33    30    1
    86    36    34   ar
    87    36    38   ar
    88    29    19   am
    89    29    30    1
    90   113   112    2
    91   102   103    1
    92    19    20    2
    93    34    35   ar
    94    38    39   ar
    95    30    31    1
    96    32    31    2
    97   103   104    1
    98   103   106    1
    99   104   105    2
   100    35    37   ar
   101    39    37   ar
   102   106   107    1
   103   108   107   ar
   104   107   109   ar
   105    11     9    1
   106     9     8    2
   107     9    10    1
   108     8     7    1
   109     7     6    1
   110     6     5    1
   111     5     2    1
   112     2     1    1
   113     2     3    1
   114     4     3    2
