@<TRIPOS>MOLECULE
tmp/5k1lA01.pdb
 109 108 0 0 0
SMALL
GASTEIGER

@<TRIPOS>ATOM
      1  N          5.1530    4.1860   19.8470 N.3    21  PHE21      -0.1241
      2  CA         6.0640    3.8610   18.7550 C.3    21  PHE21       0.1605
      3  C          6.8750    5.0890   18.2720 C.2    21  PHE21       0.2264
      4  O          8.0970    5.0080   18.0420 O.2    21  PHE21      -0.2867
      5  CB         5.3230    3.1960   17.5900 C.3    21  PHE21       0.0534
      6  CG         6.2260    2.7270   16.4450 C.ar   21  PHE21      -0.0203
      7  CD1        7.5020    2.1900   16.6310 C.ar   21  PHE21      -0.0042
      8  CD2        5.7880    2.8820   15.0990 C.ar   21  PHE21      -0.0042
      9  CE1        8.2420    1.7150   15.5510 C.ar   21  PHE21      -0.0003
     10  CE2        6.5130    2.3790   14.0320 C.ar   21  PHE21      -0.0003
     11  CZ         7.7360    1.8120   14.2700 C.ar   21  PHE21      -0.0000
     12  N          9.6520    5.6950   20.7620 N.3    24  PHE24      -0.1241
     13  CA        10.7300    4.7500   20.4390 C.3    24  PHE24       0.1605
     14  C         11.6120    5.2350   19.2720 C.2    24  PHE24       0.2264
     15  O         12.8440    5.2880   19.3820 O.2    24  PHE24      -0.2867
     16  CB        10.1360    3.3450   20.1640 C.3    24  PHE24       0.0534
     17  CG        11.0790    2.3490   19.5560 C.ar   24  PHE24      -0.0203
     18  CD1       12.1970    1.8880   20.2340 C.ar   24  PHE24      -0.0042
     19  CD2       10.8720    1.8660   18.2460 C.ar   24  PHE24      -0.0042
     20  CE1       13.0610    0.9400   19.6770 C.ar   24  PHE24      -0.0003
     21  CE2       11.7380    0.9220   17.6890 C.ar   24  PHE24      -0.0003
     22  CZ        12.8330    0.4380   18.4190 C.ar   24  PHE24      -0.0000
     23  N         12.7870    0.3240    9.4550 N.3    35  PHE35      -0.1241
     24  CA        11.5060    0.9260    9.0830 C.3    35  PHE35       0.1605
     25  C         11.7800    2.0300    8.0310 C.2    35  PHE35       0.2264
     26  O         11.4420    3.2280    8.2210 O.2    35  PHE35      -0.2867
     27  CB        10.7950    1.5400   10.3070 C.3    35  PHE35       0.0534
     28  CG        10.4400    0.5630   11.3860 C.ar   35  PHE35      -0.0203
     29  CD1        9.3280   -0.2770   11.2530 C.ar   35  PHE35      -0.0042
     30  CD2       11.2300    0.4480   12.5180 C.ar   35  PHE35      -0.0042
     31  CE1        8.9940   -1.1820   12.2710 C.ar   35  PHE35      -0.0003
     32  CE2       10.9020   -0.4570   13.5460 C.ar   35  PHE35      -0.0003
     33  CZ         9.7790   -1.2840   13.3990 C.ar   35  PHE35      -0.0000
     34  N          9.5200    5.0000    6.8290 N.3    38  TYR38      -0.1241
     35  CA         9.1800    6.0710    7.7470 C.3    38  TYR38       0.1605
     36  C         10.2560    7.1550    7.8660 C.2    38  TYR38       0.2264
     37  O         10.0760    8.1150    8.6260 O.2    38  TYR38      -0.2867
     38  CB         8.8030    5.4860    9.1340 C.3    38  TYR38       0.0534
     39  CG         7.6820    4.4260    9.1330 C.ar   38  TYR38      -0.0201
     40  CD1        6.6900    4.4090    8.1580 C.ar   38  TYR38      -0.0009
     41  CD2        7.6100    3.4170   10.1250 C.ar   38  TYR38      -0.0009
     42  CE1        5.7000    3.4700    8.1400 C.ar   38  TYR38       0.0417
     43  CE2        6.5980    2.4300   10.0910 C.ar   38  TYR38       0.0417
     44  CZ         5.6600    2.4650    9.0800 C.ar   38  TYR38       0.1957
     45  OH         4.6500    1.5160    9.0010 O.3    38  TYR38      -0.2866
     46  N         -0.4750   -0.8540   10.7520 N.3    55  HIS55      -0.1226
     47  CA         0.4770   -1.8190   11.2560 C.3    55  HIS55       0.1752
     48  C          0.7730   -1.6050   12.7470 C.2    55  HIS55       0.2596
     49  O          0.8000   -2.5700   13.5270 O.2    55  HIS55      -0.2718
     50  CB         1.7890   -1.7890   10.4620 C.3    55  HIS55       0.0759
     51  CG         1.7140   -2.2290    9.0070 C.ar   55  HIS55       0.0818
     52  ND1        0.5710   -2.5690    8.2900 N.ar   55  HIS55      -0.2268
     53  CD2        2.7170   -2.3030    8.1080 C.ar   55  HIS55       0.1154
     54  CE1        0.9030   -2.9380    7.0580 C.ar   55  HIS55       0.1986
     55  NE2        2.2040   -2.8020    6.9310 N.ar   55  HIS55      -0.2212
     56  N          0.9900   -0.3440   13.1810 N.am   56  THR56      -0.1953
     57  CA         1.3230   -0.0890   14.5740 C.3    56  THR56       0.1897
     58  C          0.1470   -0.4760   15.5180 C.2    56  THR56       0.2313
     59  O          0.3710   -1.0510   16.6180 O.2    56  THR56      -0.2863
     60  CB         1.7680    1.3750   14.7930 C.3    56  THR56       0.1794
     61  OG1        2.8390    1.6890   13.8570 O.3    56  THR56      -0.2208
     62  CG2        2.2290    1.6160   16.1510 C.3    56  THR56       0.0378
     63  N          0.3300   -4.3190   15.8510 N.3    59  VAL59      -0.1231
     64  CA         1.4370   -4.6250   16.7540 C.3    59  VAL59       0.1692
     65  C          0.9410   -4.5780   18.2090 C.2    59  VAL59       0.2592
     66  O          1.1760   -5.5230   19.0170 O.2    59  VAL59      -0.2718
     67  CB         2.6260   -3.6500   16.5660 C.3    59  VAL59       0.0266
     68  CG1        3.6700   -3.7190   17.7050 C.3    59  VAL59       0.0020
     69  CG2        3.2870   -3.8490   15.1760 C.3    59  VAL59       0.0020
     70  N          0.2800   -3.4600   18.5900 N.am   60  PHE60      -0.1976
     71  CA        -0.1850   -3.2810   19.9770 C.3    60  PHE60       0.1639
     72  C         -1.3980   -4.1750   20.3230 C.2    60  PHE60       0.2290
     73  O         -1.5200   -4.6110   21.4890 O.2    60  PHE60      -0.2864
     74  CB        -0.3870   -1.7910   20.2930 C.3    60  PHE60       0.0560
     75  CG         0.9290   -1.0830   20.6500 C.ar   60  PHE60      -0.0200
     76  CD1        1.8750   -0.7520   19.6480 C.ar   60  PHE60      -0.0042
     77  CD2        1.2390   -0.7690   21.9800 C.ar   60  PHE60      -0.0042
     78  CE1        3.0920   -0.1750   19.9920 C.ar   60  PHE60      -0.0003
     79  CE2        2.4420   -0.1380   22.2910 C.ar   60  PHE60      -0.0003
     80  CZ         3.3560    0.1630   21.2910 C.ar   60  PHE60      -0.0000
     81  N          9.9010  -10.5460   11.4010 N.3    89  HIS89      -0.1241
     82  CA        10.8710  -10.3450   12.4870 C.3    89  HIS89       0.1621
     83  C         12.2020  -11.0240   12.2460 C.2    89  HIS89       0.2264
     84  O         13.0570  -11.1160   13.1750 O.2    89  HIS89      -0.2867
     85  CB        10.2940  -10.8610   13.8130 C.3    89  HIS89       0.0745
     86  CG         9.2610   -9.9400   14.4220 C.ar   89  HIS89       0.0817
     87  ND1        8.5370  -10.2510   15.5360 N.ar   89  HIS89      -0.2268
     88  CD2        8.8190   -8.7140   14.0320 C.ar   89  HIS89       0.1154
     89  CE1        7.7220   -9.2500   15.8380 C.ar   89  HIS89       0.1986
     90  NE2        7.8800   -8.2930   14.9490 N.ar   89  HIS89      -0.2212
     91  N         14.2320   -5.3100   20.9320 N.3    97  PHE97      -0.1241
     92  CA        13.1400   -5.4110   21.9390 C.3    97  PHE97       0.1605
     93  C         13.4660   -4.6710   23.2150 C.2    97  PHE97       0.2264
     94  O         12.5600   -4.0230   23.7940 O.2    97  PHE97      -0.2867
     95  CB        12.7870   -6.8980   22.2130 C.3    97  PHE97       0.0534
     96  CG        12.1010   -7.5740   21.0480 C.ar   97  PHE97      -0.0203
     97  CD1       12.8350   -7.9980   19.9000 C.ar   97  PHE97      -0.0042
     98  CD2       10.7270   -7.7440   21.0320 C.ar   97  PHE97      -0.0042
     99  CE1       12.1710   -8.5910   18.8200 C.ar   97  PHE97      -0.0003
    100  CE2       10.0650   -8.3440   19.9670 C.ar   97  PHE97      -0.0003
    101  CZ        10.7920   -8.7440   18.8320 C.ar   97  PHE97      -0.0000
    102  N         12.7990   -0.9680   22.5940 N.3   100  LEU100     -0.1245
    103  CA        11.3620   -0.6790   22.5460 C.3   100  LEU100      0.1561
    104  C         10.7520   -0.5310   23.9560 C.2   100  LEU100      0.2260
    105  O         10.0150    0.4310   24.2620 O.2   100  LEU100     -0.2867
    106  CB        10.6330   -1.7510   21.7700 C.3   100  LEU100      0.0270
    107  CG         9.1000   -1.6960   21.8150 C.3   100  LEU100      0.0019
    108  CD1        8.5560   -0.3920   21.2320 C.3   100  LEU100      0.0001
    109  CD2        8.5180   -2.9210   21.1600 C.3   100  LEU100      0.0001
@<TRIPOS>BOND
     1    34    35    1
     2    55    54   ar
     3    55    53   ar
     4    54    52   ar
     5    35    36    1
     6    35    38    1
     7    36    37    2
     8    25    26    2
     9    25    24    1
    10    53    51   ar
    11    42    40   ar
    12    42    44   ar
    13    40    39   ar
    14    52    51   ar
    15    45    44    1
    16    51    50    1
    17    44    43   ar
    18    24    23    1
    19    24    27    1
    20    39    38    1
    21    39    41   ar
    22    43    41   ar
    23    27    28    1
    24    50    47    1
    25    46    47    1
    26    29    28   ar
    27    29    31   ar
    28    47    48    1
    29    28    30   ar
    30    81    82    1
    31    83    82    1
    32    83    84    2
    33    31    33   ar
    34    82    85    1
    35    30    32   ar
    36    48    56   am
    37    48    49    2
    38    56    57    1
    39    33    32   ar
    40    85    86    1
    41    61    60    1
    42    88    86   ar
    43    88    90   ar
    44    10    11   ar
    45    10     8   ar
    46    11     9   ar
    47    86    87   ar
    48    57    60    1
    49    57    58    1
    50    60    62    1
    51    90    89   ar
    52     8     6   ar
    53    69    67    1
    54    58    59    2
    55    87    89   ar
    56     9     7   ar
    57    63    64    1
    58     6     7   ar
    59     6     5    1
    60    67    64    1
    61    67    68    1
    62    64    65    1
    63     5     2    1
    64    21    19   ar
    65    21    22   ar
    66     4     3    2
    67    65    70   am
    68    65    66    2
    69    19    17   ar
    70     3     2    1
    71    22    20   ar
    72    70    71    1
    73     2     1    1
    74    99   101   ar
    75    99    97   ar
    76   101   100   ar
    77    14    15    2
    78    14    13    1
    79    17    16    1
    80    17    18   ar
    81    76    78   ar
    82    76    75   ar
    83    20    18   ar
    84    97    96   ar
    85   100    98   ar
    86    71    74    1
    87    71    72    1
    88    78    80   ar
    89    16    13    1
    90    74    75    1
    91    72    73    2
    92    13    12    1
    93    75    77   ar
    94    91    92    1
    95    98    96   ar
    96    96    95    1
    97   109   107    1
    98   108   107    1
    99    80    79   ar
   100   106   107    1
   101   106   103    1
   102    92    95    1
   103    92    93    1
   104    77    79   ar
   105   103   102    1
   106   103   104    1
   107    93    94    2
   108   104   105    2
