@<TRIPOS>MOLECULE
tmp/5k1mA01.pdb
 116 111 0 0 0
SMALL
GASTEIGER

@<TRIPOS>ATOM
      1  N         25.4050    6.4170   19.4620 N.3    28  THR28      -0.1218
      2  CA        25.2280    7.3810   20.5350 C.3    28  THR28       0.1862
      3  C         26.5780    7.7220   21.1430 C.2    28  THR28       0.2287
      4  O         27.3360    6.8260   21.5080 O.2    28  THR28      -0.2866
      5  CB        24.2910    6.7900   21.6050 C.3    28  THR28       0.1770
      6  OG1       22.9440    6.7780   21.1110 O.3    28  THR28      -0.2211
      7  CG2       24.3320    7.5840   22.8870 C.3    28  THR28       0.0375
      8  N         26.8020   10.9080   23.2630 N.3    30  CYS30      -0.1235
      9  CA        26.5400   11.7370   24.4450 C.3    30  CYS30       0.1677
     10  C         27.4580   12.9630   24.5360 C.2    30  CYS30       0.2270
     11  O         27.9330   13.3090   25.6260 O.2    30  CYS30      -0.2867
     12  CB        26.6380   10.8910   25.7210 C.3    30  CYS30       0.0956
     13  SG        25.4050    9.5520   25.8310 S.3    30  CYS30      -0.0801
     14  N         21.4190    8.2790   17.6170 N.3    59  ALA59      -0.1245
     15  CA        20.0180    8.4320   17.9810 C.3    59  ALA59       0.1562
     16  C         19.7410    9.8570   18.4780 C.2    59  ALA59       0.2260
     17  O         20.4600   10.3920   19.3310 O.2    59  ALA59      -0.2867
     18  CB        19.6300    7.4010   19.0130 C.3    59  ALA59       0.0290
     19  N         19.7210    9.3500   28.2740 N.3    69  TYR69      -0.1241
     20  CA        21.1700    9.3880   28.4700 C.3    69  TYR69       0.1605
     21  C         21.6190   10.8380   28.3760 C.2    69  TYR69       0.2264
     22  O         20.9510   11.6490   27.7440 O.2    69  TYR69      -0.2867
     23  CB        21.8740    8.5440   27.4080 C.3    69  TYR69       0.0534
     24  CG        21.3060    7.1520   27.2800 C.ar   69  TYR69      -0.0201
     25  CD1       21.8010    6.0970   28.0400 C.ar   69  TYR69      -0.0009
     26  CD2       20.2660    6.8940   26.3980 C.ar   69  TYR69      -0.0009
     27  CE1       21.2710    4.8240   27.9250 C.ar   69  TYR69       0.0417
     28  CE2       19.7290    5.6330   26.2740 C.ar   69  TYR69       0.0417
     29  CZ        20.2390    4.6020   27.0260 C.ar   69  TYR69       0.1957
     30  OH        19.6980    3.3540   26.8910 O.3    69  TYR69      -0.2866
     31  N         18.7410    9.5530   12.8750 N.3   101  GLN101     -0.1245
     32  CA        17.9950    8.4640   13.4840 C.3   101  GLN101      0.1566
     33  C         17.0790    9.0520   14.5480 C.2   101  GLN101      0.2260
     34  O         17.5600    9.6260   15.5220 O.2   101  GLN101     -0.2867
     35  CB        18.9210    7.4010   14.0830 C.3   101  GLN101      0.0367
     36  CG        18.1190    6.1900   14.5820 C.3   101  GLN101      0.0905
     37  CD        18.9250    5.1960   15.3840 C.2   101  GLN101      0.2608
     38  OE1       19.5440    5.5380   16.3860 O.2   101  GLN101     -0.2717
     39  NE2       18.8940    3.9400   14.9540 N.am  101  GLN101     -0.0878
     40  N         14.5560    9.1300   17.6450 N.3   103  TRP103     -0.1241
     41  CA        14.5350    8.3310   18.8700 C.3   103  TRP103      0.1605
     42  C         13.4840    8.7690   19.8550 C.2   103  TRP103      0.2264
     43  O         13.3140    9.9590   20.1250 O.2   103  TRP103     -0.2867
     44  CB        15.8490    8.5530   19.5930 C.3   103  TRP103      0.0550
     45  CG        16.3810    7.4840   20.4750 C.ar  103  TRP103      0.0003
     46  CD1       15.9500    6.1900   20.6140 C.ar  103  TRP103      0.0946
     47  CD2       17.5120    7.6220   21.3230 C.ar  103  TRP103      0.0152
     48  NE1       16.7620    5.5150   21.5110 N.ar  103  TRP103     -0.2442
     49  CE2       17.7390    6.3770   21.9430 C.ar  103  TRP103      0.0810
     50  CE3       18.3790    8.6820   21.6010 C.ar  103  TRP103      0.0012
     51  CZ2       18.7850    6.1780   22.8440 C.ar  103  TRP103      0.0191
     52  CZ3       19.4140    8.4780   22.4800 C.ar  103  TRP103      0.0001
     53  CH2       19.6120    7.2400   23.0900 C.ar  103  TRP103      0.0015
     54  N         14.0660    4.9060   14.6830 N.3   175  HIS175     -0.1241
     55  CA        14.6380    3.9480   15.6260 C.3   175  HIS175      0.1621
     56  C         13.5620    3.0280   16.1810 C.2   175  HIS175      0.2264
     57  O         12.9040    3.3450   17.1800 O.2   175  HIS175     -0.2867
     58  CB        15.3940    4.6370   16.7600 C.3   175  HIS175      0.0745
     59  CG        16.3530    3.7310   17.4650 C.ar  175  HIS175      0.0817
     60  ND1       16.2710    2.3580   17.3800 N.ar  175  HIS175     -0.2268
     61  CD2       17.4130    3.9940   18.2650 C.ar  175  HIS175      0.1154
     62  CE1       17.2430    1.8150   18.0910 C.ar  175  HIS175      0.1986
     63  NE2       17.9510    2.7880   18.6400 N.ar  175  HIS175     -0.2212
     64  N         16.0720   -2.2180   19.5150 N.3   178  ASN178     -0.1240
     65  CA        16.8930   -2.1990   20.7200 C.3   178  ASN178      0.1653
     66  C         16.1800   -1.7660   21.9910 C.2   178  ASN178      0.2266
     67  O         16.7660   -1.1250   22.8500 O.2   178  ASN178     -0.2867
     68  CB        18.1350   -1.3430   20.4770 C.3   178  ASN178      0.1155
     69  CG        18.9300   -1.8170   19.2780 C.2   178  ASN178      0.2627
     70  OD1       19.0130   -3.0210   19.0020 O.2   178  ASN178     -0.2716
     71  ND2       19.5100   -0.8810   18.5560 N.am  178  ASN178     -0.0877
     72  N         13.8000    0.3180   22.6020 N.3   180  TYR180     -0.1241
     73  CA        13.3070    1.6780   22.7690 C.3   180  TYR180      0.1605
     74  C         11.8160    1.7770   22.4100 C.2   180  TYR180      0.2264
     75  O         11.1610    0.7470   22.2790 O.2   180  TYR180     -0.2867
     76  CB        14.2210    2.6480   22.0460 C.3   180  TYR180      0.0534
     77  CG        15.6190    2.6220   22.6550 C.ar  180  TYR180     -0.0201
     78  CD1       15.8360    3.0210   23.9710 C.ar  180  TYR180     -0.0009
     79  CD2       16.7170    2.2010   21.9110 C.ar  180  TYR180     -0.0009
     80  CE1       17.1040    3.0010   24.5260 C.ar  180  TYR180      0.0417
     81  CE2       17.9820    2.1790   22.4550 C.ar  180  TYR180      0.0417
     82  CZ        18.1740    2.5810   23.7570 C.ar  180  TYR180      0.1957
     83  OH        19.4430    2.5660   24.3030 O.3   180  TYR180     -0.2866
     84  N         14.9420    0.9780   11.5410 N.3   227  ARG227     -0.1245
     85  CA        15.7650   -0.0110   12.2190 C.3   227  ARG227      0.1563
     86  C         14.9030   -0.8820   13.1140 C.2   227  ARG227      0.2260
     87  O         14.0460   -0.3730   13.8330 O.2   227  ARG227     -0.2867
     88  CB        16.8870    0.6430   13.0290 C.3   227  ARG227      0.0307
     89  CG        18.0350   -0.3270   13.2670 C.3   227  ARG227      0.0489
     90  CD        19.2760    0.3450   13.7640 C.3   227  ARG227      0.2205
     91  NE        20.4640   -0.3890   13.3410 N.pl3 227  ARG227     -0.0865
     92  CZ        21.6020   -0.4470   14.0260 C.cat 227  ARG227      0.5346
     93  NH1       21.7150    0.1480   15.2010 N.pl3 227  ARG227      0.1354
     94  NH2       22.6290   -1.1190   13.5240 N.pl3 227  ARG227      0.1354
     95  N         18.2670   -6.4230   24.5570 N.3   234  PHE234     -0.1241
     96  CA        18.7280   -5.0860   24.9270 C.3   234  PHE234      0.1605
     97  C         17.5750   -4.3810   25.6400 C.2   234  PHE234      0.2264
     98  O         16.6240   -3.9120   24.9940 O.2   234  PHE234     -0.2867
     99  CB        19.2060   -4.2960   23.7040 C.3   234  PHE234      0.0534
    100  CG        20.0900   -3.1270   24.0430 C.ar  234  PHE234     -0.0203
    101  CD1       21.4540   -3.3000   24.2190 C.ar  234  PHE234     -0.0042
    102  CD2       19.5600   -1.8580   24.1880 C.ar  234  PHE234     -0.0042
    103  CE1       22.2700   -2.2250   24.5330 C.ar  234  PHE234     -0.0003
    104  CE2       20.3720   -0.7780   24.5010 C.ar  234  PHE234     -0.0003
    105  CZ        21.7260   -0.9610   24.6730 C.ar  234  PHE234     -0.0000
    106  N         24.2440   -6.6080   17.7000 N.3   266  PHE266     -0.1241
    107  CA        25.6710   -6.4030   17.9110 C.3   266  PHE266      0.1605
    108  C         26.5330   -7.4440   17.2310 C.2   266  PHE266      0.2264
    109  O         27.6350   -7.1370   16.8050 O.2   266  PHE266     -0.2867
    110  CB        25.9900   -6.3510   19.4050 C.3   266  PHE266      0.0534
    111  CG        25.8150   -4.9960   19.9890 C.ar  266  PHE266     -0.0203
    112  CD1       24.5780   -4.5770   20.4410 C.ar  266  PHE266     -0.0042
    113  CD2       26.8770   -4.1170   20.0440 C.ar  266  PHE266     -0.0042
    114  CE1       24.4180   -3.3150   20.9650 C.ar  266  PHE266     -0.0003
    115  CE2       26.7220   -2.8640   20.5690 C.ar  266  PHE266     -0.0003
    116  CZ        25.4980   -2.4590   21.0240 C.ar  266  PHE266     -0.0000
@<TRIPOS>BOND
     1    84    85    1
     2    85    88    1
     3    85    86    1
     4    31    32    1
     5    88    89    1
     6    86    87    2
     7    89    90    1
     8    91    90    1
     9    91    92    2
    10    32    35    1
    11    32    33    1
    12    94    92    1
    13    92    93    1
    14    35    36    1
    15    33    34    2
    16    36    37    1
    17    54    55    1
    18    39    37   am
    19    37    38    2
    20    55    56    1
    21    55    58    1
    22    56    57    2
    23    58    59    1
    24   109   108    2
    25   108   107    1
    26    60    59   ar
    27    60    62   ar
    28    59    61   ar
    29    14    15    1
    30    40    41    1
    31   106   107    1
    32   107   110    1
    33    15    16    1
    34    15    18    1
    35    62    63   ar
    36    61    63   ar
    37    16    17    2
    38    71    69   am
    39    41    44    1
    40    41    42    1
    41    70    69    2
    42    69    68    1
    43   110   111    1
    44     1     2    1
    45    64    65    1
    46    44    45    1
    47    42    43    2
    48   111   113   ar
    49   111   112   ar
    50   113   115   ar
    51   112   114   ar
    52    45    46   ar
    53    45    47   ar
    54    68    65    1
    55     2     3    1
    56     2     5    1
    57   115   116   ar
    58    46    48   ar
    59    65    66    1
    60   114   116   ar
    61     6     5    1
    62     3     4    2
    63    47    50   ar
    64    47    49   ar
    65    48    49   ar
    66    50    52   ar
    67     5     7    1
    68    79    81   ar
    69    79    77   ar
    70    49    51   ar
    71    66    67    2
    72    76    77    1
    73    76    73    1
    74    75    74    2
    75    74    73    1
    76    81    82   ar
    77    52    53   ar
    78    72    73    1
    79    77    78   ar
    80    51    53   ar
    81     8     9    1
    82    99   100    1
    83    99    96    1
    84    82    83    1
    85    82    80   ar
    86    78    80   ar
    87   100   102   ar
    88   100   101   ar
    89   102   104   ar
    90   101   103   ar
    91     9    10    1
    92     9    12    1
    93   104   105   ar
    94   103   105   ar
    95    10    11    2
    96    95    96    1
    97    96    97    1
    98    98    97    2
    99    12    13    1
   100    28    26   ar
   101    28    29   ar
   102    26    24   ar
   103    30    29    1
   104    29    27   ar
   105    24    23    1
   106    24    25   ar
   107    23    20    1
   108    22    21    2
   109    27    25   ar
   110    19    20    1
   111    21    20    1
