@<TRIPOS>MOLECULE
tmp/5k1qA01.pdb
 117 113 0 0 0
SMALL
GASTEIGER

@<TRIPOS>ATOM
      1  N         24.4640    3.9230   13.4160 N.3    25  PRO25      -0.2116
      2  CA        24.1540    4.9570   14.4110 C.3    25  PRO25       0.1372
      3  C         24.8900    4.6480   15.7190 C.2    25  PRO25       0.2244
      4  O         24.8410    3.5140   16.1930 O.2    25  PRO25      -0.2868
      5  CB        22.6400    4.8350   14.5950 C.3    25  PRO25       0.0268
      6  CG        22.3400    3.3840   14.2020 C.3    25  PRO25       0.0207
      7  CD        23.2980    3.0850   13.0790 C.3    25  PRO25       0.0892
      8  N         25.4670    6.4190   19.5150 N.3    27  THR27      -0.1218
      9  CA        25.3010    7.3670   20.5990 C.3    27  THR27       0.1862
     10  C         26.6490    7.6850   21.2250 C.2    27  THR27       0.2287
     11  O         27.3890    6.7680   21.5980 O.2    27  THR27      -0.2866
     12  CB        24.3410    6.7710   21.6450 C.3    27  THR27       0.1770
     13  OG1       23.0190    6.8150   21.1150 O.3    27  THR27      -0.2211
     14  CG2       24.3690    7.5360   22.9580 C.3    27  THR27       0.0375
     15  N         21.4900    8.2650   17.6250 N.3    58  ALA58      -0.1245
     16  CA        20.0860    8.3980   18.0150 C.3    58  ALA58       0.1562
     17  C         19.8220    9.8340   18.5050 C.2    58  ALA58       0.2260
     18  O         20.5480   10.3570   19.3490 O.2    58  ALA58      -0.2867
     19  CB        19.7560    7.3840   19.0750 C.3    58  ALA58       0.0290
     20  N         19.7930    9.3120   28.2500 N.3    68  TYR68      -0.1241
     21  CA        21.2470    9.3320   28.4120 C.3    68  TYR68       0.1605
     22  C         21.7050   10.7930   28.3150 C.2    68  TYR68       0.2264
     23  O         21.0330   11.6080   27.6790 O.2    68  TYR68      -0.2867
     24  CB        21.9090    8.5040   27.3170 C.3    68  TYR68       0.0534
     25  CG        21.3530    7.0960   27.2120 C.ar   68  TYR68      -0.0201
     26  CD1       21.8870    6.0600   27.9620 C.ar   68  TYR68      -0.0009
     27  CD2       20.2880    6.8130   26.3660 C.ar   68  TYR68      -0.0009
     28  CE1       21.3720    4.7630   27.8700 C.ar   68  TYR68       0.0417
     29  CE2       19.7620    5.5390   26.2700 C.ar   68  TYR68       0.0417
     30  CZ        20.3150    4.5110   27.0040 C.ar   68  TYR68       0.1957
     31  OH        19.7840    3.2380   26.9050 O.3    68  TYR68      -0.2866
     32  N         18.8270    9.5430   12.9080 N.3   100  GLN100     -0.1245
     33  CA        18.0910    8.4600   13.5320 C.3   100  GLN100      0.1566
     34  C         17.1600    9.0570   14.5950 C.2   100  GLN100      0.2260
     35  O         17.6370    9.6250   15.5870 O.2   100  GLN100     -0.2867
     36  CB        19.0340    7.4260   14.1510 C.3   100  GLN100      0.0367
     37  CG        18.2390    6.1970   14.5630 C.3   100  GLN100      0.0905
     38  CD        19.0080    5.2130   15.4200 C.2   100  GLN100      0.2608
     39  OE1       19.6130    5.5760   16.4330 O.2   100  GLN100     -0.2717
     40  NE2       18.9570    3.9410   15.0200 N.am  100  GLN100     -0.0878
     41  N         14.6280    9.1630   17.6770 N.3   102  TRP102     -0.1241
     42  CA        14.5890    8.3470   18.8950 C.3   102  TRP102      0.1605
     43  C         13.5490    8.8090   19.8900 C.2   102  TRP102      0.2264
     44  O         13.3850   10.0080   20.1370 O.2   102  TRP102     -0.2867
     45  CB        15.8940    8.5400   19.6270 C.3   102  TRP102      0.0550
     46  CG        16.4190    7.4860   20.4900 C.ar  102  TRP102      0.0003
     47  CD1       15.9880    6.1870   20.6480 C.ar  102  TRP102      0.0946
     48  CD2       17.5510    7.6450   21.3210 C.ar  102  TRP102      0.0152
     49  NE1       16.8230    5.5300   21.5530 N.ar  102  TRP102     -0.2442
     50  CE2       17.7980    6.4080   21.9550 C.ar  102  TRP102      0.0810
     51  CE3       18.4120    8.7210   21.5730 C.ar  102  TRP102      0.0012
     52  CZ2       18.8610    6.2310   22.8510 C.ar  102  TRP102      0.0191
     53  CZ3       19.4650    8.5360   22.4510 C.ar  102  TRP102      0.0001
     54  CH2       19.6940    7.3040   23.0630 C.ar  102  TRP102      0.0015
     55  N         14.0990    4.9940   14.7040 N.3   174  HIS174     -0.1241
     56  CA        14.6750    4.0330   15.6480 C.3   174  HIS174      0.1621
     57  C         13.6010    3.1020   16.2190 C.2   174  HIS174      0.2264
     58  O         12.9740    3.3860   17.2490 O.2   174  HIS174     -0.2867
     59  CB        15.4590    4.7150   16.7800 C.3   174  HIS174      0.0745
     60  CG        16.4050    3.7990   17.4930 C.ar  174  HIS174      0.0817
     61  ND1       16.3080    2.4310   17.4220 N.ar  174  HIS174     -0.2268
     62  CD2       17.4600    4.0560   18.3020 C.ar  174  HIS174      0.1154
     63  CE1       17.2850    1.8780   18.1240 C.ar  174  HIS174      0.1986
     64  NE2       17.9930    2.8480   18.6780 N.ar  174  HIS174     -0.2212
     65  N         16.2890   -2.0550   19.4650 N.3   177  ASN177     -0.1240
     66  CA        17.0380   -2.0700   20.7160 C.3   177  ASN177      0.1653
     67  C         16.2460   -1.6870   21.9510 C.2   177  ASN177      0.2266
     68  O         16.7850   -1.0740   22.8720 O.2   177  ASN177     -0.2867
     69  CB        18.2980   -1.2010   20.6190 C.3   177  ASN177      0.1155
     70  CG        19.2730   -1.6780   19.5460 C.2   177  ASN177      0.2627
     71  OD1       19.3730   -2.8830   19.2320 O.2   177  ASN177     -0.2716
     72  ND2       20.0070   -0.7380   18.9880 N.am  177  ASN177     -0.0877
     73  N         13.8330    0.3640   22.5660 N.3   179  TYR179     -0.1241
     74  CA        13.3280    1.7130   22.7720 C.3   179  TYR179      0.1605
     75  C         11.8340    1.8060   22.4090 C.2   179  TYR179      0.2264
     76  O         11.1820    0.7800   22.2720 O.2   179  TYR179     -0.2867
     77  CB        14.2390    2.7210   22.0870 C.3   179  TYR179      0.0534
     78  CG        15.6400    2.6730   22.6960 C.ar  179  TYR179     -0.0201
     79  CD1       15.8540    3.0330   24.0200 C.ar  179  TYR179     -0.0009
     80  CD2       16.7340    2.2030   21.9580 C.ar  179  TYR179     -0.0009
     81  CE1       17.1320    2.9790   24.5880 C.ar  179  TYR179      0.0417
     82  CE2       18.0220    2.1510   22.5160 C.ar  179  TYR179      0.0417
     83  CZ        18.2030    2.5240   23.8220 C.ar  179  TYR179      0.1957
     84  OH        19.4680    2.4730   24.3700 O.3   179  TYR179     -0.2866
     85  N         14.9520    1.0020   11.5700 N.3   226  ARG226     -0.1245
     86  CA        15.7500    0.0030   12.2730 C.3   226  ARG226      0.1563
     87  C         14.8690   -0.8500   13.1550 C.2   226  ARG226      0.2260
     88  O         14.0010   -0.3250   13.8340 O.2   226  ARG226     -0.2867
     89  CB        16.8780    0.6610   13.1020 C.3   226  ARG226      0.0307
     90  CG        18.0560   -0.2810   13.2260 C.3   226  ARG226      0.0489
     91  CD        19.2630    0.3160   13.8900 C.3   226  ARG226      0.2205
     92  NE        20.4570   -0.4030   13.4560 N.pl3 226  ARG226     -0.0865
     93  CZ        21.6070   -0.4390   14.1230 C.cat 226  ARG226      0.5346
     94  NH1       21.7140    0.1350   15.2980 N.pl3 226  ARG226      0.1354
     95  NH2       22.6440   -1.0810   13.6050 N.pl3 226  ARG226      0.1354
     96  N         18.2400   -6.4600   24.5790 N.3   233  PHE233     -0.1241
     97  CA        18.6950   -5.1290   24.9760 C.3   233  PHE233      0.1605
     98  C         17.5400   -4.4120   25.6820 C.2   233  PHE233      0.2264
     99  O         16.5950   -3.9510   25.0350 O.2   233  PHE233     -0.2867
    100  CB        19.1920   -4.3350   23.7690 C.3   233  PHE233      0.0534
    101  CG        20.0960   -3.1810   24.1230 C.ar  233  PHE233     -0.0203
    102  CD1       21.4320   -3.3880   24.4000 C.ar  233  PHE233     -0.0042
    103  CD2       19.6040   -1.8860   24.1670 C.ar  233  PHE233     -0.0042
    104  CE1       22.2590   -2.3180   24.7170 C.ar  233  PHE233     -0.0003
    105  CE2       20.4300   -0.8140   24.4730 C.ar  233  PHE233     -0.0003
    106  CZ        21.7490   -1.0310   24.7490 C.ar  233  PHE233     -0.0000
    107  N         24.1600   -6.5660   17.7180 N.3   265  PHE265     -0.1241
    108  CA        25.5730   -6.3420   17.9490 C.3   265  PHE265      0.1605
    109  C         26.4590   -7.4140   17.3350 C.2   265  PHE265      0.2264
    110  O         27.5960   -7.1340   17.0110 O.2   265  PHE265     -0.2867
    111  CB        25.8400   -6.2220   19.4500 C.3   265  PHE265      0.0534
    112  CG        25.4570   -4.8890   20.0110 C.ar  265  PHE265     -0.0203
    113  CD1       24.1330   -4.5850   20.2910 C.ar  265  PHE265     -0.0042
    114  CD2       26.4190   -3.9280   20.2260 C.ar  265  PHE265     -0.0042
    115  CE1       23.7870   -3.3410   20.7890 C.ar  265  PHE265     -0.0003
    116  CE2       26.0720   -2.6830   20.7310 C.ar  265  PHE265     -0.0003
    117  CZ        24.7690   -2.3950   21.0060 C.ar  265  PHE265     -0.0000
@<TRIPOS>BOND
     1    85    86    1
     2    86    89    1
     3    86    87    1
     4    32    33    1
     5     7     1    1
     6     7     6    1
     7    89    90    1
     8    87    88    2
     9    90    91    1
    10     1     2    1
    11    92    91    1
    12    92    93    2
    13    33    36    1
    14    33    34    1
    15    95    93    1
    16    93    94    1
    17    36    37    1
    18     6     5    1
    19     2     5    1
    20     2     3    1
    21    37    38    1
    22    34    35    2
    23    55    56    1
    24    40    38   am
    25    38    39    2
    26    56    57    1
    27    56    59    1
    28     3     4    2
    29    57    58    2
    30    59    60    1
    31   110   109    2
    32   109   108    1
    33    61    60   ar
    34    61    63   ar
    35    60    62   ar
    36    15    16    1
    37    41    42    1
    38   107   108    1
    39   108   111    1
    40    16    17    1
    41    16    19    1
    42    63    64   ar
    43    62    64   ar
    44    17    18    2
    45    42    45    1
    46    42    43    1
    47    72    70   am
    48    71    70    2
    49   111   112    1
    50    65    66    1
    51     8     9    1
    52    70    69    1
    53    45    46    1
    54    43    44    2
    55   112   114   ar
    56   112   113   ar
    57   114   116   ar
    58   113   115   ar
    59    46    47   ar
    60    46    48   ar
    61     9    10    1
    62     9    12    1
    63    69    66    1
    64    47    49   ar
    65    66    67    1
    66   116   117   ar
    67   115   117   ar
    68    13    12    1
    69    10    11    2
    70    48    51   ar
    71    48    50   ar
    72    49    50   ar
    73    51    53   ar
    74    12    14    1
    75    67    68    2
    76    50    52   ar
    77    80    82   ar
    78    80    78   ar
    79    77    78    1
    80    77    74    1
    81    76    75    2
    82    75    74    1
    83    53    54   ar
    84    82    83   ar
    85    73    74    1
    86    78    79   ar
    87    52    54   ar
    88   100   101    1
    89   100    97    1
    90    83    84    1
    91    83    81   ar
    92    79    81   ar
    93   101   103   ar
    94   101   102   ar
    95   103   105   ar
    96   102   104   ar
    97   105   106   ar
    98    96    97    1
    99   104   106   ar
   100    97    98    1
   101    99    98    2
   102    29    27   ar
   103    29    30   ar
   104    27    25   ar
   105    31    30    1
   106    30    28   ar
   107    25    24    1
   108    25    26   ar
   109    24    21    1
   110    23    22    2
   111    28    26   ar
   112    20    21    1
   113    22    21    1
