@<TRIPOS>MOLECULE
tmp/5k1vA01.pdb
 84 83 0 0 0
SMALL
GASTEIGER

@<TRIPOS>ATOM
      1  N          3.3650   20.6110   14.9550 N.3    30  HIS30      -0.1227
      2  CA         3.5990   21.0160   16.3420 C.3    30  HIS30       0.1737
      3  C          3.7060   19.7880   17.2230 C.2    30  HIS30       0.2438
      4  O          2.6930   19.2580   17.6770 O.2    30  HIS30      -0.2733
      5  CB         2.4660   21.9260   16.8530 C.3    30  HIS30       0.0758
      6  CG         2.6480   22.4100   18.2620 C.ar   30  HIS30       0.0818
      7  ND1        1.7670   23.2820   18.8630 N.ar   30  HIS30      -0.2268
      8  CD2        3.6030   22.1470   19.1880 C.ar   30  HIS30       0.1154
      9  CE1        2.1710   23.5380   20.0940 C.ar   30  HIS30       0.1986
     10  NE2        3.2820   22.8600   20.3180 N.ar   30  HIS30      -0.2212
     11  N          4.9370   19.3230   17.4550 N.am   31  PRO31      -0.2718
     12  CA         5.1890   18.1440   18.2760 C.3    31  PRO31       0.1535
     13  C          5.5900   18.4940   19.6920 C.2    31  PRO31       0.2599
     14  O          6.3160   19.4680   19.9110 O.2    31  PRO31      -0.2715
     15  CB         6.3450   17.4610   17.5440 C.3    31  PRO31       0.0310
     16  CG         7.0930   18.5600   16.9240 C.3    31  PRO31       0.0237
     17  CD         6.1280   19.7110   16.6840 C.3    31  PRO31       0.0939
     18  N          5.1190   17.6970   20.6420 N.am   32  ASN32      -0.1959
     19  CA         5.4950   17.8410   22.0350 C.3    32  ASN32       0.1819
     20  C          6.3160   16.6420   22.4430 C.2    32  ASN32       0.2621
     21  O          5.8450   15.5240   22.3390 O.2    32  ASN32      -0.2715
     22  CB         4.2630   17.9530   22.9360 C.3    32  ASN32       0.1195
     23  CG         4.5990   18.4980   24.3110 C.2    32  ASN32       0.2630
     24  OD1        5.0660   17.7640   25.1880 O.2    32  ASN32      -0.2716
     25  ND2        4.3590   19.7940   24.5050 N.am   32  ASN32      -0.0877
     26  N          7.5340   16.8840   22.9100 N.am   33  LEU33      -0.1963
     27  CA         8.4520   15.8200   23.2720 C.3    33  LEU33       0.1728
     28  C          8.3530   15.4850   24.7460 C.2    33  LEU33       0.2617
     29  O          9.2380   14.8340   25.3080 O.2    33  LEU33      -0.2715
     30  CB         9.8860   16.2100   22.9240 C.3    33  LEU33       0.0311
     31  CG        10.3080   16.0360   21.4590 C.3    33  LEU33       0.0022
     32  CD1        9.5970   16.9980   20.5110 C.3    33  LEU33       0.0001
     33  CD2       11.8160   16.1780   21.3000 C.3    33  LEU33       0.0001
     34  N          7.2830   15.9420   25.3870 N.am   34  THR34      -0.1937
     35  CA         7.0300   15.5520   26.7730 C.3    34  THR34       0.2028
     36  C          5.8930   14.5700   26.7790 C.2    34  THR34       0.2642
     37  O          5.9750   13.4900   27.3740 O.2    34  THR34      -0.2714
     38  CB         6.6660   16.7430   27.6740 C.3    34  THR34       0.1808
     39  OG1        7.7560   17.6760   27.7170 O.3    34  THR34      -0.2208
     40  CG2        6.3580   16.2550   29.0790 C.3    34  THR34       0.0379
     41  N          4.8260   14.9760   26.1000 N.am   35  SER35      -0.1949
     42  CA         3.6380   14.1560   25.9540 C.3    35  SER35       0.1924
     43  C          3.8540   13.1420   24.8410 C.2    35  SER35       0.2314
     44  O          3.0410   12.2270   24.6500 O.2    35  SER35      -0.2863
     45  CB         2.4140   15.0230   25.6640 C.3    35  SER35       0.2116
     46  OG         2.4410   15.5150   24.3400 O.3    35  SER35      -0.2180
     47  N          8.1090   24.7140   18.6960 N.3   173  ARG173     -0.1231
     48  CA         8.9970   24.0590   19.6530 C.3   173  ARG173      0.1694
     49  C          9.3140   24.8510   20.8970 C.2   173  ARG173      0.2591
     50  O          9.1250   26.0340   20.9630 O.2   173  ARG173     -0.2718
     51  CB        10.3260   23.7110   18.9900 C.3   173  ARG173      0.0321
     52  CG        10.9210   24.8650   18.2420 C.3   173  ARG173      0.0489
     53  CD        12.4390   24.8710   18.1920 C.3   173  ARG173      0.2205
     54  NE        12.8430   26.0840   17.4860 N.pl3 173  ARG173     -0.0865
     55  CZ        13.4850   27.1170   18.0300 C.cat 173  ARG173      0.5346
     56  NH1       13.8580   27.0860   19.3010 N.pl3 173  ARG173      0.1354
     57  NH2       13.7780   28.1760   17.2880 N.pl3 173  ARG173      0.1354
     58  N          9.8410   24.1650   21.8870 N.am  174  GLU174     -0.1979
     59  CA        10.4480   24.8370   23.0070 C.3   174  GLU174      0.1602
     60  C         11.8300   25.2940   22.5710 C.2   174  GLU174      0.2287
     61  O         12.1620   25.2260   21.3970 O.2   174  GLU174     -0.2864
     62  CB        10.5210   23.9110   24.2220 C.3   174  GLU174      0.0415
     63  CG         9.1610   23.4530   24.7380 C.3   174  GLU174      0.1163
     64  CD         9.2910   22.3610   25.7830 C.2   174  GLU174      0.3649
     65  OE1       10.4020   22.2070   26.3470 O.co2 174  GLU174     -0.2457
     66  OE2        8.2920   21.6450   26.0270 O.co2 174  GLU174     -0.2457
     67  N         15.0850   23.0080   22.3280 N.3   177  HIS177     -0.1241
     68  CA        15.1540   22.3740   21.0350 C.3   177  HIS177      0.1621
     69  C         15.5260   23.2950   19.8550 C.2   177  HIS177      0.2264
     70  O         15.3110   24.4990   19.8910 O.2   177  HIS177     -0.2867
     71  CB        13.8180   21.6920   20.7770 C.3   177  HIS177      0.0745
     72  CG        13.4750   20.6480   21.8000 C.ar  177  HIS177      0.0817
     73  ND1       14.4300   19.8610   22.4120 N.ar  177  HIS177     -0.2268
     74  CD2       12.2840   20.2500   22.3060 C.ar  177  HIS177      0.1154
     75  CE1       13.8420   19.0270   23.2480 C.ar  177  HIS177      0.1986
     76  NE2       12.5410   19.2380   23.1980 N.ar  177  HIS177     -0.2212
     77  N          6.4930   29.6750   23.3900 N.3   195  LEU195     -0.1245
     78  CA         7.0360   28.7500   22.4060 C.3   195  LEU195      0.1561
     79  C          7.5650   29.4840   21.1540 C.2   195  LEU195      0.2260
     80  O          7.1820   30.6150   20.8580 O.2   195  LEU195     -0.2867
     81  CB         5.9840   27.6970   22.0160 C.3   195  LEU195      0.0270
     82  CG         5.3880   26.7570   23.0980 C.3   195  LEU195      0.0019
     83  CD1        4.3620   25.7910   22.5190 C.3   195  LEU195      0.0001
     84  CD2        6.4130   25.9710   23.9290 C.3   195  LEU195      0.0001
@<TRIPOS>BOND
     1     1     2    1
     2     2     5    1
     3     2     3    1
     4    17    16    1
     5    17    11    1
     6     5     6    1
     7    16    15    1
     8     3    11   am
     9     3     4    2
    10    57    55    1
    11    11    12    1
    12    54    55    2
    13    54    53    1
    14    15    12    1
    15    55    56    1
    16    53    52    1
    17    52    51    1
    18     6     7   ar
    19     6     8   ar
    20    12    13    1
    21    47    48    1
    22     7     9   ar
    23    51    48    1
    24     8    10   ar
    25    48    49    1
    26    13    14    2
    27    13    18   am
    28    69    70    2
    29    69    68    1
    30     9    10   ar
    31    32    31    1
    32    18    19    1
    33    71    68    1
    34    71    72    1
    35    80    79    2
    36    49    50    2
    37    49    58   am
    38    68    67    1
    39    79    78    1
    40    33    31    1
    41    61    60    2
    42    31    30    1
    43    72    74   ar
    44    72    73   ar
    45    58    59    1
    46    81    78    1
    47    81    82    1
    48    19    20    1
    49    19    22    1
    50    74    76   ar
    51    21    20    2
    52    78    77    1
    53    73    75   ar
    54    20    26   am
    55    83    82    1
    56    60    59    1
    57    26    27    1
    58    30    27    1
    59    22    23    1
    60    59    62    1
    61    82    84    1
    62    76    75   ar
    63    27    28    1
    64    62    63    1
    65    23    25   am
    66    23    24    2
    67    46    45    1
    68    44    43    2
    69    63    64    1
    70    28    29    2
    71    28    34   am
    72    43    42    1
    73    34    35    1
    74    45    42    1
    75    64    66   ar
    76    64    65   ar
    77    42    41    1
    78    41    36   am
    79    35    36    1
    80    35    38    1
    81    36    37    2
    82    38    39    1
    83    38    40    1
