@<TRIPOS>MOLECULE
tmp/5k1vB00.pdb
 85 84 0 0 0
SMALL
GASTEIGER

@<TRIPOS>ATOM
      1  N         32.3960   24.3150   42.4670 N.3    30  HIS30      -0.1227
      2  CA        32.2680   24.2500   41.0140 C.3    30  HIS30       0.1737
      3  C         32.0760   22.8010   40.5470 C.2    30  HIS30       0.2438
      4  O         33.0460   22.0880   40.2390 O.2    30  HIS30      -0.2733
      5  CB        33.4890   24.8470   40.3350 C.3    30  HIS30       0.0758
      6  CG        33.3030   25.0770   38.8720 C.ar   30  HIS30       0.0818
      7  ND1       34.2380   25.7310   38.0960 N.ar   30  HIS30      -0.2268
      8  CD2       32.2840   24.7510   38.0420 C.ar   30  HIS30       0.1154
      9  CE1       33.8040   25.7950   36.8500 C.ar   30  HIS30       0.1986
     10  NE2       32.6240   25.2020   36.7880 N.ar   30  HIS30      -0.2212
     11  N         30.8150   22.3580   40.5120 N.am   31  PRO31      -0.2718
     12  CA        30.5210   21.0180   40.0430 C.3    31  PRO31       0.1535
     13  C         30.2100   21.0230   38.5580 C.2    31  PRO31       0.2599
     14  O         29.7000   22.0080   38.0400 O.2    31  PRO31      -0.2715
     15  CB        29.2900   20.6260   40.8770 C.3    31  PRO31       0.0310
     16  CG        28.6850   21.9270   41.3540 C.3    31  PRO31       0.0237
     17  CD        29.5940   23.0490   40.9580 C.3    31  PRO31       0.0939
     18  N         30.5320   19.9320   37.8830 N.am   32  ASN32      -0.1959
     19  CA        30.0840   19.7180   36.5200 C.3    32  ASN32       0.1819
     20  C         29.2510   18.4430   36.4100 C.2    32  ASN32       0.2621
     21  O         29.7330   17.3480   36.6980 O.2    32  ASN32      -0.2715
     22  CB        31.2560   19.6170   35.5640 C.3    32  ASN32       0.1195
     23  CG        30.8430   19.9160   34.1690 C.2    32  ASN32       0.2630
     24  OD1       30.0960   19.1660   33.5400 O.2    32  ASN32      -0.2716
     25  ND2       31.3100   21.0210   33.6720 N.am   32  ASN32      -0.0877
     26  N         28.0110   18.5790   35.9740 N.am   33  LEU33      -0.1963
     27  CA        27.1140   17.4480   35.9850 C.3    33  LEU33       0.1728
     28  C         27.1450   16.7690   34.6230 C.2    33  LEU33       0.2617
     29  O         26.2130   16.0540   34.2420 O.2    33  LEU33      -0.2715
     30  CB        25.6910   17.8880   36.3510 C.3    33  LEU33       0.0311
     31  CG        25.3390   18.3340   37.7790 C.3    33  LEU33       0.0022
     32  CD1       26.4380   19.1110   38.4950 C.3    33  LEU33       0.0001
     33  CD2       24.0720   19.1580   37.7540 C.3    33  LEU33       0.0001
     34  N         28.2020   17.0200   33.8580 N.am   34  THR34      -0.1937
     35  CA        28.3960   16.2240   32.6610 C.3    34  THR34       0.2028
     36  C         29.6450   15.3960   32.8680 C.2    34  THR34       0.2642
     37  O         29.6250   14.2030   32.6240 O.2    34  THR34      -0.2714
     38  CB        28.4850   17.0610   31.3730 C.3    34  THR34       0.1808
     39  OG1       27.5160   18.1070   31.4270 O.3    34  THR34      -0.2208
     40  CG2       28.1610   16.1810   30.1490 C.3    34  THR34       0.0379
     41  N         30.7180   15.9910   33.3650 N.am   35  SER35      -0.1949
     42  CA        31.8530   15.1520   33.6970 C.3    35  SER35       0.1924
     43  C         31.7220   14.5950   35.1060 C.2    35  SER35       0.2314
     44  O         32.6710   14.0480   35.6490 O.2    35  SER35      -0.2863
     45  CB        33.1660   15.9150   33.5430 C.3    35  SER35       0.2116
     46  OG        33.3180   16.9260   34.5220 O.3    35  SER35      -0.2180
     47  N         29.0070   27.7130   41.2270 N.3   172  ARG172     -0.1231
     48  CA        29.0920   28.0170   39.8030 C.3   172  ARG172      0.1694
     49  C         28.3280   26.9660   39.0040 C.2   172  ARG172      0.2592
     50  O         28.5070   25.7730   39.2290 O.2   172  ARG172     -0.2718
     51  CB        30.5540   28.0920   39.3680 C.3   172  ARG172      0.0321
     52  CG        30.7570   28.4590   37.9050 C.3   172  ARG172      0.0489
     53  CD        32.2250   28.7350   37.6190 C.3   172  ARG172      0.2205
     54  NE        32.6760   29.9490   38.2920 N.pl3 172  ARG172     -0.0865
     55  CZ        33.9310   30.1830   38.6540 C.cat 172  ARG172      0.5346
     56  NH1       34.8700   29.2700   38.4170 N.pl3 172  ARG172      0.1354
     57  NH2       34.2360   31.3270   39.2600 N.pl3 172  ARG172      0.1354
     58  N         27.4780   27.4020   38.0790 N.am  173  ARG173     -0.1966
     59  CA        26.5480   26.4940   37.4190 C.3   173  ARG173      0.1729
     60  C         26.2320   26.8560   35.9870 C.2   173  ARG173      0.2616
     61  O         26.6750   27.8530   35.4820 O.2   173  ARG173     -0.2715
     62  CB        25.2360   26.4530   38.1840 C.3   173  ARG173      0.0348
     63  CG        24.4500   27.7150   38.0210 C.3   173  ARG173      0.0492
     64  CD        23.1070   27.6640   38.7000 C.3   173  ARG173      0.2205
     65  NE        22.5930   29.0140   38.9180 N.pl3 173  ARG173     -0.0865
     66  CZ        21.8130   29.6810   38.0700 C.cat 173  ARG173      0.5346
     67  NH1       21.4350   29.1260   36.9280 N.pl3 173  ARG173      0.1354
     68  NH2       21.4050   30.9110   38.3710 N.pl3 173  ARG173      0.1354
     69  N         25.4250   26.0390   35.3420 N.am  174  GLU174     -0.1977
     70  CA        24.9300   26.3680   34.0240 C.3   174  GLU174      0.1602
     71  C         23.5790   26.9940   34.2060 C.2   174  GLU174      0.2287
     72  O         23.0880   27.0800   35.3170 O.2   174  GLU174     -0.2864
     73  CB        24.8260   25.1380   33.1310 C.3   174  GLU174      0.0415
     74  CG        26.0750   24.2820   33.1290 C.3   174  GLU174      0.1163
     75  CD        25.9700   23.1010   32.1870 C.2   174  GLU174      0.3649
     76  OE1       24.8640   22.8740   31.6670 O.co2 174  GLU174     -0.2457
     77  OE2       26.9850   22.4040   31.9660 O.co2 174  GLU174     -0.2457
     78  N         28.6400   31.0720   31.8400 N.3   195  LEU195     -0.1245
     79  CA        28.1500   30.3650   33.0170 C.3   195  LEU195      0.1561
     80  C         27.7430   31.3140   34.1340 C.2   195  LEU195      0.2260
     81  O         28.2620   32.4230   34.2400 O.2   195  LEU195     -0.2867
     82  CB        29.2090   29.3930   33.5260 C.3   195  LEU195      0.0270
     83  CG        29.5810   28.3430   32.4790 C.3   195  LEU195      0.0019
     84  CD1       30.4080   27.2260   33.1090 C.3   195  LEU195      0.0001
     85  CD2       28.3260   27.8050   31.7660 C.3   195  LEU195      0.0001
@<TRIPOS>BOND
     1    40    38    1
     2    38    39    1
     3    38    35    1
     4    76    75   ar
     5    85    83    1
     6    78    79    1
     7    77    75   ar
     8    75    74    1
     9    83    84    1
    10    83    82    1
    11    37    36    2
    12    35    36    1
    13    35    34    1
    14    36    41   am
    15    79    82    1
    16    79    80    1
    17    74    73    1
    18    73    70    1
    19    41    42    1
    20    24    23    2
    21    45    42    1
    22    45    46    1
    23    25    23   am
    24    42    43    1
    25    34    28   am
    26    70    71    1
    27    70    69    1
    28    80    81    2
    29    23    22    1
    30    71    72    2
    31    29    28    2
    32    28    27    1
    33    43    44    2
    34    69    60   am
    35    61    60    2
    36    22    19    1
    37    26    27    1
    38    26    20   am
    39    27    30    1
    40    60    59    1
    41    30    31    1
    42    20    19    1
    43    20    21    2
    44    19    18    1
    45    10     9   ar
    46    10     8   ar
    47     9     7   ar
    48    67    66    1
    49    59    58    1
    50    59    62    1
    51    53    52    1
    52    53    54    1
    53    33    31    1
    54    31    32    1
    55    18    13   am
    56    52    51    1
    57    63    62    1
    58    63    64    1
    59    14    13    2
    60     8     6   ar
    61    66    68    1
    62    66    65    2
    63    58    49   am
    64     7     6   ar
    65    54    55    2
    66    56    55    1
    67    13    12    1
    68    55    57    1
    69    64    65    1
    70     6     5    1
    71    49    50    2
    72    49    48    1
    73    51    48    1
    74    48    47    1
    75    12    11    1
    76    12    15    1
    77     4     3    2
    78     5     2    1
    79    11     3   am
    80    11    17    1
    81     3     2    1
    82    15    16    1
    83    17    16    1
    84     2     1    1
