@<TRIPOS>MOLECULE
tmp/5k1wA00.pdb
 207 202 0 0 0
SMALL
GASTEIGER

@<TRIPOS>ATOM
      1  N         27.0370    3.1790   11.0820 N.3    31  ALA31      -0.1231
      2  CA        25.9400    2.8000   11.9660 C.3    31  ALA31       0.1679
      3  C         25.6280    3.9480   12.9200 C.2    31  ALA31       0.2434
      4  O         26.4960    4.7620   13.2150 O.2    31  ALA31      -0.2733
      5  CB        26.3170    1.5570   12.7460 C.3    31  ALA31       0.0304
      6  N         24.3830    4.0180   13.4070 N.am   32  PRO32      -0.2718
      7  CA        24.0620    5.0530   14.3920 C.3    32  PRO32       0.1535
      8  C         24.8160    4.7830   15.6960 C.2    32  PRO32       0.2598
      9  O         24.7640    3.6580   16.1990 O.2    32  PRO32      -0.2715
     10  CB        22.5520    4.9040   14.5780 C.3    32  PRO32       0.0310
     11  CG        22.2610    3.4820   14.2000 C.3    32  PRO32       0.0237
     12  CD        23.2340    3.1490   13.1060 C.3    32  PRO32       0.0939
     13  N         25.4850    5.8010   16.2300 N.am   33  LEU33      -0.1964
     14  CA        26.3300    5.6350   17.4140 C.3    33  LEU33       0.1728
     15  C         26.1590    6.8160   18.3600 C.2    33  LEU33       0.2616
     16  O         26.6820    7.9000   18.1140 O.2    33  LEU33      -0.2715
     17  CB        27.8020    5.5110   17.0050 C.3    33  LEU33       0.0311
     18  CG        28.1410    4.3210   16.1000 C.3    33  LEU33       0.0022
     19  CD1       29.4310    4.5880   15.3690 C.3    33  LEU33       0.0001
     20  CD2       28.2440    3.0360   16.9040 C.3    33  LEU33       0.0001
     21  N         25.4030    6.5950   19.4350 N.am   34  THR34      -0.1951
     22  CA        25.2470    7.5580   20.5090 C.3    34  THR34       0.1897
     23  C         26.6000    7.8820   21.1160 C.2    34  THR34       0.2313
     24  O         27.3510    6.9820   21.5030 O.2    34  THR34      -0.2863
     25  CB        24.3030    6.9840   21.5970 C.3    34  THR34       0.1794
     26  OG1       22.9600    6.9550   21.1010 O.3    34  THR34      -0.2208
     27  CG2       24.3350    7.8110   22.8680 C.3    34  THR34       0.0378
     28  N         21.3790    8.3630   17.5940 N.3    65  ALA65      -0.1245
     29  CA        19.9860    8.5080   17.9890 C.3    65  ALA65       0.1562
     30  C         19.7160    9.9350   18.4710 C.2    65  ALA65       0.2260
     31  O         20.4580   10.4840   19.2900 O.2    65  ALA65      -0.2867
     32  CB        19.6410    7.4930   19.0620 C.3    65  ALA65       0.0290
     33  N         18.7080    9.5600   12.8810 N.3   107  GLN107     -0.1245
     34  CA        17.9610    8.4830   13.5080 C.3   107  GLN107      0.1566
     35  C         17.0300    9.0860   14.5610 C.2   107  GLN107      0.2260
     36  O         17.4960    9.6770   15.5360 O.2   107  GLN107     -0.2867
     37  CB        18.8890    7.4370   14.1290 C.3   107  GLN107      0.0367
     38  CG        18.1260    6.1960   14.5600 C.3   107  GLN107      0.0905
     39  CD        18.9190    5.2320   15.4180 C.2   107  GLN107      0.2608
     40  OE1       19.5140    5.6110   16.4300 O.2   107  GLN107     -0.2717
     41  NE2       18.8960    3.9650   15.0410 N.am  107  GLN107     -0.0878
     42  N         14.4610    9.1690   17.5980 N.3   109  TRP109     -0.1241
     43  CA        14.4700    8.3590   18.8110 C.3   109  TRP109      0.1605
     44  C         13.4390    8.7890   19.8190 C.2   109  TRP109      0.2264
     45  O         13.2780    9.9760   20.0900 O.2   109  TRP109     -0.2867
     46  CB        15.8100    8.5740   19.4820 C.3   109  TRP109      0.0550
     47  CG        16.3120    7.5600   20.4630 C.ar  109  TRP109      0.0003
     48  CD1       15.8540    6.2910   20.6950 C.ar  109  TRP109      0.0946
     49  CD2       17.4230    7.7530   21.3370 C.ar  109  TRP109      0.0152
     50  NE1       16.6300    5.6820   21.6630 N.ar  109  TRP109     -0.2442
     51  CE2       17.5970    6.5680   22.0710 C.ar  109  TRP109      0.0810
     52  CE3       18.2920    8.8250   21.5620 C.ar  109  TRP109      0.0012
     53  CZ2       18.6110    6.4200   23.0110 C.ar  109  TRP109      0.0191
     54  CZ3       19.2940    8.6820   22.4920 C.ar  109  TRP109      0.0001
     55  CH2       19.4500    7.4890   23.2070 C.ar  109  TRP109      0.0015
     56  N         14.0160    4.9600   14.6940 N.3   181  HIS181     -0.1241
     57  CA        14.6110    4.0200   15.6390 C.3   181  HIS181      0.1621
     58  C         13.5480    3.0860   16.2260 C.2   181  HIS181      0.2264
     59  O         12.9230    3.3830   17.2440 O.2   181  HIS181     -0.2867
     60  CB        15.3990    4.7270   16.7440 C.3   181  HIS181      0.0745
     61  CG        16.3660    3.8240   17.4500 C.ar  181  HIS181      0.0817
     62  ND1       16.3650    2.4610   17.2680 N.ar  181  HIS181     -0.2268
     63  CD2       17.3560    4.0880   18.3360 C.ar  181  HIS181      0.1154
     64  CE1       17.3270    1.9200   17.9970 C.ar  181  HIS181      0.1986
     65  NE2       17.9390    2.8850   18.6570 N.ar  181  HIS181     -0.2212
     66  N         16.4090   -2.0060   19.4010 N.3   184  ASN184     -0.1240
     67  CA        17.2150   -1.9490   20.6200 C.3   184  ASN184      0.1653
     68  C         16.4490   -1.6080   21.8860 C.2   184  ASN184      0.2266
     69  O         16.9940   -0.9860   22.7880 O.2   184  ASN184     -0.2867
     70  CB        18.3670   -0.9680   20.4350 C.3   184  ASN184      0.1155
     71  CG        19.2940   -1.3780   19.3130 C.2   184  ASN184      0.2627
     72  OD1       19.1870   -2.4910   18.7700 O.2   184  ASN184     -0.2716
     73  ND2       20.2270   -0.5030   18.9730 N.am  184  ASN184     -0.0877
     74  N         13.8910    0.3800   22.4970 N.3   186  TYR186     -0.1241
     75  CA        13.3600    1.7160   22.7240 C.3   186  TYR186      0.1605
     76  C         11.8650    1.7790   22.3480 C.2   186  TYR186      0.2264
     77  O         11.2350    0.7300   22.2060 O.2   186  TYR186     -0.2867
     78  CB        14.2560    2.7380   22.0240 C.3   186  TYR186      0.0534
     79  CG        15.6280    2.7560   22.6700 C.ar  186  TYR186     -0.0201
     80  CD1       15.7940    3.1850   23.9760 C.ar  186  TYR186     -0.0009
     81  CD2       16.7520    2.3070   21.9830 C.ar  186  TYR186     -0.0009
     82  CE1       17.0490    3.1950   24.5820 C.ar  186  TYR186      0.0417
     83  CE2       18.0060    2.3120   22.5750 C.ar  186  TYR186      0.0417
     84  CZ        18.1520    2.7580   23.8720 C.ar  186  TYR186      0.1957
     85  OH        19.4040    2.7670   24.4650 O.3   186  TYR186     -0.2866
     86  N         14.8900    0.9500   11.5790 N.3   233  ARG233     -0.1245
     87  CA        15.6980   -0.0510   12.2650 C.3   233  ARG233      0.1563
     88  C         14.7970   -0.8800   13.1760 C.2   233  ARG233      0.2260
     89  O         13.9390   -0.3370   13.8710 O.2   233  ARG233     -0.2867
     90  CB        16.8210    0.5950   13.0920 C.3   233  ARG233      0.0307
     91  CG        17.9950   -0.3610   13.3060 C.3   233  ARG233      0.0489
     92  CD        19.2100    0.3130   13.9230 C.3   233  ARG233      0.2205
     93  NE        20.4210   -0.3950   13.5270 N.pl3 233  ARG233     -0.0865
     94  CZ        21.5420   -0.4410   14.2400 C.cat 233  ARG233      0.5346
     95  NH1       21.6130    0.1400   15.4240 N.pl3 233  ARG233      0.1354
     96  NH2       22.5950   -1.0900   13.7640 N.pl3 233  ARG233      0.1354
     97  N         21.4120   -4.9840   16.1330 N.3   271  ILE271     -0.1231
     98  CA        22.0200   -6.0930   16.8740 C.3   271  ILE271      0.1692
     99  C         23.5100   -5.7530   17.0010 C.2   271  ILE271      0.2592
    100  O         24.0020   -4.8880   16.2790 O.2   271  ILE271     -0.2718
    101  CB        21.8210   -7.4430   16.1340 C.3   271  ILE271      0.0266
    102  CG1       22.2030   -8.6400   17.0170 C.3   271  ILE271      0.0019
    103  CG2       22.6030   -7.4650   14.8220 C.3   271  ILE271      0.0020
    104  CD1       21.3990   -8.7410   18.3110 C.3   271  ILE271      0.0001
    105  N         24.2340   -6.3980   17.9200 N.am  272  PHE272     -0.1976
    106  CA        25.6600   -6.1120   18.0770 C.3   272  PHE272      0.1639
    107  C         26.5520   -7.1770   17.4350 C.2   272  PHE272      0.2290
    108  O         27.6360   -6.8640   16.9390 O.2   272  PHE272     -0.2864
    109  CB        26.0140   -5.9480   19.5560 C.3   272  PHE272      0.0560
    110  CG        25.8600   -4.5450   20.0630 C.ar  272  PHE272     -0.0200
    111  CD1       24.6050   -3.9550   20.1420 C.ar  272  PHE272     -0.0042
    112  CD2       26.9680   -3.8160   20.4560 C.ar  272  PHE272     -0.0042
    113  CE1       24.4630   -2.6580   20.6170 C.ar  272  PHE272     -0.0003
    114  CE2       26.8360   -2.5270   20.9290 C.ar  272  PHE272     -0.0003
    115  CZ        25.5780   -1.9470   21.0110 C.ar  272  PHE272     -0.0000
    116  N         24.3070   -5.5910   10.0270 N.3   300  VAL300     -0.1231
    117  CA        25.1960   -4.9610   10.9950 C.3   300  VAL300      0.1692
    118  C         25.5360   -5.9390   12.1080 C.2   300  VAL300      0.2593
    119  O         24.8020   -6.8930   12.3430 O.2   300  VAL300     -0.2718
    120  CB        24.5280   -3.7210   11.6510 C.3   300  VAL300      0.0266
    121  CG1       23.4280   -4.1560   12.6180 C.3   300  VAL300      0.0020
    122  CG2       25.5580   -2.8580   12.3750 C.3   300  VAL300      0.0020
    123  N         26.6360   -5.6850   12.8090 N.am  301  GLY301     -0.1942
    124  CA        26.9280   -6.3980   14.0370 C.3   301  GLY301      0.2014
    125  C         28.1280   -7.3130   13.9360 C.2   301  GLY301      0.2640
    126  O         28.0000   -8.4790   13.5790 O.2   301  GLY301     -0.2714
    127  N         29.2930   -6.7600   14.2330 N.am  302  SER302     -0.1935
    128  CA        30.5290   -7.5290   14.3650 C.3   302  SER302      0.2055
    129  C         31.0510   -8.0480   13.0330 C.2   302  SER302      0.2643
    130  O         31.8190   -9.0200   12.9910 O.2   302  SER302     -0.2714
    131  CB        30.3400   -8.6850   15.3510 C.3   302  SER302      0.2130
    132  OG        30.0260   -8.1970   16.6440 O.3   302  SER302     -0.2179
    133  N         30.6470   -7.3960   11.9470 N.am  303  TYR303     -0.1973
    134  CA        31.1660   -7.7270   10.6240 C.3   303  TYR303      0.1639
    135  C         32.4980   -7.0380   10.3620 C.2   303  TYR303      0.2290
    136  O         32.6920   -5.8840   10.7250 O.2   303  TYR303     -0.2864
    137  CB        30.1710   -7.3190    9.5390 C.3   303  TYR303      0.0560
    138  CG        28.9880   -8.2470    9.4390 C.ar  303  TYR303     -0.0198
    139  CD1       29.0790   -9.4440    8.7420 C.ar  303  TYR303     -0.0009
    140  CD2       27.7810   -7.9420   10.0580 C.ar  303  TYR303     -0.0009
    141  CE1       28.0030  -10.3110    8.6620 C.ar  303  TYR303      0.0417
    142  CE2       26.7060   -8.7970    9.9840 C.ar  303  TYR303      0.0417
    143  CZ        26.8150   -9.9800    9.2820 C.ar  303  TYR303      0.1957
    144  OH        25.7420  -10.8450    9.2140 O.3   303  TYR303     -0.2866
    145  N         26.2320   -1.7490    7.6030 N.3   321  ALA321     -0.1231
    146  CA        26.4930   -0.7120    8.5830 C.3   321  ALA321      0.1694
    147  C         27.6630   -1.1420    9.4460 C.2   321  ALA321      0.2592
    148  O         27.7520   -2.2900    9.8330 O.2   321  ALA321     -0.2718
    149  CB        25.2730   -0.4670    9.4350 C.3   321  ALA321      0.0304
    150  N         28.5460   -0.1970    9.7240 N.am  322  ILE322     -0.1966
    151  CA        29.7420   -0.4410   10.5080 C.3   322  ILE322      0.1727
    152  C         29.7170    0.5490   11.6570 C.2   322  ILE322      0.2617
    153  O         29.5590    1.7490   11.4430 O.2   322  ILE322     -0.2715
    154  CB        31.0010   -0.2070    9.6490 C.3   322  ILE322      0.0290
    155  CG1       31.0730   -1.2250    8.5070 C.3   322  ILE322      0.0022
    156  CG2       32.2560   -0.2490   10.5000 C.3   322  ILE322      0.0023
    157  CD1       31.2940   -2.6690    8.9540 C.3   322  ILE322      0.0001
    158  N         29.8670    0.0440   12.8760 N.am  323  GLY323     -0.1940
    159  CA        29.7530    0.8770   14.0540 C.3   323  GLY323      0.2014
    160  C         31.0910    1.1160   14.7090 C.2   323  GLY323      0.2639
    161  O         31.7670    2.1010   14.4370 O.2   323  GLY323     -0.2714
    162  N         31.4800    0.1930   15.5750 N.am  324  ARG324     -0.1963
    163  CA        32.6500    0.4020   16.4020 C.3   324  ARG324      0.1714
    164  C         33.9270    0.6410   15.5880 C.2   324  ARG324      0.2458
    165  O         34.7590    1.4530   15.9900 O.2   324  ARG324     -0.2730
    166  CB        32.8030   -0.7590   17.3830 C.3   324  ARG324      0.0347
    167  CG        31.7840   -0.6980   18.5230 C.3   324  ARG324      0.0492
    168  CD        31.6560   -2.0090   19.2750 C.3   324  ARG324      0.2205
    169  NE        30.9000   -2.9900   18.5140 N.pl3 324  ARG324     -0.0865
    170  CZ        30.5520   -4.1880   18.9700 C.cat 324  ARG324      0.5346
    171  NH1       30.8790   -4.5560   20.2050 N.pl3 324  ARG324      0.1354
    172  NH2       29.8560   -5.0090   18.1960 N.pl3 324  ARG324      0.1354
    173  N         34.0960   -0.0610   14.4560 N.am  325  PRO325     -0.2727
    174  CA        35.3080    0.2450   13.6780 C.3   325  PRO325      0.1402
    175  C         35.3400    1.6720   13.1270 C.2   325  PRO325      0.2269
    176  O         36.4320    2.1780   12.8540 O.2   325  PRO325     -0.2865
    177  CB        35.2610   -0.7730   12.5340 C.3   325  PRO325      0.0296
    178  CG        34.4550   -1.9100   13.0720 C.3   325  PRO325      0.0237
    179  CD        33.3880   -1.2380   13.9200 C.3   325  PRO325      0.0939
    180  N         34.3090    4.2160   14.8620 N.3   327  ILE327     -0.1245
    181  CA        34.7860    5.0180   15.9830 C.3   327  ILE327      0.1561
    182  C         36.3210    4.9390   16.0370 C.2   327  ILE327      0.2260
    183  O         37.0000    5.9580   16.1530 O.2   327  ILE327     -0.2867
    184  CB        34.1770    4.5660   17.3290 C.3   327  ILE327      0.0252
    185  CG1       32.6870    4.9320   17.3810 C.3   327  ILE327      0.0019
    186  CG2       34.9330    5.2160   18.4960 C.3   327  ILE327      0.0019
    187  CD1       31.9390    4.3180   18.5610 C.3   327  ILE327      0.0001
    188  N         38.5050   -1.5520   18.0100 N.3   345  TYR345     -0.1241
    189  CA        37.7660   -0.6800   18.9110 C.3   345  TYR345      0.1605
    190  C         37.9600   -1.0620   20.3650 C.2   345  TYR345      0.2264
    191  O         38.0260   -2.2440   20.7160 O.2   345  TYR345     -0.2867
    192  CB        36.2830   -0.7460   18.5780 C.3   345  TYR345      0.0534
    193  CG        35.3730   -0.0940   19.5910 C.ar  345  TYR345     -0.0201
    194  CD1       35.1510    1.2740   19.5660 C.ar  345  TYR345     -0.0009
    195  CD2       34.7110   -0.8460   20.5550 C.ar  345  TYR345     -0.0009
    196  CE1       34.3080    1.8770   20.4690 C.ar  345  TYR345      0.0417
    197  CE2       33.8550   -0.2490   21.4640 C.ar  345  TYR345      0.0417
    198  CZ        33.6560    1.1150   21.4120 C.ar  345  TYR345      0.1957
    199  OH        32.8080    1.7430   22.2930 O.3   345  TYR345     -0.2866
    200  N         35.4180    5.8960   23.6140 N.3   350  LEU350     -0.1245
    201  CA        34.1950    6.6900   23.7040 C.3   350  LEU350      0.1561
    202  C         34.4110    8.0120   24.4360 C.2   350  LEU350      0.2260
    203  O         33.6050    8.9260   24.3030 O.2   350  LEU350     -0.2867
    204  CB        33.0670    5.8980   24.3770 C.3   350  LEU350      0.0270
    205  CG        32.5710    4.6630   23.6170 C.3   350  LEU350      0.0019
    206  CD1       31.4730    3.9510   24.3910 C.3   350  LEU350      0.0001
    207  CD2       32.0810    5.0570   22.2410 C.3   350  LEU350      0.0001
@<TRIPOS>BOND
     1   145   146    1
     2   155   157    1
     3   155   154    1
     4   146   149    1
     5   146   147    1
     6   141   139   ar
     7   141   143   ar
     8   139   138   ar
     9   144   143    1
    10   143   142   ar
    11   138   137    1
    12   138   140   ar
    13   147   150   am
    14   147   148    2
    15   137   134    1
    16   154   156    1
    17   154   151    1
    18   150   151    1
    19   142   140   ar
    20   116   117    1
    21   135   134    1
    22   135   136    2
    23   151   152    1
    24   134   133    1
    25   117   120    1
    26   117   118    1
    27     1     2    1
    28   153   152    2
    29    86    87    1
    30   120   122    1
    31   120   121    1
    32   152   158   am
    33   133   129   am
    34     2     5    1
    35     2     3    1
    36   118   119    2
    37   118   123   am
    38    87    90    1
    39    87    88    1
    40   177   178    1
    41   177   174    1
    42   123   124    1
    43   176   175    2
    44   158   159    1
    45    33    34    1
    46     3     4    2
    47     3     6   am
    48   130   129    2
    49   129   128    1
    50   178   179    1
    51    90    91    1
    52    12     6    1
    53    12    11    1
    54   175   174    1
    55    88    89    2
    56    91    92    1
    57     6     7    1
    58    34    37    1
    59    34    35    1
    60    93    92    1
    61    93    94    2
    62   126   125    2
    63   174   173    1
    64    96    94    1
    65   179   173    1
    66   125   124    1
    67   125   127   am
    68   159   160    1
    69    37    38    1
    70    11    10    1
    71   127   128    1
    72    94    95    1
    73   128   131    1
    74     7    10    1
    75     7     8    1
    76   161   160    2
    77   173   164   am
    78    38    39    1
    79    35    36    2
    80    56    57    1
    81   160   162   am
    82   103   101    1
    83   180   181    1
    84    41    39   am
    85   131   132    1
    86    19    18    1
    87    39    40    2
    88   162   163    1
    89   164   165    2
    90   164   163    1
    91    57    58    1
    92    57    60    1
    93     8     9    2
    94     8    13   am
    95   181   182    1
    96   181   184    1
    97   182   183    2
    98    18    20    1
    99    18    17    1
   100    97    98    1
   101   101    98    1
   102   101   102    1
   103    58    59    2
   104    13    14    1
   105   100    99    2
   106   163   166    1
   107    60    61    1
   108    98    99    1
   109   108   107    2
   110    99   105   am
   111    17    14    1
   112   102   104    1
   113    62    61   ar
   114    62    64   ar
   115   184   185    1
   116   184   186    1
   117   185   187    1
   118   166   167    1
   119    14    15    1
   120   107   106    1
   121    61    63   ar
   122    28    29    1
   123    42    43    1
   124   105   106    1
   125    29    30    1
   126    29    32    1
   127    64    65   ar
   128   188   189    1
   129   106   109    1
   130    16    15    2
   131   172   170    1
   132    63    65   ar
   133    15    21   am
   134    30    31    2
   135   169   170    2
   136   169   168    1
   137   167   168    1
   138   192   189    1
   139   192   193    1
   140    72    71    2
   141    43    46    1
   142    43    44    1
   143   189   190    1
   144   170   171    1
   145    73    71   am
   146    71    70    1
   147    66    67    1
   148    21    22    1
   149    46    47    1
   150   109   110    1
   151   194   193   ar
   152   194   196   ar
   153   193   195   ar
   154    44    45    2
   155   110   111   ar
   156   110   112   ar
   157   111   113   ar
   158   190   191    2
   159    70    67    1
   160   112   114   ar
   161    47    48   ar
   162    47    49   ar
   163   196   198   ar
   164    22    23    1
   165    22    25    1
   166   195   197   ar
   167   113   115   ar
   168    67    68    1
   169    48    50   ar
   170   114   115   ar
   171    26    25    1
   172    23    24    2
   173    49    52   ar
   174    49    51   ar
   175   198   197   ar
   176   198   199    1
   177    52    54   ar
   178    25    27    1
   179    50    51   ar
   180    68    69    2
   181    81    83   ar
   182    81    79   ar
   183    78    79    1
   184    78    75    1
   185    51    53   ar
   186    77    76    2
   187   207   205    1
   188    76    75    1
   189    54    55   ar
   190    74    75    1
   191    83    84   ar
   192    79    80   ar
   193    53    55   ar
   194   200   201    1
   195   205   204    1
   196   205   206    1
   197   201   204    1
   198   201   202    1
   199    84    85    1
   200    84    82   ar
   201    80    82   ar
   202   203   202    2
