@<TRIPOS>MOLECULE
tmp/5k1wA01.pdb
 123 118 0 0 0
SMALL
GASTEIGER

@<TRIPOS>ATOM
      1  N         25.4030    6.5950   19.4350 N.3    34  THR34      -0.1218
      2  CA        25.2470    7.5580   20.5090 C.3    34  THR34       0.1862
      3  C         26.6000    7.8820   21.1160 C.2    34  THR34       0.2287
      4  O         27.3510    6.9820   21.5030 O.2    34  THR34      -0.2866
      5  CB        24.3030    6.9840   21.5970 C.3    34  THR34       0.1770
      6  OG1       22.9600    6.9550   21.1010 O.3    34  THR34      -0.2211
      7  CG2       24.3350    7.8110   22.8680 C.3    34  THR34       0.0375
      8  N         26.8470   11.0350   23.2060 N.3    36  CYS36      -0.1235
      9  CA        26.5710   11.8480   24.3950 C.3    36  CYS36       0.1677
     10  C         27.4560   13.0930   24.5010 C.2    36  CYS36       0.2270
     11  O         27.9840   13.3970   25.5810 O.2    36  CYS36      -0.2867
     12  CB        26.7340   11.0060   25.6620 C.3    36  CYS36       0.0956
     13  SG        25.5420    9.6640   25.8220 S.3    36  CYS36      -0.0801
     14  N         21.3790    8.3630   17.5940 N.3    65  ALA65      -0.1245
     15  CA        19.9860    8.5080   17.9890 C.3    65  ALA65       0.1562
     16  C         19.7160    9.9350   18.4710 C.2    65  ALA65       0.2260
     17  O         20.4580   10.4840   19.2900 O.2    65  ALA65      -0.2867
     18  CB        19.6410    7.4930   19.0620 C.3    65  ALA65       0.0290
     19  N         19.7030    9.4960   28.3550 N.3    75  TYR75      -0.1241
     20  CA        21.1520    9.5410   28.5390 C.3    75  TYR75       0.1605
     21  C         21.6140   10.9840   28.4030 C.2    75  TYR75       0.2264
     22  O         20.9350   11.8090   27.7870 O.2    75  TYR75      -0.2867
     23  CB        21.8530    8.6660   27.5000 C.3    75  TYR75       0.0534
     24  CG        21.2830    7.2770   27.3670 C.ar   75  TYR75      -0.0201
     25  CD1       20.1870    7.0350   26.5520 C.ar   75  TYR75      -0.0009
     26  CD2       21.8470    6.2020   28.0450 C.ar   75  TYR75      -0.0009
     27  CE1       19.6650    5.7720   26.4220 C.ar   75  TYR75       0.0417
     28  CE2       21.3270    4.9300   27.9260 C.ar   75  TYR75       0.0417
     29  CZ        20.2380    4.7200   27.1050 C.ar   75  TYR75       0.1957
     30  OH        19.7240    3.4570   26.9690 O.3    75  TYR75      -0.2866
     31  N         18.7080    9.5600   12.8810 N.3   107  GLN107     -0.1245
     32  CA        17.9610    8.4830   13.5080 C.3   107  GLN107      0.1566
     33  C         17.0300    9.0860   14.5610 C.2   107  GLN107      0.2260
     34  O         17.4960    9.6770   15.5360 O.2   107  GLN107     -0.2867
     35  CB        18.8890    7.4370   14.1290 C.3   107  GLN107      0.0367
     36  CG        18.1260    6.1960   14.5600 C.3   107  GLN107      0.0905
     37  CD        18.9190    5.2320   15.4180 C.2   107  GLN107      0.2608
     38  OE1       19.5140    5.6110   16.4300 O.2   107  GLN107     -0.2717
     39  NE2       18.8960    3.9650   15.0410 N.am  107  GLN107     -0.0878
     40  N         14.4610    9.1690   17.5980 N.3   109  TRP109     -0.1241
     41  CA        14.4700    8.3590   18.8110 C.3   109  TRP109      0.1605
     42  C         13.4390    8.7890   19.8190 C.2   109  TRP109      0.2264
     43  O         13.2780    9.9760   20.0900 O.2   109  TRP109     -0.2867
     44  CB        15.8100    8.5740   19.4820 C.3   109  TRP109      0.0550
     45  CG        16.3120    7.5600   20.4630 C.ar  109  TRP109      0.0003
     46  CD1       15.8540    6.2910   20.6950 C.ar  109  TRP109      0.0946
     47  CD2       17.4230    7.7530   21.3370 C.ar  109  TRP109      0.0152
     48  NE1       16.6300    5.6820   21.6630 N.ar  109  TRP109     -0.2442
     49  CE2       17.5970    6.5680   22.0710 C.ar  109  TRP109      0.0810
     50  CE3       18.2920    8.8250   21.5620 C.ar  109  TRP109      0.0012
     51  CZ2       18.6110    6.4200   23.0110 C.ar  109  TRP109      0.0191
     52  CZ3       19.2940    8.6820   22.4920 C.ar  109  TRP109      0.0001
     53  CH2       19.4500    7.4890   23.2070 C.ar  109  TRP109      0.0015
     54  N         23.3300    4.0000   32.5280 N.3   138  PRO138     -0.2116
     55  CA        24.7780    3.7780   32.4640 C.3   138  PRO138      0.1372
     56  C         25.5750    5.0720   32.5210 C.2   138  PRO138      0.2244
     57  O         25.1140    6.1010   32.0150 O.2   138  PRO138     -0.2868
     58  CB        24.9690    3.1100   31.0990 C.3   138  PRO138      0.0268
     59  CG        23.6800    2.4560   30.8210 C.3   138  PRO138      0.0207
     60  CD        22.6270    3.3420   31.4140 C.3   138  PRO138      0.0892
     61  N         14.0160    4.9600   14.6940 N.3   181  HIS181     -0.1241
     62  CA        14.6110    4.0200   15.6390 C.3   181  HIS181      0.1621
     63  C         13.5480    3.0860   16.2260 C.2   181  HIS181      0.2264
     64  O         12.9230    3.3830   17.2440 O.2   181  HIS181     -0.2867
     65  CB        15.3990    4.7270   16.7440 C.3   181  HIS181      0.0745
     66  CG        16.3660    3.8240   17.4500 C.ar  181  HIS181      0.0817
     67  ND1       16.3650    2.4610   17.2680 N.ar  181  HIS181     -0.2268
     68  CD2       17.3560    4.0880   18.3360 C.ar  181  HIS181      0.1154
     69  CE1       17.3270    1.9200   17.9970 C.ar  181  HIS181      0.1986
     70  NE2       17.9390    2.8850   18.6570 N.ar  181  HIS181     -0.2212
     71  N         16.4090   -2.0060   19.4010 N.3   184  ASN184     -0.1240
     72  CA        17.2150   -1.9490   20.6200 C.3   184  ASN184      0.1653
     73  C         16.4490   -1.6080   21.8860 C.2   184  ASN184      0.2266
     74  O         16.9940   -0.9860   22.7880 O.2   184  ASN184     -0.2867
     75  CB        18.3670   -0.9680   20.4350 C.3   184  ASN184      0.1155
     76  CG        19.2940   -1.3780   19.3130 C.2   184  ASN184      0.2627
     77  OD1       19.1870   -2.4910   18.7700 O.2   184  ASN184     -0.2716
     78  ND2       20.2270   -0.5030   18.9730 N.am  184  ASN184     -0.0877
     79  N         13.8910    0.3800   22.4970 N.3   186  TYR186     -0.1241
     80  CA        13.3600    1.7160   22.7240 C.3   186  TYR186      0.1605
     81  C         11.8650    1.7790   22.3480 C.2   186  TYR186      0.2264
     82  O         11.2350    0.7300   22.2060 O.2   186  TYR186     -0.2867
     83  CB        14.2560    2.7380   22.0240 C.3   186  TYR186      0.0534
     84  CG        15.6280    2.7560   22.6700 C.ar  186  TYR186     -0.0201
     85  CD1       15.7940    3.1850   23.9760 C.ar  186  TYR186     -0.0009
     86  CD2       16.7520    2.3070   21.9830 C.ar  186  TYR186     -0.0009
     87  CE1       17.0490    3.1950   24.5820 C.ar  186  TYR186      0.0417
     88  CE2       18.0060    2.3120   22.5750 C.ar  186  TYR186      0.0417
     89  CZ        18.1520    2.7580   23.8720 C.ar  186  TYR186      0.1957
     90  OH        19.4040    2.7670   24.4650 O.3   186  TYR186     -0.2866
     91  N         14.8900    0.9500   11.5790 N.3   233  ARG233     -0.1245
     92  CA        15.6980   -0.0510   12.2650 C.3   233  ARG233      0.1563
     93  C         14.7970   -0.8800   13.1760 C.2   233  ARG233      0.2260
     94  O         13.9390   -0.3370   13.8710 O.2   233  ARG233     -0.2867
     95  CB        16.8210    0.5950   13.0920 C.3   233  ARG233      0.0307
     96  CG        17.9950   -0.3610   13.3060 C.3   233  ARG233      0.0489
     97  CD        19.2100    0.3130   13.9230 C.3   233  ARG233      0.2205
     98  NE        20.4210   -0.3950   13.5270 N.pl3 233  ARG233     -0.0865
     99  CZ        21.5420   -0.4410   14.2400 C.cat 233  ARG233      0.5346
    100  NH1       21.6130    0.1400   15.4240 N.pl3 233  ARG233      0.1354
    101  NH2       22.5950   -1.0900   13.7640 N.pl3 233  ARG233      0.1354
    102  N         18.6120   -6.0460   24.3020 N.3   240  PHE240     -0.1241
    103  CA        18.9570   -4.8420   25.0590 C.3   240  PHE240      0.1605
    104  C         17.7110   -4.2500   25.7130 C.2   240  PHE240      0.2264
    105  O         16.7570   -3.8640   25.0160 O.2   240  PHE240     -0.2867
    106  CB        19.6040   -3.8070   24.1310 C.3   240  PHE240      0.0534
    107  CG        20.2410   -2.6440   24.8520 C.ar  240  PHE240     -0.0203
    108  CD1       21.1580   -2.8570   25.8660 C.ar  240  PHE240     -0.0042
    109  CD2       19.9420   -1.3400   24.4970 C.ar  240  PHE240     -0.0042
    110  CE1       21.7510   -1.7960   26.5190 C.ar  240  PHE240     -0.0003
    111  CE2       20.5380   -0.2760   25.1380 C.ar  240  PHE240     -0.0003
    112  CZ        21.4470   -0.5060   26.1530 C.ar  240  PHE240     -0.0000
    113  N         24.2340   -6.3980   17.9200 N.3   272  PHE272     -0.1241
    114  CA        25.6600   -6.1120   18.0770 C.3   272  PHE272      0.1605
    115  C         26.5520   -7.1770   17.4350 C.2   272  PHE272      0.2264
    116  O         27.6360   -6.8640   16.9390 O.2   272  PHE272     -0.2867
    117  CB        26.0140   -5.9480   19.5560 C.3   272  PHE272      0.0534
    118  CG        25.8600   -4.5450   20.0630 C.ar  272  PHE272     -0.0203
    119  CD1       24.6050   -3.9550   20.1420 C.ar  272  PHE272     -0.0042
    120  CD2       26.9680   -3.8160   20.4560 C.ar  272  PHE272     -0.0042
    121  CE1       24.4630   -2.6580   20.6170 C.ar  272  PHE272     -0.0003
    122  CE2       26.8360   -2.5270   20.9290 C.ar  272  PHE272     -0.0003
    123  CZ        25.5780   -1.9470   21.0110 C.ar  272  PHE272     -0.0000
@<TRIPOS>BOND
     1    91    92    1
     2    92    95    1
     3    92    93    1
     4    31    32    1
     5    95    96    1
     6    93    94    2
     7    96    97    1
     8    32    35    1
     9    32    33    1
    10    98    97    1
    11    98    99    2
    12   101    99    1
    13    35    36    1
    14    99   100    1
    15    36    37    1
    16    33    34    2
    17    61    62    1
    18    39    37   am
    19    37    38    2
    20    62    63    1
    21    62    65    1
    22    63    64    2
    23    65    66    1
    24   116   115    2
    25    67    66   ar
    26    67    69   ar
    27   115   114    1
    28    66    68   ar
    29    14    15    1
    30    40    41    1
    31   113   114    1
    32    15    16    1
    33    15    18    1
    34    69    70   ar
    35   114   117    1
    36    68    70   ar
    37    16    17    2
    38    77    76    2
    39    41    44    1
    40    41    42    1
    41    78    76   am
    42    76    75    1
    43    71    72    1
    44     1     2    1
    45    44    45    1
    46   117   118    1
    47    42    43    2
    48   118   119   ar
    49   118   120   ar
    50   119   121   ar
    51    75    72    1
    52   120   122   ar
    53    45    46   ar
    54    45    47   ar
    55     2     3    1
    56     2     5    1
    57   121   123   ar
    58    72    73    1
    59    46    48   ar
    60   122   123   ar
    61     6     5    1
    62     3     4    2
    63    47    50   ar
    64    47    49   ar
    65    50    52   ar
    66     5     7    1
    67    48    49   ar
    68    73    74    2
    69    86    88   ar
    70    86    84   ar
    71    83    84    1
    72    83    80    1
    73    49    51   ar
    74    82    81    2
    75    81    80    1
    76    52    53   ar
    77    79    80    1
    78    88    89   ar
    79    84    85   ar
    80    51    53   ar
    81     8     9    1
    82    89    90    1
    83    89    87   ar
    84    85    87   ar
    85   106   107    1
    86   106   103    1
    87   102   103    1
    88     9    10    1
    89     9    12    1
    90   109   107   ar
    91   109   111   ar
    92    10    11    2
    93   107   108   ar
    94   105   104    2
    95   103   104    1
    96   111   112   ar
    97    12    13    1
    98   108   110   ar
    99   112   110   ar
   100    27    25   ar
   101    27    29   ar
   102    25    24   ar
   103    30    29    1
   104    29    28   ar
   105    24    23    1
   106    24    26   ar
   107    23    20    1
   108    22    21    2
   109    28    26   ar
   110    19    20    1
   111    21    20    1
   112    59    58    1
   113    59    60    1
   114    58    55    1
   115    60    54    1
   116    57    56    2
   117    55    56    1
   118    55    54    1
