@<TRIPOS>MOLECULE
tmp/5k1wA02.pdb
 114 112 0 0 0
SMALL
GASTEIGER

@<TRIPOS>ATOM
      1  N         26.7560    5.0080   33.1260 N.3   139  ARG139     -0.1245
      2  CA        27.6900    6.1310   33.1440 C.3   139  ARG139      0.1563
      3  C         27.1180    7.3630   33.8390 C.2   139  ARG139      0.2260
      4  O         27.5370    8.4930   33.5600 O.2   139  ARG139     -0.2867
      5  CB        28.1160    6.4920   31.7190 C.3   139  ARG139      0.0307
      6  CG        28.8430    5.3770   30.9790 C.3   139  ARG139      0.0489
      7  CD        29.2330    5.8180   29.5730 C.3   139  ARG139      0.2205
      8  NE        30.6770    5.7570   29.3510 N.pl3 139  ARG139     -0.0865
      9  CZ        31.3200    4.7390   28.7820 C.cat 139  ARG139      0.5346
     10  NH1       30.6620    3.6660   28.3590 N.pl3 139  ARG139      0.1354
     11  NH2       32.6360    4.7950   28.6310 N.pl3 139  ARG139      0.1354
     12  N         15.1840   -9.9840   20.9710 N.3   238  ALA238     -0.1231
     13  CA        15.3430   -9.2210   22.2010 C.3   238  ALA238      0.1694
     14  C         16.7500   -9.4160   22.7460 C.2   238  ALA238      0.2592
     15  O         17.2300  -10.5520   22.8370 O.2   238  ALA238     -0.2718
     16  CB        14.3090   -9.6770   23.2350 C.3   238  ALA238      0.0304
     17  N         17.4040   -8.3210   23.1160 N.am  239  TYR239     -0.1962
     18  CA        18.7350   -8.4200   23.7050 C.3   239  TYR239      0.1771
     19  C         19.1590   -7.2310   24.5680 C.2   239  TYR239      0.2619
     20  O         19.9970   -7.3930   25.4550 O.2   239  TYR239     -0.2715
     21  CB        19.7710   -8.6640   22.6110 C.3   239  TYR239      0.0574
     22  CG        20.1310   -7.4380   21.8010 C.ar  239  TYR239     -0.0198
     23  CD1       19.2890   -6.9680   20.8080 C.ar  239  TYR239     -0.0009
     24  CD2       21.3260   -6.7780   22.0090 C.ar  239  TYR239     -0.0009
     25  CE1       19.6140   -5.8620   20.0700 C.ar  239  TYR239      0.0417
     26  CE2       21.6670   -5.6680   21.2690 C.ar  239  TYR239      0.0417
     27  CZ        20.8040   -5.2150   20.2920 C.ar  239  TYR239      0.1957
     28  OH        21.1440   -4.1110   19.5500 O.3   239  TYR239     -0.2866
     29  N         18.6120   -6.0460   24.3020 N.am  240  PHE240     -0.1974
     30  CA        18.9570   -4.8420   25.0590 C.3   240  PHE240      0.1639
     31  C         17.7110   -4.2500   25.7130 C.2   240  PHE240      0.2290
     32  O         16.7570   -3.8640   25.0160 O.2   240  PHE240     -0.2864
     33  CB        19.6040   -3.8070   24.1310 C.3   240  PHE240      0.0560
     34  CG        20.2410   -2.6440   24.8520 C.ar  240  PHE240     -0.0200
     35  CD1       21.1580   -2.8570   25.8660 C.ar  240  PHE240     -0.0042
     36  CD2       19.9420   -1.3400   24.4970 C.ar  240  PHE240     -0.0042
     37  CE1       21.7510   -1.7960   26.5190 C.ar  240  PHE240     -0.0003
     38  CE2       20.5380   -0.2760   25.1380 C.ar  240  PHE240     -0.0003
     39  CZ        21.4470   -0.5060   26.1530 C.ar  240  PHE240     -0.0000
     40  N         21.4120   -4.9840   16.1330 N.3   271  ILE271     -0.1231
     41  CA        22.0200   -6.0930   16.8740 C.3   271  ILE271      0.1692
     42  C         23.5100   -5.7530   17.0010 C.2   271  ILE271      0.2592
     43  O         24.0020   -4.8880   16.2790 O.2   271  ILE271     -0.2718
     44  CB        21.8210   -7.4430   16.1340 C.3   271  ILE271      0.0266
     45  CG1       22.2030   -8.6400   17.0170 C.3   271  ILE271      0.0019
     46  CG2       22.6030   -7.4650   14.8220 C.3   271  ILE271      0.0020
     47  CD1       21.3990   -8.7410   18.3110 C.3   271  ILE271      0.0001
     48  N         24.2340   -6.3980   17.9200 N.am  272  PHE272     -0.1976
     49  CA        25.6600   -6.1120   18.0770 C.3   272  PHE272      0.1639
     50  C         26.5520   -7.1770   17.4350 C.2   272  PHE272      0.2290
     51  O         27.6360   -6.8640   16.9390 O.2   272  PHE272     -0.2864
     52  CB        26.0140   -5.9480   19.5560 C.3   272  PHE272      0.0560
     53  CG        25.8600   -4.5450   20.0630 C.ar  272  PHE272     -0.0200
     54  CD1       24.6050   -3.9550   20.1420 C.ar  272  PHE272     -0.0042
     55  CD2       26.9680   -3.8160   20.4560 C.ar  272  PHE272     -0.0042
     56  CE1       24.4630   -2.6580   20.6170 C.ar  272  PHE272     -0.0003
     57  CE2       26.8360   -2.5270   20.9290 C.ar  272  PHE272     -0.0003
     58  CZ        25.5780   -1.9470   21.0110 C.ar  272  PHE272     -0.0000
     59  N         25.2840  -14.2650   16.0070 N.3   276  ILE276     -0.1231
     60  CA        24.4730  -14.9220   17.0370 C.3   276  ILE276      0.1692
     61  C         23.1660  -15.4480   16.4520 C.2   276  ILE276      0.2592
     62  O         22.4710  -14.7440   15.7190 O.2   276  ILE276     -0.2718
     63  CB        24.1380  -13.9520   18.1950 C.3   276  ILE276      0.0266
     64  CG1       25.4030  -13.6200   18.9980 C.3   276  ILE276      0.0019
     65  CG2       23.0700  -14.5500   19.1070 C.3   276  ILE276      0.0020
     66  CD1       25.2260  -12.4900   19.9740 C.3   276  ILE276      0.0001
     67  N         22.8420  -16.6940   16.7700 N.am  277  GLU277     -0.1966
     68  CA        21.5720  -17.2880   16.3750 C.3   277  GLU277      0.1733
     69  C         20.5550  -17.1480   17.4960 C.2   277  GLU277      0.2616
     70  O         20.8640  -17.4030   18.6560 O.2   277  GLU277     -0.2715
     71  CB        21.7620  -18.7610   16.0320 C.3   277  GLU277      0.0429
     72  CG        22.6820  -18.9910   14.8610 C.3   277  GLU277      0.1163
     73  CD        22.9730  -20.4650   14.6130 C.2   277  GLU277      0.3649
     74  OE1       22.6730  -21.2980   15.4980 O.co2 277  GLU277     -0.2457
     75  OE2       23.5150  -20.7820   13.5350 O.co2 277  GLU277     -0.2457
     76  N         19.3450  -16.7270   17.1410 N.am  278  PHE278     -0.1974
     77  CA        18.2510  -16.6010   18.1000 C.3   278  PHE278      0.1639
     78  C         17.3240  -17.8000   17.9540 C.2   278  PHE278      0.2290
     79  O         16.8110  -18.0570   16.8630 O.2   278  PHE278     -0.2864
     80  CB        17.4330  -15.3300   17.8330 C.3   278  PHE278      0.0560
     81  CG        18.1350  -14.0490   18.1960 C.ar  278  PHE278     -0.0200
     82  CD1       19.0510  -13.4710   17.3230 C.ar  278  PHE278     -0.0042
     83  CD2       17.8630  -13.4090   19.4000 C.ar  278  PHE278     -0.0042
     84  CE1       19.6870  -12.2910   17.6490 C.ar  278  PHE278     -0.0003
     85  CE2       18.4980  -12.2270   19.7340 C.ar  278  PHE278     -0.0003
     86  CZ        19.4130  -11.6630   18.8590 C.ar  278  PHE278     -0.0000
     87  N         38.5050   -1.5520   18.0100 N.3   345  TYR345     -0.1241
     88  CA        37.7660   -0.6800   18.9110 C.3   345  TYR345      0.1605
     89  C         37.9600   -1.0620   20.3650 C.2   345  TYR345      0.2264
     90  O         38.0260   -2.2440   20.7160 O.2   345  TYR345     -0.2867
     91  CB        36.2830   -0.7460   18.5780 C.3   345  TYR345      0.0534
     92  CG        35.3730   -0.0940   19.5910 C.ar  345  TYR345     -0.0201
     93  CD1       35.1510    1.2740   19.5660 C.ar  345  TYR345     -0.0009
     94  CD2       34.7110   -0.8460   20.5550 C.ar  345  TYR345     -0.0009
     95  CE1       34.3080    1.8770   20.4690 C.ar  345  TYR345      0.0417
     96  CE2       33.8550   -0.2490   21.4640 C.ar  345  TYR345      0.0417
     97  CZ        33.6560    1.1150   21.4120 C.ar  345  TYR345      0.1957
     98  OH        32.8080    1.7430   22.2930 O.3   345  TYR345     -0.2866
     99  N         36.3480    0.3540   24.2680 N.3   347  ASP347     -0.1239
    100  CA        35.3510    1.1910   24.9270 C.3   347  ASP347      0.1674
    101  C         35.9460    2.5110   25.4250 C.2   347  ASP347      0.2266
    102  O         35.2500    3.5280   25.5220 O.2   347  ASP347     -0.2867
    103  CB        34.7130    0.4260   26.0900 C.3   347  ASP347      0.1410
    104  CG        33.6870    1.2520   26.8370 C.2   347  ASP347      0.3668
    105  OD1       32.5100    1.2650   26.4150 O.co2 347  ASP347     -0.2456
    106  OD2       34.0570    1.8890   27.8470 O.co2 347  ASP347     -0.2456
    107  N         35.4180    5.8960   23.6140 N.3   350  LEU350     -0.1245
    108  CA        34.1950    6.6900   23.7040 C.3   350  LEU350      0.1561
    109  C         34.4110    8.0120   24.4360 C.2   350  LEU350      0.2260
    110  O         33.6050    8.9260   24.3030 O.2   350  LEU350     -0.2867
    111  CB        33.0670    5.8980   24.3770 C.3   350  LEU350      0.0270
    112  CG        32.5710    4.6630   23.6170 C.3   350  LEU350      0.0019
    113  CD1       31.4730    3.9510   24.3910 C.3   350  LEU350      0.0001
    114  CD2       32.0810    5.0570   22.2410 C.3   350  LEU350      0.0001
@<TRIPOS>BOND
     1    75    73   ar
     2    73    72    1
     3    73    74   ar
     4    46    44    1
     5    72    71    1
     6    62    61    2
     7    59    60    1
     8    71    68    1
     9    40    41    1
    10    44    41    1
    11    44    45    1
    12    43    42    2
    13    68    67    1
    14    68    69    1
    15    61    67   am
    16    61    60    1
    17    79    78    2
    18    41    42    1
    19    51    50    2
    20    42    48   am
    21    45    47    1
    22    60    63    1
    23    76    69   am
    24    76    77    1
    25    82    84   ar
    26    82    81   ar
    27    50    49    1
    28    69    70    2
    29    84    86   ar
    30    80    77    1
    31    80    81    1
    32    48    49    1
    33    78    77    1
    34    87    88    1
    35    49    52    1
    36    63    64    1
    37    63    65    1
    38    81    83   ar
    39    91    88    1
    40    91    92    1
    41    86    85   ar
    42    88    89    1
    43    64    66    1
    44    83    85   ar
    45    28    27    1
    46    52    53    1
    47    93    92   ar
    48    93    95   ar
    49    92    94   ar
    50    53    54   ar
    51    53    55   ar
    52    25    27   ar
    53    25    23   ar
    54    54    56   ar
    55    27    26   ar
    56    89    90    2
    57    55    57   ar
    58    95    97   ar
    59    94    96   ar
    60    56    58   ar
    61    23    22   ar
    62    57    58   ar
    63    12    13    1
    64    26    24   ar
    65    97    96   ar
    66    97    98    1
    67    22    24   ar
    68    22    21    1
    69    13    14    1
    70    13    16    1
    71   114   112    1
    72    21    18    1
    73    14    15    2
    74    14    17   am
    75    17    18    1
    76   107   108    1
    77   112   111    1
    78   112   113    1
    79   108   111    1
    80   108   109    1
    81    18    19    1
    82    33    34    1
    83    33    30    1
    84    99   100    1
    85    29    19   am
    86    29    30    1
    87   110   109    2
    88    36    34   ar
    89    36    38   ar
    90    19    20    2
    91    34    35   ar
    92   100   101    1
    93   100   103    1
    94    32    31    2
    95    30    31    1
    96    38    39   ar
    97   101   102    2
    98    35    37   ar
    99   103   104    1
   100    39    37   ar
   101   105   104   ar
   102   104   106   ar
   103    10     9    1
   104    11     9    1
   105     9     8    2
   106     8     7    1
   107     7     6    1
   108     6     5    1
   109     5     2    1
   110     1     2    1
   111     2     3    1
   112     4     3    2
