@<TRIPOS>MOLECULE
tmp/5k1xA01.pdb
 126 120 0 0 0
SMALL
GASTEIGER

@<TRIPOS>ATOM
      1  N         -9.9740   20.1700   12.9620 N.3    88  MET88      -0.1245
      2  CA       -11.1670   19.3370   12.9410 C.3    88  MET88       0.1570
      3  C        -12.3970   20.1040   12.4800 C.2    88  MET88       0.2261
      4  O        -13.4900   19.5290   12.4450 O.2    88  MET88      -0.2867
      5  CB       -11.4330   18.7350   14.3280 C.3    88  MET88       0.0387
      6  CG       -10.4180   17.7070   14.7990 C.3    88  MET88       0.0595
      7  SD       -10.3710   16.1730   13.8310 S.3    88  MET88      -0.1393
      8  CE       -12.0410   15.5560   14.0700 C.3    88  MET88       0.0692
      9  N        -10.2830   11.5660   17.8890 N.3   114  ALA114     -0.1245
     10  CA       -10.1400   11.6090   16.4320 C.3   114  ALA114      0.1562
     11  C         -8.8570   12.2690   15.9460 C.2   114  ALA114      0.2260
     12  O         -8.2070   11.7050   15.0520 O.2   114  ALA114     -0.2867
     13  CB       -11.3620   12.3060   15.8150 C.3   114  ALA114      0.0290
     14  N         -5.8530    9.8860   16.5140 N.3   117  LEU117     -0.1231
     15  CA        -5.9920    8.6590   15.7360 C.3   117  LEU117      0.1693
     16  C         -5.8610    8.9340   14.2430 C.2   117  LEU117      0.2591
     17  O         -5.3870    8.0760   13.4910 O.2   117  LEU117     -0.2718
     18  CB        -7.3320    7.9770   16.0510 C.3   117  LEU117      0.0284
     19  CG        -7.5890    7.5040   17.4910 C.3   117  LEU117      0.0019
     20  CD1       -8.8350    6.6360   17.5790 C.3   117  LEU117      0.0001
     21  CD2       -6.4000    6.7410   18.0380 C.3   117  LEU117      0.0001
     22  N         -6.2540   10.1260   13.7980 N.am  118  ALA118     -0.1980
     23  CA        -6.0730   10.4870   12.3960 C.3   118  ALA118      0.1597
     24  C         -4.5930   10.5990   12.0450 C.2   118  ALA118      0.2287
     25  O         -4.1700   10.1580   10.9680 O.2   118  ALA118     -0.2864
     26  CB        -6.8080   11.7920   12.0850 C.3   118  ALA118      0.0319
     27  N         -3.2790    7.0760   11.8190 N.3   121  LEU121     -0.1245
     28  CA        -3.6480    6.4110   10.5750 C.3   121  LEU121      0.1561
     29  C         -2.7140    6.8240    9.4410 C.2   121  LEU121      0.2260
     30  O         -2.2030    5.9730    8.7050 O.2   121  LEU121     -0.2867
     31  CB        -5.1090    6.7070   10.2230 C.3   121  LEU121      0.0270
     32  CG        -6.1880    6.0170   11.0810 C.3   121  LEU121      0.0019
     33  CD1       -7.5910    6.4200   10.6420 C.3   121  LEU121      0.0001
     34  CD2       -6.0470    4.4920   11.0650 C.3   121  LEU121      0.0001
     35  N        -12.2300    4.8840   21.1160 N.3   158  ALA158     -0.1231
     36  CA       -12.4070    5.1540   19.6920 C.3   158  ALA158      0.1694
     37  C        -11.6060    4.1360   18.8980 C.2   158  ALA158      0.2592
     38  O        -10.4250    3.9250   19.1800 O.2   158  ALA158     -0.2718
     39  CB       -11.9900    6.5780   19.3220 C.3   158  ALA158      0.0304
     40  N        -12.2490    3.4980   17.9220 N.am  159  PHE159     -0.1962
     41  CA       -11.5680    2.5870   17.0170 C.3   159  PHE159      0.1771
     42  C        -11.7320    3.0830   15.5890 C.2   159  PHE159      0.2619
     43  O        -12.7000    3.7750   15.2560 O.2   159  PHE159     -0.2715
     44  CB       -12.0990    1.1440   17.1410 C.3   159  PHE159      0.0574
     45  CG       -13.5350    0.9640   16.6920 C.ar  159  PHE159     -0.0200
     46  CD1      -13.8570    0.8050   15.3450 C.ar  159  PHE159     -0.0042
     47  CD2      -14.5590    0.9160   17.6220 C.ar  159  PHE159     -0.0042
     48  CE1      -15.1750    0.6240   14.9450 C.ar  159  PHE159     -0.0003
     49  CE2      -15.8830    0.7300   17.2170 C.ar  159  PHE159     -0.0003
     50  CZ       -16.1820    0.5920   15.8780 C.ar  159  PHE159     -0.0000
     51  N        -10.7850    2.7010   14.7360 N.am  160  ALA160     -0.1977
     52  CA       -10.8460    3.0960   13.3380 C.3   160  ALA160      0.1597
     53  C        -10.2390    2.0010   12.4710 C.2   160  ALA160      0.2287
     54  O         -9.3190    1.3010   12.8990 O.2   160  ALA160     -0.2864
     55  CB       -10.1210    4.4320   13.1040 C.3   160  ALA160      0.0319
     56  N        -18.2990   15.7710   11.5760 N.3   196  PHE196     -0.1241
     57  CA       -18.1670   14.6700   10.6310 C.3   196  PHE196      0.1605
     58  C        -19.2660   14.6350    9.5840 C.2   196  PHE196      0.2264
     59  O        -19.1630   13.8560    8.6320 O.2   196  PHE196     -0.2867
     60  CB       -18.1620   13.3280   11.3750 C.3   196  PHE196      0.0534
     61  CG       -17.0780   13.2100   12.4100 C.ar  196  PHE196     -0.0203
     62  CD1      -15.7840   12.8860   12.0430 C.ar  196  PHE196     -0.0042
     63  CD2      -17.3580   13.4090   13.7530 C.ar  196  PHE196     -0.0042
     64  CE1      -14.7850   12.7730   12.9960 C.ar  196  PHE196     -0.0003
     65  CE2      -16.3600   13.2940   14.7100 C.ar  196  PHE196     -0.0003
     66  CZ       -15.0760   12.9800   14.3290 C.ar  196  PHE196     -0.0000
     67  N        -18.8900    6.8630   12.2030 N.3   213  VAL213     -0.1245
     68  CA       -18.7550    7.6160   10.9540 C.3   213  VAL213      0.1561
     69  C        -18.2540    6.6920    9.8500 C.2   213  VAL213      0.2260
     70  O        -17.2940    5.9390   10.0550 O.2   213  VAL213     -0.2867
     71  CB       -17.7850    8.8080   11.0980 C.3   213  VAL213      0.0252
     72  CG1      -17.6770    9.5590    9.7790 C.3   213  VAL213      0.0019
     73  CG2      -18.2180    9.7420   12.2200 C.3   213  VAL213      0.0019
     74  N        -10.9830   14.7980    5.7710 N.3   220  ASP220     -0.1239
     75  CA        -9.8170   13.9160    5.6760 C.3   220  ASP220      0.1674
     76  C         -8.6010   14.6120    5.0870 C.2   220  ASP220      0.2266
     77  O         -7.4680   14.2920    5.4680 O.2   220  ASP220     -0.2867
     78  CB       -10.1400   12.6890    4.8250 C.3   220  ASP220      0.1410
     79  CG       -11.2060   11.8250    5.4400 C.2   220  ASP220      0.3668
     80  OD1      -11.4610   11.9770    6.6530 O.co2 220  ASP220     -0.2456
     81  OD2      -11.7780   10.9870    4.7140 O.co2 220  ASP220     -0.2456
     82  N         -5.9770   16.2310    7.2410 N.3   223  TRP223     -0.1241
     83  CA        -5.1850   15.3170    8.0560 C.3   223  TRP223      0.1605
     84  C         -4.2930   14.4060    7.2200 C.2   223  TRP223      0.2264
     85  O         -3.6550   13.5040    7.7750 O.2   223  TRP223     -0.2867
     86  CB        -6.1110   14.4960    8.9670 C.3   223  TRP223      0.0550
     87  CG        -6.7730   15.3850    9.9750 C.ar  223  TRP223      0.0003
     88  CD1       -7.9680   16.0370    9.8390 C.ar  223  TRP223      0.0946
     89  CD2       -6.2380   15.7840   11.2410 C.ar  223  TRP223      0.0152
     90  NE1       -8.2210   16.7960   10.9600 N.ar  223  TRP223     -0.2442
     91  CE2       -7.1710   16.6630   11.8320 C.ar  223  TRP223      0.0810
     92  CE3       -5.0660   15.4750   11.9380 C.ar  223  TRP223      0.0012
     93  CZ2       -6.9700   17.2330   13.0910 C.ar  223  TRP223      0.0191
     94  CZ3       -4.8680   16.0390   13.1880 C.ar  223  TRP223      0.0001
     95  CH2       -5.8140   16.9080   13.7520 C.ar  223  TRP223      0.0015
     96  N         -5.2210   12.1900    5.0040 N.3   225  ILE225     -0.1245
     97  CA        -5.8620   10.9030    4.7880 C.3   225  ILE225      0.1561
     98  C         -6.5860   10.9610    3.4520 C.2   225  ILE225      0.2260
     99  O         -7.3740   11.8810    3.2110 O.2   225  ILE225     -0.2867
    100  CB        -6.8340   10.5720    5.9320 C.3   225  ILE225      0.0252
    101  CG1       -6.0430   10.1920    7.1850 C.3   225  ILE225      0.0019
    102  CG2       -7.7940    9.4660    5.5300 C.3   225  ILE225      0.0019
    103  CD1       -6.8430   10.2830    8.4230 C.3   225  ILE225      0.0001
    104  N        -12.3280    5.0700    5.2980 N.3   229  TRP229     -0.1241
    105  CA       -12.1500    4.6620    6.6780 C.3   229  TRP229      0.1605
    106  C        -13.5180    4.5520    7.3300 C.2   229  TRP229      0.2264
    107  O        -14.5280    5.0030    6.7840 O.2   229  TRP229     -0.2867
    108  CB       -11.2340    5.6340    7.4260 C.3   229  TRP229      0.0550
    109  CG       -11.7760    7.0080    7.5150 C.ar  229  TRP229      0.0003
    110  CD1      -11.6190    8.0140    6.6090 C.ar  229  TRP229      0.0946
    111  CD2      -12.5790    7.5390    8.5730 C.ar  229  TRP229      0.0152
    112  NE1      -12.2780    9.1400    7.0360 N.ar  229  TRP229     -0.2442
    113  CE2      -12.8730    8.8740    8.2420 C.ar  229  TRP229      0.0810
    114  CE3      -13.0780    7.0110    9.7680 C.ar  229  TRP229      0.0012
    115  CZ2      -13.6420    9.6890    9.0620 C.ar  229  TRP229      0.0191
    116  CZ3      -13.8410    7.8240   10.5840 C.ar  229  TRP229      0.0001
    117  CH2      -14.1160    9.1470   10.2270 C.ar  229  TRP229      0.0015
    118  N        -15.0720    4.4670   11.6290 N.3   231  GLY231     -0.1210
    119  CA       -14.6760    4.6560   13.0110 C.3   231  GLY231      0.1956
    120  C        -15.8650    4.9560   13.8920 C.2   231  GLY231      0.2611
    121  O        -16.9640    5.2550   13.4210 O.2   231  GLY231     -0.2717
    122  N        -15.6240    4.8730   15.1960 N.am  232  ALA232     -0.1979
    123  CA       -16.6750    5.1530   16.1610 C.3   232  ALA232      0.1597
    124  C        -16.0370    5.5680   17.4740 C.2   232  ALA232      0.2287
    125  O        -14.8930    5.2120   17.7630 O.2   232  ALA232     -0.2864
    126  CB       -17.5930    3.9430   16.3710 C.3   232  ALA232      0.0319
@<TRIPOS>BOND
     1    99    98    2
     2    98    97    1
     3    81    79   ar
     4    97    96    1
     5    97   100    1
     6    78    79    1
     7    78    75    1
     8    76    77    2
     9    76    75    1
    10   104   105    1
    11    79    80   ar
    12   102   100    1
    13    75    74    1
    14   100   101    1
    15   110   112   ar
    16   110   109   ar
    17   105   106    1
    18   105   108    1
    19   107   106    2
    20   112   113   ar
    21   101   103    1
    22    84    85    2
    23    84    83    1
    24    82    83    1
    25   108   109    1
    26   109   111   ar
    27    83    86    1
    28   113   111   ar
    29   113   115   ar
    30   111   114   ar
    31    59    58    2
    32    30    29    2
    33    86    87    1
    34   115   117   ar
    35    29    28    1
    36    58    57    1
    37   114   116   ar
    38    72    71    1
    39    88    87   ar
    40    88    90   ar
    41    69    70    2
    42    69    68    1
    43    87    89   ar
    44    31    28    1
    45    31    32    1
    46   117   116   ar
    47    28    27    1
    48    57    60    1
    49    57    56    1
    50    33    32    1
    51    68    71    1
    52    68    67    1
    53    90    91   ar
    54    25    24    2
    55    34    32    1
    56    71    73    1
    57    89    91   ar
    58    89    92   ar
    59    60    61    1
    60   118   119    1
    61    91    93   ar
    62    92    94   ar
    63    62    61   ar
    64    62    64   ar
    65    24    23    1
    66    26    23    1
    67    23    22    1
    68    61    63   ar
    69     4     3    2
    70    53    54    2
    71    53    52    1
    72     3     2    1
    73     2     1    1
    74     2     5    1
    75    64    66   ar
    76   119   120    1
    77    93    95   ar
    78    55    52    1
    79    94    95   ar
    80    52    51    1
    81   121   120    2
    82    17    16    2
    83    63    65   ar
    84    22    16   am
    85     7     8    1
    86     7     6    1
    87   120   122   am
    88    16    15    1
    89     5     6    1
    90    66    65   ar
    91    51    42   am
    92    48    46   ar
    93    48    50   ar
    94    12    11    2
    95   122   123    1
    96    43    42    2
    97    46    45   ar
    98    42    41    1
    99    15    18    1
   100    15    14    1
   101    13    10    1
   102    50    49   ar
   103    11    10    1
   104    18    19    1
   105   123   126    1
   106   123   124    1
   107    10     9    1
   108    45    44    1
   109    45    47   ar
   110    41    44    1
   111    41    40    1
   112    49    47   ar
   113   124   125    2
   114    19    20    1
   115    19    21    1
   116    40    37   am
   117    37    38    2
   118    37    36    1
   119    39    36    1
   120    36    35    1
