@<TRIPOS>MOLECULE
tmp/5k21B00.pdb
 140 129 0 0 0
SMALL
GASTEIGER

@<TRIPOS>ATOM
      1  N         27.0710   24.2170   65.5940 N.3    11  ASN11      -0.1240
      2  CA        27.9090   25.3960   65.4130 C.3    11  ASN11       0.1653
      3  C         28.1000   26.0930   66.7530 C.2    11  ASN11       0.2266
      4  O         27.1320   26.3600   67.4680 O.2    11  ASN11      -0.2867
      5  CB        27.2800   26.3720   64.4150 C.3    11  ASN11       0.1155
      6  CG        27.0540   25.7640   63.0470 C.2    11  ASN11       0.2627
      7  OD1       26.0870   26.1090   62.3700 O.2    11  ASN11      -0.2716
      8  ND2       27.9480   24.8770   62.6210 N.am   11  ASN11      -0.0877
      9  N         31.1310   31.4700   65.0010 N.3    14  VAL14      -0.1245
     10  CA        31.3300   31.6120   63.5660 C.3    14  VAL14       0.1561
     11  C         31.5480   33.0750   63.2400 C.2    14  VAL14       0.2260
     12  O         30.9050   33.9520   63.8220 O.2    14  VAL14      -0.2867
     13  CB        30.1240   31.0710   62.7750 C.3    14  VAL14       0.0252
     14  CG1       30.3380   31.2760   61.2660 C.3    14  VAL14       0.0019
     15  CG2       29.8530   29.5960   63.1350 C.3    14  VAL14       0.0019
     16  N         31.6760   35.2650   59.5820 N.3    16  LYS16      -0.1245
     17  CA        31.6090   35.3370   58.1250 C.3    16  LYS16       0.1561
     18  C         32.2490   36.6550   57.7130 C.2    16  LYS16       0.2260
     19  O         31.6830   37.7200   57.9470 O.2    16  LYS16      -0.2867
     20  CB        30.1750   35.2170   57.6160 C.3    16  LYS16       0.0271
     21  CG        29.5770   33.8580   57.8960 C.3    16  LYS16       0.0035
     22  CD        28.1130   33.7220   57.5530 C.3    16  LYS16       0.0206
     23  CE        27.7220   32.2620   57.7550 C.3    16  LYS16       0.1093
     24  NZ        26.2660   31.9710   57.8020 N.3    16  LYS16      -0.1314
     25  N         34.8920   32.2600   55.8710 N.3    30  ASP30      -0.1239
     26  CA        34.2320   31.8760   57.1070 C.3    30  ASP30       0.1674
     27  C         35.2410   31.1880   57.9990 C.2    30  ASP30       0.2266
     28  O         35.9870   30.3180   57.5420 O.2    30  ASP30      -0.2867
     29  CB        33.0720   30.9240   56.8600 C.3    30  ASP30       0.1410
     30  CG        31.9500   31.5490   56.0830 C.2    30  ASP30       0.3668
     31  OD1       31.9420   32.7880   55.8760 O.co2  30  ASP30      -0.2456
     32  OD2       31.0660   30.7740   55.6640 O.co2  30  ASP30      -0.2456
     33  N         35.2560   29.1800   61.8150 N.3    32  PHE32      -0.1241
     34  CA        34.2050   28.6080   62.6510 C.3    32  PHE32       0.1605
     35  C         34.7440   27.5400   63.5940 C.2    32  PHE32       0.2264
     36  O         35.8290   26.9880   63.4030 O.2    32  PHE32      -0.2867
     37  CB        33.1080   27.9880   61.7910 C.3    32  PHE32       0.0534
     38  CG        33.6280   26.9410   60.8410 C.ar   32  PHE32      -0.0203
     39  CD1       34.1680   27.3020   59.6190 C.ar   32  PHE32      -0.0042
     40  CD2       33.6340   25.6090   61.2020 C.ar   32  PHE32      -0.0042
     41  CE1       34.6790   26.3350   58.7520 C.ar   32  PHE32      -0.0003
     42  CE2       34.1390   24.6580   60.3600 C.ar   32  PHE32      -0.0003
     43  CZ        34.6670   25.0230   59.1290 C.ar   32  PHE32      -0.0000
     44  N         32.8870   24.2010   66.1450 N.3    34  ASP34      -0.1239
     45  CA        31.7000   23.3970   66.3910 C.3    34  ASP34       0.1674
     46  C         31.9110   22.5420   67.6300 C.2    34  ASP34       0.2266
     47  O         33.0410   22.2380   68.0180 O.2    34  ASP34      -0.2867
     48  CB        31.3740   22.4760   65.2140 C.3    34  ASP34       0.1410
     49  CG        31.2310   23.2290   63.9000 C.2    34  ASP34       0.3668
     50  OD1       30.1330   23.7550   63.6400 O.co2  34  ASP34      -0.2456
     51  OD2       32.2230   23.3150   63.1480 O.co2  34  ASP34      -0.2456
     52  N         36.9330   28.4290   55.7820 N.3    50  CYS50      -0.1235
     53  CA        36.5180   28.2830   54.3930 C.3    50  CYS50       0.1677
     54  C         36.8200   29.5750   53.6590 C.2    50  CYS50       0.2270
     55  O         36.5690   30.6620   54.1840 O.2    50  CYS50      -0.2867
     56  CB        35.0290   27.9650   54.2800 C.3    50  CYS50       0.0956
     57  SG        34.5960   26.3000   54.8700 S.3    50  CYS50      -0.0801
     58  N         37.8760   24.6250   51.9360 N.3    64  CYS64      -0.1235
     59  CA        37.6830   24.5010   53.3770 C.3    64  CYS64       0.1677
     60  C         38.7320   23.5850   53.9840 C.2    64  CYS64       0.2270
     61  O         39.1360   22.5770   53.3790 O.2    64  CYS64      -0.2867
     62  CB        36.3110   23.9480   53.7260 C.3    64  CYS64       0.0956
     63  SG        34.9570   25.0010   53.2700 S.3    64  CYS64      -0.0801
     64  N         39.4830   21.7970   57.8960 N.3    66  LEU66      -0.1245
     65  CA        38.8030   21.4370   59.1250 C.3    66  LEU66       0.1561
     66  C         39.7270   20.5870   59.9770 C.2    66  LEU66       0.2260
     67  O         40.4010   19.6950   59.4590 O.2    66  LEU66      -0.2867
     68  CB        37.5150   20.6460   58.8150 C.3    66  LEU66       0.0270
     69  CG        36.6550   20.1680   59.9840 C.3    66  LEU66       0.0019
     70  CD1       36.0060   21.3740   60.6660 C.3    66  LEU66       0.0001
     71  CD2       35.5970   19.2070   59.4660 C.3    66  LEU66       0.0001
     72  N         29.6140   25.5210   48.1890 N.3    83  HIS83      -0.1241
     73  CA        29.3210   25.8350   49.5780 C.3    83  HIS83       0.1621
     74  C         27.8400   26.1850   49.6660 C.2    83  HIS83       0.2264
     75  O         27.4400   27.3480   49.7640 O.2    83  HIS83      -0.2867
     76  CB        30.2180   26.9700   50.0690 C.3    83  HIS83       0.0745
     77  CG        30.1910   27.1660   51.5530 C.ar   83  HIS83       0.0817
     78  ND1       29.4080   28.1210   52.1660 N.ar   83  HIS83      -0.2268
     79  CD2       30.8590   26.5310   52.5470 C.ar   83  HIS83       0.1154
     80  CE1       29.5930   28.0640   53.4730 C.ar   83  HIS83       0.1986
     81  NE2       30.4680   27.1080   53.7300 N.ar   83  HIS83      -0.2212
     82  N         28.2170   17.7190   51.1360 N.3    88  PHE88      -0.1241
     83  CA        29.4780   17.7210   50.4120 C.3    88  PHE88       0.1605
     84  C         30.4760   16.8670   51.1670 C.2    88  PHE88       0.2264
     85  O         30.3570   16.6630   52.3790 O.2    88  PHE88      -0.2867
     86  CB        30.0360   19.1390   50.2040 C.3    88  PHE88       0.0534
     87  CG        30.2950   19.8800   51.4870 C.ar   88  PHE88      -0.0203
     88  CD1       29.2650   20.5300   52.1410 C.ar   88  PHE88      -0.0042
     89  CD2       31.5650   19.9210   52.0300 C.ar   88  PHE88      -0.0042
     90  CE1       29.5050   21.2280   53.3280 C.ar   88  PHE88      -0.0003
     91  CE2       31.8150   20.6160   53.2270 C.ar   88  PHE88      -0.0003
     92  CZ        30.7780   21.2600   53.8620 C.ar   88  PHE88      -0.0000
     93  N         34.4360   15.9260   52.0700 N.3    90  MET90      -0.1245
     94  CA        35.7950   16.3840   52.2910 C.3    90  MET90       0.1570
     95  C         36.7240   15.1880   52.2780 C.2    90  MET90       0.2261
     96  O         36.3120   14.0560   52.5560 O.2    90  MET90      -0.2867
     97  CB        35.9270   17.1070   53.6400 C.3    90  MET90       0.0387
     98  CG        34.8590   18.1450   53.9200 C.3    90  MET90       0.0595
     99  SD        35.1760   19.0190   55.4720 S.3    90  MET90      -0.1393
    100  CE        36.5660   20.0420   54.9970 C.3    90  MET90       0.0692
    101  N         29.5820   16.0720   54.9400 N.3   108  VAL108     -0.1245
    102  CA        28.8600   17.0360   55.7660 C.3   108  VAL108      0.1561
    103  C         27.4520   17.1540   55.2140 C.2   108  VAL108      0.2260
    104  O         27.2680   17.4550   54.0310 O.2   108  VAL108     -0.2867
    105  CB        29.5540   18.3940   55.7620 C.3   108  VAL108      0.0252
    106  CG1       28.8040   19.3930   56.6690 C.3   108  VAL108      0.0019
    107  CG2       30.9850   18.2490   56.1730 C.3   108  VAL108      0.0019
    108  N         24.3110   21.1200   56.7000 N.3   111  VAL111     -0.1231
    109  CA        25.1380   22.2170   57.1730 C.3   111  VAL111      0.1692
    110  C         24.2340   23.4120   57.4460 C.2   111  VAL111      0.2591
    111  O         23.2970   23.6940   56.6880 O.2   111  VAL111     -0.2718
    112  CB        26.2430   22.5400   56.1520 C.3   111  VAL111      0.0266
    113  CG1       25.6580   23.1950   54.8960 C.3   111  VAL111      0.0020
    114  CG2       27.3340   23.3960   56.7870 C.3   111  VAL111      0.0020
    115  N         24.4890   24.0970   58.5580 N.am  112  ALA112     -0.1980
    116  CA        23.7030   25.2600   58.9600 C.3   112  ALA112      0.1597
    117  C         22.2470   24.8910   59.2440 C.2   112  ALA112      0.2287
    118  O         21.3370   25.6900   59.0190 O.2   112  ALA112     -0.2864
    119  CB        23.7780   26.3700   57.9100 C.3   112  ALA112      0.0319
    120  N         22.8860   19.0720   61.6280 N.3   116  GLU116     -0.1245
    121  CA        24.1380   18.9190   60.9080 C.3   116  GLU116      0.1567
    122  C         24.8840   17.6990   61.4250 C.2   116  GLU116      0.2260
    123  O         24.9530   17.4600   62.6330 O.2   116  GLU116     -0.2867
    124  CB        25.0110   20.1640   61.0760 C.3   116  GLU116      0.0388
    125  CG        26.2910   20.0740   60.2690 C.3   116  GLU116      0.1160
    126  CD        27.1150   21.3380   60.3050 C.2   116  GLU116      0.3649
    127  OE1       26.5670   22.4240   60.6080 O.co2 116  GLU116     -0.2457
    128  OE2       28.3210   21.2430   60.0150 O.co2 116  GLU116     -0.2457
    129  N         28.4720   15.0030   60.4990 N.3   118  TYR118     -0.1241
    130  CA        29.6220   14.5390   59.7400 C.3   118  TYR118      0.1605
    131  C         29.5560   13.0250   59.7080 C.2   118  TYR118      0.2264
    132  O         29.4450   12.3880   60.7690 O.2   118  TYR118     -0.2867
    133  CB        30.9510   14.9240   60.3770 C.3   118  TYR118      0.0534
    134  CG        31.2210   16.3730   60.5890 C.ar  118  TYR118     -0.0201
    135  CD1       30.6310   17.3380   59.8040 C.ar  118  TYR118     -0.0009
    136  CD2       32.1130   16.7730   61.5830 C.ar  118  TYR118     -0.0009
    137  CE1       30.8960   18.6910   60.0120 C.ar  118  TYR118      0.0417
    138  CE2       32.4020   18.1340   61.7890 C.ar  118  TYR118      0.0417
    139  CZ        31.7910   19.0770   60.9990 C.ar  118  TYR118      0.1957
    140  OH        32.0680   20.4260   61.1970 O.3   118  TYR118     -0.2866
@<TRIPOS>BOND
     1    72    73    1
     2    73    74    1
     3    73    76    1
     4    74    75    2
     5    76    77    1
     6    86    83    1
     7    86    87    1
     8    83    82    1
     9    83    84    1
    10    84    85    2
    11    87    89   ar
    12    87    88   ar
    13    77    78   ar
    14    77    79   ar
    15    58    59    1
    16    89    91   ar
    17    93    94    1
    18    88    90   ar
    19    78    80   ar
    20    95    94    1
    21    95    96    2
    22    94    97    1
    23    79    81   ar
    24    91    92   ar
    25    63    62    1
    26    63    57    1
    27    90    92   ar
    28    59    62    1
    29    59    60    1
    30    61    60    2
    31    80    81   ar
    32    97    98    1
    33    54    55    2
    34    54    53    1
    35    98    99    1
    36   104   103    2
    37    56    53    1
    38    56    57    1
    39    53    52    1
    40   113   112    1
    41   101   102    1
    42   100    99    1
    43   103   102    1
    44    32    30   ar
    45   105   102    1
    46   105   107    1
    47   105   106    1
    48    25    26    1
    49    31    30   ar
    50    30    29    1
    51   112   114    1
    52   112   109    1
    53   111   110    2
    54   108   109    1
    55    29    26    1
    56    26    27    1
    57   109   110    1
    58   110   115   am
    59    28    27    2
    60    22    23    1
    61    22    21    1
    62    20    21    1
    63    20    17    1
    64    18    19    2
    65    18    17    1
    66    23    24    1
    67    64    65    1
    68   119   116    1
    69    17    16    1
    70   115   116    1
    71    41    43   ar
    72    41    39   ar
    73    68    65    1
    74    68    69    1
    75   116   117    1
    76   118   117    2
    77    65    66    1
    78    43    42   ar
    79    67    66    2
    80    71    69    1
    81    39    38   ar
    82   131   130    1
    83   131   132    2
    84   130   133    1
    85   130   129    1
    86   135   137   ar
    87   135   134   ar
    88    69    70    1
    89   137   139   ar
    90   128   126   ar
    91   125   126    1
    92   125   124    1
    93   126   127   ar
    94    42    40   ar
    95   133   134    1
    96   134   136   ar
    97    38    40   ar
    98    38    37    1
    99   121   124    1
   100   121   122    1
   101   121   120    1
   102   139   140    1
   103   139   138   ar
   104    14    13    1
   105   122   123    2
   106   136   138   ar
   107    37    34    1
   108    33    34    1
   109     7     6    2
   110     8     6   am
   111    34    35    1
   112    13    15    1
   113    13    10    1
   114     6     5    1
   115    51    49   ar
   116    11    10    1
   117    11    12    2
   118    36    35    2
   119    10     9    1
   120    50    49   ar
   121    49    48    1
   122     5     2    1
   123    48    45    1
   124     2     1    1
   125     2     3    1
   126    44    45    1
   127    45    46    1
   128     3     4    2
   129    46    47    2
