@<TRIPOS>MOLECULE
tmp/5k25B00.pdb
 146 143 0 0 0
SMALL
GASTEIGER

@<TRIPOS>ATOM
      1  N        -12.0990   -2.6040  -59.0170 N.3    23  THR23      -0.1218
      2  CA       -11.5170   -1.8400  -57.9140 C.3    23  THR23       0.1862
      3  C        -10.3720   -2.6100  -57.2580 C.2    23  THR23       0.2287
      4  O        -10.6050   -3.6360  -56.6160 O.2    23  THR23      -0.2866
      5  CB       -12.5710   -1.4780  -56.8500 C.3    23  THR23       0.1770
      6  OG1      -13.7200   -0.9090  -57.4870 O.3    23  THR23      -0.2211
      7  CG2      -12.0060   -0.4760  -55.8530 C.3    23  THR23       0.0375
      8  N         -7.9520    0.1150  -52.7170 N.3    27  ASP27      -0.1225
      9  CA        -9.1090    1.0070  -52.6560 C.3    27  ASP27       0.1805
     10  C        -10.3850    0.2940  -52.1970 C.2    27  ASP27       0.2598
     11  O        -11.4810    0.8560  -52.2740 O.2    27  ASP27      -0.2718
     12  CB        -9.3320    1.6840  -54.0130 C.3    27  ASP27       0.1424
     13  CG        -8.1070    2.4340  -54.5010 C.2    27  ASP27       0.3668
     14  OD1       -7.5380    3.2290  -53.7190 O.co2  27  ASP27      -0.2456
     15  OD2       -7.7140    2.2280  -55.6690 O.co2  27  ASP27      -0.2456
     16  N        -10.2340   -0.9380  -51.7150 N.am   28  CYS28      -0.1956
     17  CA       -11.3580   -1.7020  -51.1780 C.3    28  CYS28       0.1843
     18  C        -11.5400   -1.4510  -49.6850 C.2    28  CYS28       0.2625
     19  O        -10.5830   -1.5290  -48.9100 O.2    28  CYS28      -0.2714
     20  CB       -11.1850   -3.1980  -51.4530 C.3    28  CYS28       0.0997
     21  SG       -11.0100   -3.6370  -53.2000 S.3    28  CYS28      -0.0797
     22  N        -12.7750   -1.1410  -49.2950 N.am   29  PHE29      -0.1974
     23  CA       -13.2190   -1.2580  -47.9110 C.3    29  PHE29       0.1639
     24  C        -13.3530   -2.7190  -47.5030 C.2    29  PHE29       0.2290
     25  O        -14.2070   -3.4440  -48.0210 O.2    29  PHE29      -0.2864
     26  CB       -14.5460   -0.5260  -47.7120 C.3    29  PHE29       0.0560
     27  CG       -14.8790   -0.2520  -46.2730 C.ar   29  PHE29      -0.0200
     28  CD1      -14.2760    0.8020  -45.5920 C.ar   29  PHE29      -0.0042
     29  CD2      -15.8000   -1.0420  -45.5980 C.ar   29  PHE29      -0.0042
     30  CE1      -14.5830    1.0590  -44.2640 C.ar   29  PHE29      -0.0003
     31  CE2      -16.1130   -0.7890  -44.2690 C.ar   29  PHE29      -0.0003
     32  CZ       -15.5040    0.2630  -43.6020 C.ar   29  PHE29      -0.0000
     33  N        -20.6000    3.2370  -47.1490 N.3    49  GLY49      -0.1210
     34  CA       -21.6320    3.1960  -48.1810 C.3    49  GLY49       0.1956
     35  C        -21.5860    1.9270  -49.0100 C.2    49  GLY49       0.2612
     36  O        -21.9480    1.9320  -50.1900 O.2    49  GLY49      -0.2717
     37  N        -21.1310    0.8420  -48.3890 N.am   50  HIS50      -0.1961
     38  CA       -21.0960   -0.4640  -49.0320 C.3    50  HIS50       0.1787
     39  C        -21.8980   -1.4810  -48.2350 C.2    50  HIS50       0.2621
     40  O        -21.9250   -1.4420  -47.0020 O.2    50  HIS50      -0.2715
     41  CB       -19.6530   -0.9400  -49.2110 C.3    50  HIS50       0.0785
     42  CG       -18.8790   -0.1570  -50.2260 C.ar   50  HIS50       0.0821
     43  ND1      -17.6800    0.4570  -49.9350 N.ar   50  HIS50      -0.2267
     44  CD2      -19.1310    0.1100  -51.5290 C.ar   50  HIS50       0.1154
     45  CE1      -17.2270    1.0690  -51.0150 C.ar   50  HIS50       0.1986
     46  NE2      -18.0900    0.8740  -51.9960 N.ar   50  HIS50      -0.2212
     47  N        -22.5540   -2.3840  -48.9550 N.am   51  THR51      -0.1937
     48  CA       -23.4860   -3.3290  -48.3540 C.3    51  THR51       0.2028
     49  C        -22.8250   -4.6910  -48.1890 C.2    51  THR51       0.2642
     50  O        -23.1780   -5.4600  -47.2940 O.2    51  THR51      -0.2714
     51  CB       -24.7680   -3.4770  -49.1980 C.3    51  THR51       0.1808
     52  OG1      -24.4970   -3.1120  -50.5580 O.3    51  THR51      -0.2208
     53  CG2      -25.8770   -2.5880  -48.6460 C.3    51  THR51       0.0379
     54  N        -21.8610   -4.9780  -49.0580 N.am   52  ARG52      -0.1963
     55  CA       -21.0710   -6.1920  -48.9570 C.3    52  ARG52       0.1729
     56  C        -19.6020   -5.8420  -48.7550 C.2    52  ARG52       0.2616
     57  O        -18.9980   -5.1680  -49.5900 O.2    52  ARG52      -0.2715
     58  CB       -21.2600   -7.0570  -50.2050 C.3    52  ARG52       0.0348
     59  CG       -22.5770   -7.8190  -50.2460 C.3    52  ARG52       0.0492
     60  CD       -23.0240   -8.0600  -51.6790 C.3    52  ARG52       0.2205
     61  NE       -23.6230   -9.3820  -51.8740 N.pl3  52  ARG52      -0.0865
     62  CZ       -24.9160   -9.6020  -52.1130 C.cat  52  ARG52       0.5346
     63  NH1      -25.7710   -8.5880  -52.1860 N.pl3  52  ARG52       0.1354
     64  NH2      -25.3570  -10.8420  -52.2780 N.pl3  52  ARG52       0.1354
     65  N        -19.0430   -6.2950  -47.6360 N.am   53  ILE53      -0.1964
     66  CA       -17.6860   -5.9350  -47.2260 C.3    53  ILE53       0.1712
     67  C        -16.8420   -7.1970  -47.0460 C.2    53  ILE53       0.2458
     68  O        -17.1950   -8.0670  -46.2470 O.2    53  ILE53      -0.2730
     69  CB       -17.6820   -5.1190  -45.9130 C.3    53  ILE53       0.0289
     70  CG1      -18.5090   -3.8410  -46.0640 C.3    53  ILE53       0.0022
     71  CG2      -16.2590   -4.7770  -45.4920 C.3    53  ILE53       0.0023
     72  CD1      -19.2160   -3.4210  -44.7960 C.3    53  ILE53       0.0001
     73  N        -15.7240   -7.3030  -47.7890 N.am   54  PRO54      -0.2727
     74  CA       -14.8380   -8.4660  -47.6880 C.3    54  PRO54       0.1402
     75  C        -14.1680   -8.5730  -46.3190 C.2    54  PRO54       0.2269
     76  O        -13.9390   -7.5560  -45.6590 O.2    54  PRO54      -0.2865
     77  CB       -13.7840   -8.2040  -48.7710 C.3    54  PRO54       0.0296
     78  CG       -14.4160   -7.2260  -49.7000 C.3    54  PRO54       0.0237
     79  CD       -15.2640   -6.3600  -48.8200 C.3    54  PRO54       0.0939
     80  N        -23.9570   -9.5570  -56.3080 N.3   116  HIS116     -0.1226
     81  CA       -23.4630   -8.5580  -57.2520 C.3   116  HIS116      0.1752
     82  C        -21.9380   -8.4100  -57.2210 C.2   116  HIS116      0.2595
     83  O        -21.3750   -7.6470  -58.0050 O.2   116  HIS116     -0.2718
     84  CB       -24.1660   -7.2040  -57.0500 C.3   116  HIS116      0.0759
     85  CG       -23.8960   -6.5600  -55.7220 C.ar  116  HIS116      0.0818
     86  ND1      -22.7210   -5.8960  -55.4390 N.ar  116  HIS116     -0.2268
     87  CD2      -24.6610   -6.4580  -54.6090 C.ar  116  HIS116      0.1154
     88  CE1      -22.7680   -5.4240  -54.2060 C.ar  116  HIS116      0.1986
     89  NE2      -23.9370   -5.7480  -53.6810 N.ar  116  HIS116     -0.2212
     90  N        -21.2770   -9.1440  -56.3260 N.am  117  LEU117     -0.1980
     91  CA       -19.8350   -9.0000  -56.1210 C.3   117  LEU117      0.1596
     92  C        -19.0680  -10.2840  -56.4350 C.2   117  LEU117      0.2287
     93  O        -19.3740  -11.3510  -55.8980 O.2   117  LEU117     -0.2864
     94  CB       -19.5390   -8.5450  -54.6910 C.3   117  LEU117      0.0297
     95  CG       -18.2090   -7.8230  -54.4720 C.3   117  LEU117      0.0022
     96  CD1      -18.3950   -6.6510  -53.5230 C.3   117  LEU117      0.0001
     97  CD2      -17.1530   -8.7830  -53.9480 C.3   117  LEU117      0.0001
     98  N        -11.9030   -6.1360  -56.4180 N.3   138  LEU138     -0.1245
     99  CA       -13.3310   -6.4200  -56.5950 C.3   138  LEU138      0.1561
    100  C        -13.8450   -5.9730  -57.9560 C.2   138  LEU138      0.2260
    101  O        -13.3990   -4.9600  -58.4970 O.2   138  LEU138     -0.2867
    102  CB       -14.1690   -5.7570  -55.4980 C.3   138  LEU138      0.0270
    103  CG       -13.6630   -5.7910  -54.0580 C.3   138  LEU138      0.0019
    104  CD1      -14.4610   -4.8130  -53.2140 C.3   138  LEU138      0.0001
    105  CD2      -13.7300   -7.1940  -53.4750 C.3   138  LEU138      0.0001
    106  N        -17.9290   -5.4390  -59.5080 N.3   140  THR140     -0.1203
    107  CA       -19.3690   -5.5210  -59.3110 C.3   140  THR140      0.1994
    108  C        -20.1410   -5.2820  -60.6140 C.2   140  THR140      0.2618
    109  O        -19.5480   -4.9580  -61.6450 O.2   140  THR140     -0.2717
    110  CB       -19.8390   -4.5430  -58.2170 C.3   140  THR140      0.1784
    111  OG1      -21.2170   -4.7890  -57.9170 O.3   140  THR140     -0.2211
    112  CG2      -19.6840   -3.1110  -58.6770 C.3   140  THR140      0.0376
    113  N        -21.4610   -5.4560  -60.5560 N.am  141  LEU141     -0.1965
    114  CA       -22.3540   -5.0940  -61.6540 C.3   141  LEU141      0.1728
    115  C        -22.2320   -3.6210  -62.0400 C.2   141  LEU141      0.2616
    116  O        -22.1530   -3.2940  -63.2250 O.2   141  LEU141     -0.2715
    117  CB       -23.8050   -5.4440  -61.3020 C.3   141  LEU141      0.0311
    118  CG       -24.9100   -5.0900  -62.3070 C.3   141  LEU141      0.0022
    119  CD1      -24.9400   -6.0600  -63.4810 C.3   141  LEU141      0.0001
    120  CD2      -26.2630   -5.0360  -61.6120 C.3   141  LEU141      0.0001
    121  N        -22.2030   -2.7470  -61.0350 N.am  142  GLU142     -0.1963
    122  CA       -22.0590   -1.3050  -61.2450 C.3   142  GLU142      0.1733
    123  C        -20.7540   -0.9300  -61.9500 C.2   142  GLU142      0.2616
    124  O        -20.6950    0.0830  -62.6480 O.2   142  GLU142     -0.2715
    125  CB       -22.1810   -0.5530  -59.9140 C.3   142  GLU142      0.0429
    126  CG       -22.6340    0.8980  -60.0400 C.3   142  GLU142      0.1163
    127  CD       -24.1180    1.0980  -59.7590 C.2   142  GLU142      0.3649
    128  OE1      -24.6520    2.1650  -60.1340 O.co2 142  GLU142     -0.2457
    129  OE2      -24.7570    0.2010  -59.1630 O.co2 142  GLU142     -0.2457
    130  N        -19.7190   -1.7490  -61.7670 N.am  143  ASP143     -0.1971
    131  CA       -18.4690   -1.6110  -62.5150 C.3   143  ASP143      0.1709
    132  C        -18.6790   -1.8140  -64.0120 C.2   143  ASP143      0.2293
    133  O        -18.2100   -1.0120  -64.8220 O.2   143  ASP143     -0.2864
    134  CB       -17.4110   -2.5870  -61.9970 C.3   143  ASP143      0.1436
    135  CG       -16.5900   -2.0120  -60.8600 C.2   143  ASP143      0.3671
    136  OD1      -16.4540   -2.6970  -59.8240 O.co2 143  ASP143     -0.2456
    137  OD2      -16.0780   -0.8820  -61.0010 O.co2 143  ASP143     -0.2456
    138  N        -20.6450    0.9790  -65.7860 N.3   146  GLU146     -0.1245
    139  CA       -19.9070    2.2290  -65.9670 C.3   146  GLU146      0.1567
    140  C        -19.1050    2.2550  -67.2710 C.2   146  GLU146      0.2260
    141  O        -18.8050    3.3280  -67.7990 O.2   146  GLU146     -0.2867
    142  CB       -18.9880    2.4870  -64.7680 C.3   146  GLU146      0.0388
    143  CG       -19.5370    3.4960  -63.7670 C.3   146  GLU146      0.1160
    144  CD       -19.2590    3.1140  -62.3210 C.2   146  GLU146      0.3649
    145  OE1      -20.2280    2.8690  -61.5690 O.co2 146  GLU146     -0.2457
    146  OE2      -18.0710    3.0650  -61.9310 O.co2 146  GLU146     -0.2457
@<TRIPOS>BOND
     1   141   140    2
     2   140   139    1
     3   139   138    1
     4   139   142    1
     5   133   132    2
     6   142   143    1
     7   132   131    1
     8   143   144    1
     9   119   118    1
    10   116   115    2
    11   124   123    2
    12   131   134    1
    13   131   130    1
    14   144   146   ar
    15   144   145   ar
    16   118   120    1
    17   118   117    1
    18   115   114    1
    19   115   121   am
    20   134   135    1
    21   123   130   am
    22   123   122    1
    23   114   117    1
    24   114   113    1
    25   109   108    2
    26   122   121    1
    27   122   125    1
    28   137   135   ar
    29   135   136   ar
    30   108   113   am
    31   108   107    1
    32   128   127   ar
    33   126   125    1
    34   126   127    1
    35   127   129   ar
    36   106   107    1
    37   107   110    1
    38     1     2    1
    39   112   110    1
    40   101   100    2
    41   110   111    1
    42    83    82    2
    43   100    99    1
    44     2     3    1
    45     2     5    1
    46     6     5    1
    47     3     4    2
    48    81    82    1
    49    81    84    1
    50    81    80    1
    51    82    90   am
    52    84    85    1
    53     5     7    1
    54    99    98    1
    55    99   102    1
    56    92    91    1
    57    92    93    2
    58    90    91    1
    59    91    94    1
    60    85    86   ar
    61    85    87   ar
    62    15    13   ar
    63   102   103    1
    64    86    88   ar
    65    94    95    1
    66    87    89   ar
    67    13    12    1
    68    13    14   ar
    69    95    97    1
    70    95    96    1
    71    88    89   ar
    72   103   105    1
    73   103   104    1
    74    12     9    1
    75    21    20    1
    76     8     9    1
    77     9    10    1
    78    64    62    1
    79    11    10    2
    80    10    16   am
    81    63    62    1
    82    62    61    2
    83    46    44   ar
    84    46    45   ar
    85    61    60    1
    86    16    17    1
    87    60    59    1
    88    44    42   ar
    89    20    17    1
    90    17    18    1
    91    45    43   ar
    92    52    51    1
    93    59    58    1
    94    42    43   ar
    95    42    41    1
    96    58    55    1
    97    36    35    2
    98    78    79    1
    99    78    77    1
   100    18    22   am
   101    18    19    2
   102    57    56    2
   103    22    23    1
   104    41    38    1
   105    51    53    1
   106    51    48    1
   107    54    55    1
   108    54    49   am
   109    38    37    1
   110    38    39    1
   111    35    37   am
   112    35    34    1
   113    55    56    1
   114    47    48    1
   115    47    39   am
   116    79    73    1
   117    77    74    1
   118    56    65   am
   119    48    49    1
   120    39    40    2
   121    49    50    2
   122    34    33    1
   123    25    24    2
   124    23    26    1
   125    23    24    1
   126    73    74    1
   127    73    67   am
   128    26    27    1
   129    74    75    1
   130    65    66    1
   131    66    67    1
   132    66    69    1
   133    67    68    2
   134    75    76    2
   135    27    29   ar
   136    27    28   ar
   137    70    69    1
   138    70    72    1
   139    69    71    1
   140    29    31   ar
   141    28    30   ar
   142    31    32   ar
   143    30    32   ar
