@<TRIPOS>MOLECULE
tmp/5k27A00.pdb
 172 163 0 0 0
SMALL
GASTEIGER

@<TRIPOS>ATOM
      1  N         -5.1130   44.6630    6.2760 N.3   263  GLU263     -0.1231
      2  CA        -4.9590   43.4440    5.4930 C.3   263  GLU263      0.1699
      3  C         -6.3480   42.8680    5.2650 C.2   263  GLU263      0.2592
      4  O         -7.0560   42.5580    6.2280 O.2   263  GLU263     -0.2718
      5  CB        -4.0630   42.4300    6.2060 C.3   263  GLU263      0.0402
      6  CG        -4.1720   41.0000    5.6720 C.3   263  GLU263      0.1161
      7  CD        -3.5480   40.8170    4.2880 C.2   263  GLU263      0.3649
      8  OE1       -2.9050   41.7640    3.7910 O.co2 263  GLU263     -0.2457
      9  OE2       -3.6950   39.7230    3.6920 O.co2 263  GLU263     -0.2457
     10  N         -6.7430   42.7350    4.0040 N.am  264  PHE264     -0.1976
     11  CA        -8.1260   42.3930    3.6930 C.3   264  PHE264      0.1639
     12  C         -8.3410   40.8980    3.9150 C.2   264  PHE264      0.2290
     13  O         -7.8920   40.0720    3.1180 O.2   264  PHE264     -0.2864
     14  CB        -8.4790   42.8140    2.2690 C.3   264  PHE264      0.0560
     15  CG        -9.9520   42.9610    2.0460 C.ar  264  PHE264     -0.0200
     16  CD1      -10.7070   41.8870    1.5940 C.ar  264  PHE264     -0.0042
     17  CD2      -10.5910   44.1590    2.3200 C.ar  264  PHE264     -0.0042
     18  CE1      -12.0680   42.0080    1.4070 C.ar  264  PHE264     -0.0003
     19  CE2      -11.9550   44.2880    2.1400 C.ar  264  PHE264     -0.0003
     20  CZ       -12.6930   43.2140    1.6810 C.ar  264  PHE264     -0.0000
     21  N        -10.3440   37.1660    4.5750 N.3   266  SER266     -0.1217
     22  CA       -11.3100   36.3720    3.8120 C.3   266  SER266      0.1889
     23  C        -12.5760   36.2080    4.6460 C.2   266  SER266      0.2288
     24  O        -12.7910   35.2040    5.3290 O.2   266  SER266     -0.2866
     25  CB       -10.7200   35.0220    3.4250 C.3   266  SER266      0.2089
     26  OG        -9.9730   35.1130    2.2280 O.3   266  SER266     -0.2183
     27  N         -4.7440   39.2210   -1.2860 N.3   290  ASP290     -0.1239
     28  CA        -4.3350   38.2630   -2.3030 C.3   290  ASP290      0.1674
     29  C         -5.1640   38.4990   -3.5640 C.2   290  ASP290      0.2266
     30  O         -5.9180   39.4660   -3.6590 O.2   290  ASP290     -0.2867
     31  CB        -4.4490   36.8290   -1.7840 C.3   290  ASP290      0.1410
     32  CG        -5.8700   36.4310   -1.4360 C.2   290  ASP290      0.3668
     33  OD1       -6.7970   37.2240   -1.6720 O.co2 290  ASP290     -0.2456
     34  OD2       -6.0630   35.3040   -0.9240 O.co2 290  ASP290     -0.2456
     35  N         -9.1440   38.2010   -3.0010 N.3   293  GLU293     -0.1245
     36  CA        -9.8590   39.2560   -2.2920 C.3   293  GLU293      0.1567
     37  C         -9.9970   40.5200   -3.1210 C.2   293  GLU293      0.2260
     38  O        -11.0100   41.2170   -3.0000 O.2   293  GLU293     -0.2867
     39  CB        -9.1730   39.5720   -0.9630 C.3   293  GLU293      0.0388
     40  CG        -9.3680   38.4850    0.0700 C.3   293  GLU293      0.1160
     41  CD       -10.8220   38.0630    0.1960 C.2   293  GLU293      0.3649
     42  OE1      -11.6620   38.8950    0.6090 O.co2 293  GLU293     -0.2457
     43  OE2      -11.1220   36.8960   -0.1320 O.co2 293  GLU293     -0.2457
     44  N         -0.4980   40.1410   -3.0350 N.3   338  HIS338     -0.1226
     45  CA         0.4590   39.0520   -2.8990 C.3   338  HIS338      0.1752
     46  C         -0.1550   37.7380   -3.3670 C.2   338  HIS338      0.2597
     47  O         -1.3500   37.4930   -3.1730 O.2   338  HIS338     -0.2718
     48  CB         0.9670   38.9220   -1.4450 C.3   338  HIS338      0.0759
     49  CG        -0.1160   38.8910   -0.4090 C.ar  338  HIS338      0.0818
     50  ND1       -0.8160   37.7450   -0.0980 N.ar  338  HIS338     -0.2268
     51  CD2       -0.5980   39.8590    0.4090 C.ar  338  HIS338      0.1154
     52  CE1       -1.6930   38.0120    0.8540 C.ar  338  HIS338      0.1986
     53  NE2       -1.5820   39.2880    1.1780 N.ar  338  HIS338     -0.2212
     54  N          0.6930   36.9070   -3.9730 N.am  339  THR339     -0.1939
     55  CA         0.3600   35.5780   -4.4940 C.3   339  THR339      0.2028
     56  C          1.5800   34.6890   -4.2530 C.2   339  THR339      0.2642
     57  O          2.6470   35.1990   -3.9250 O.2   339  THR339     -0.2714
     58  CB         0.0270   35.5920   -5.9930 C.3   339  THR339      0.1808
     59  OG1        1.2230   35.8060   -6.7490 O.3   339  THR339     -0.2208
     60  CG2       -0.9760   36.6840   -6.3060 C.3   339  THR339      0.0379
     61  N          1.4410   33.3720   -4.3850 N.am  340  ILE340     -0.1977
     62  CA         2.5810   32.4990   -4.1260 C.3   340  ILE340      0.1596
     63  C          3.7680   32.8430   -5.0160 C.2   340  ILE340      0.2287
     64  O          4.9040   32.4880   -4.6880 O.2   340  ILE340     -0.2864
     65  CB         2.2060   31.0170   -4.3020 C.3   340  ILE340      0.0276
     66  CG1        1.6110   30.7900   -5.6890 C.3   340  ILE340      0.0022
     67  CG2        1.2510   30.5730   -3.1980 C.3   340  ILE340      0.0022
     68  CD1        1.2910   29.3480   -5.9830 C.3   340  ILE340      0.0001
     69  N          4.7800   39.6050   -5.3630 N.3   343  ILE343     -0.1245
     70  CA         4.1770   40.6600   -4.5600 C.3   343  ILE343      0.1561
     71  C          4.1630   41.9220   -5.4070 C.2   343  ILE343      0.2260
     72  O          5.1920   42.3020   -5.9710 O.2   343  ILE343     -0.2867
     73  CB         4.9470   40.9050   -3.2480 C.3   343  ILE343      0.0252
     74  CG1        5.3600   39.5840   -2.6230 C.3   343  ILE343      0.0019
     75  CG2        4.0880   41.6850   -2.2570 C.3   343  ILE343      0.0019
     76  CD1        5.8800   39.7270   -1.2230 C.3   343  ILE343      0.0001
     77  N          8.5090   36.6420    5.0420 N.3   369  ALA369     -0.1231
     78  CA         7.5310   35.6010    4.7500 C.3   369  ALA369      0.1694
     79  C          8.1950   34.2440    4.5730 C.2   369  ALA369      0.2591
     80  O          7.6540   33.2220    5.0100 O.2   369  ALA369     -0.2718
     81  CB         6.7500   35.9660    3.4960 C.3   369  ALA369      0.0304
     82  N          9.3590   34.2130    3.9180 N.am  370  ALA370     -0.1980
     83  CA        10.0340   32.9450    3.6790 C.3   370  ALA370      0.1597
     84  C         10.6410   32.3870    4.9560 C.2   370  ALA370      0.2287
     85  O         10.7220   31.1660    5.1150 O.2   370  ALA370     -0.2864
     86  CB        11.1060   33.1100    2.6000 C.3   370  ALA370      0.0319
     87  N          7.7040   30.7710    6.7170 N.3   373  ALA373     -0.1245
     88  CA         7.2020   29.6110    5.9890 C.3   373  ALA373      0.1562
     89  C          8.0940   28.3980    6.2080 C.2   373  ALA373      0.2260
     90  O          7.6030   27.2780    6.3860 O.2   373  ALA373     -0.2867
     91  CB         7.0910   29.9320    4.5010 C.3   373  ALA373      0.0290
     92  N          8.3070   36.1980   -5.4050 N.3   422  SER422     -0.1202
     93  CA         8.2870   35.7130   -4.0360 C.3   422  SER422      0.2020
     94  C          9.4030   34.7040   -3.8020 C.2   422  SER422      0.2619
     95  O          9.8520   34.0160   -4.7210 O.2   422  SER422     -0.2717
     96  CB         6.9440   35.0630   -3.7170 C.3   422  SER422      0.2103
     97  OG         6.7480   33.9130   -4.5110 O.3   422  SER422     -0.2182
     98  N          9.8500   34.6240   -2.5490 N.am  423  ARG423     -0.1965
     99  CA        10.7840   33.5830   -2.1230 C.3   423  ARG423      0.1729
    100  C          9.9590   32.3820   -1.6670 C.2   423  ARG423      0.2616
    101  O          9.6790   32.1820   -0.4850 O.2   423  ARG423     -0.2715
    102  CB        11.7100   34.0990   -1.0280 C.3   423  ARG423      0.0348
    103  CG        12.6640   35.1990   -1.4780 C.3   423  ARG423      0.0492
    104  CD        13.5090   35.7030   -0.3150 C.3   423  ARG423      0.2205
    105  NE        14.3460   36.8420   -0.6790 N.pl3 423  ARG423     -0.0865
    106  CZ        15.6180   36.7460   -1.0540 C.cat 423  ARG423      0.5346
    107  NH1       16.2040   35.5580   -1.1150 N.pl3 423  ARG423      0.1354
    108  NH2       16.3080   37.8360   -1.3660 N.pl3 423  ARG423      0.1354
    109  N          9.5600   31.5740   -2.6420 N.am  424  PHE424     -0.1960
    110  CA         8.6680   30.4530   -2.3900 C.3   424  PHE424      0.1771
    111  C          9.3860   29.3400   -1.6320 C.2   424  PHE424      0.2619
    112  O         10.5310   28.9960   -1.9370 O.2   424  PHE424     -0.2715
    113  CB         8.1210   29.9310   -3.7210 C.3   424  PHE424      0.0574
    114  CG         7.1060   28.8390   -3.5810 C.ar  424  PHE424     -0.0200
    115  CD1        5.8510   29.1040   -3.0610 C.ar  424  PHE424     -0.0042
    116  CD2        7.3990   27.5500   -3.9910 C.ar  424  PHE424     -0.0042
    117  CE1        4.9120   28.1020   -2.9360 C.ar  424  PHE424     -0.0003
    118  CE2        6.4660   26.5440   -3.8710 C.ar  424  PHE424     -0.0003
    119  CZ         5.2210   26.8180   -3.3410 C.ar  424  PHE424     -0.0000
    120  N          8.7180   28.7700   -0.6530 N.am  425  VAL425     -0.1977
    121  CA         9.2560   27.6630    0.0900 C.3   425  VAL425      0.1596
    122  C          8.4170   26.4820   -0.3020 C.2   425  VAL425      0.2287
    123  O          7.2620   26.4150    0.0110 O.2   425  VAL425     -0.2864
    124  CB         9.1110   27.9040    1.5580 C.3   425  VAL425      0.0276
    125  CG1        9.8010   26.8300    2.3330 C.3   425  VAL425      0.0022
    126  CG2        9.7520   29.2130    1.8760 C.3   425  VAL425      0.0022
    127  N          6.7490   23.8360    2.7760 N.3   428  PRO428     -0.2116
    128  CA         6.6700   24.7360    3.9260 C.3   428  PRO428      0.1372
    129  C          6.1980   24.0160    5.1750 C.2   428  PRO428      0.2244
    130  O          5.3810   23.0940    5.1250 O.2   428  PRO428     -0.2868
    131  CB         5.6460   25.7910    3.4820 C.3   428  PRO428      0.0268
    132  CG         4.9910   25.2330    2.2140 C.3   428  PRO428      0.0207
    133  CD         5.5020   23.8430    1.9970 C.3   428  PRO428      0.0892
    134  N          1.5160   27.3910    6.9300 N.3   431  THR431     -0.1218
    135  CA         0.9910   28.3030    5.9450 C.3   431  THR431      0.1862
    136  C         -0.0110   29.2810    6.5030 C.2   431  THR431      0.2287
    137  O         -0.4100   30.1880    5.8250 O.2   431  THR431     -0.2866
    138  CB         0.4040   27.5720    4.7330 C.3   431  THR431      0.1770
    139  OG1       -0.2250   28.5190    3.8780 O.3   431  THR431     -0.2211
    140  CG2       -0.6170   26.5350    5.1470 C.3   431  THR431      0.0375
    141  N         -1.7920   32.3510    8.2930 N.3   433  GLY433     -0.1210
    142  CA        -1.4010   33.7160    8.5830 C.3   433  GLY433      0.1956
    143  C         -0.1820   34.1920    7.8320 C.2   433  GLY433      0.2612
    144  O          0.4420   35.1800    8.2320 O.2   433  GLY433     -0.2717
    145  N          0.1920   33.5040    6.7550 N.am  434  LEU434     -0.1965
    146  CA         1.3060   33.9830    5.9520 C.3   434  LEU434      0.1728
    147  C          0.9700   35.3200    5.3000 C.2   434  LEU434      0.2617
    148  O          1.8510   36.1710    5.1430 O.2   434  LEU434     -0.2715
    149  CB         1.6770   32.9300    4.9090 C.3   434  LEU434      0.0311
    150  CG         3.1590   32.6980    4.6140 C.3   434  LEU434      0.0022
    151  CD1        3.9930   32.8540    5.8770 C.3   434  LEU434      0.0001
    152  CD2        3.3520   31.3110    4.0170 C.3   434  LEU434      0.0001
    153  N         -0.3050   35.5400    4.9680 N.am  435  GLY435     -0.1940
    154  CA        -0.6960   36.7980    4.3490 C.3   435  GLY435      0.2014
    155  C         -0.4670   37.9940    5.2520 C.2   435  GLY435      0.2638
    156  O          0.0370   39.0330    4.8110 O.2   435  GLY435     -0.2714
    157  N         -0.8370   37.8650    6.5320 N.am  436  ASP436     -0.1971
    158  CA        -0.5880   38.9440    7.4880 C.3   436  ASP436      0.1709
    159  C          0.9010   39.2070    7.6550 C.2   436  ASP436      0.2293
    160  O          1.3150   40.3530    7.8550 O.2   436  ASP436     -0.2864
    161  CB        -1.1990   38.6140    8.8480 C.3   436  ASP436      0.1436
    162  CG        -2.7080   38.6320    8.8370 C.2   436  ASP436      0.3671
    163  OD1       -3.3140   37.7860    9.5240 O.co2 436  ASP436     -0.2456
    164  OD2       -3.2940   39.5000    8.1630 O.co2 436  ASP436     -0.2456
    165  N          3.4460   38.7410    5.3650 N.3   438  ILE438     -0.1245
    166  CA         3.9170   39.4640    4.1840 C.3   438  ILE438      0.1561
    167  C          3.4220   40.9000    4.2030 C.2   438  ILE438      0.2260
    168  O          4.1910   41.8480    4.0120 O.2   438  ILE438     -0.2867
    169  CB         3.4480   38.7560    2.9040 C.3   438  ILE438      0.0252
    170  CG1        3.6550   37.2620    3.0230 C.3   438  ILE438      0.0019
    171  CG2        4.1910   39.2810    1.7130 C.3   438  ILE438      0.0019
    172  CD1        2.6890   36.5010    2.2190 C.3   438  ILE438      0.0001
@<TRIPOS>BOND
     1    59    58    1
     2    60    58    1
     3    58    55    1
     4    68    66    1
     5    72    71    2
     6    66    65    1
     7    71    70    1
     8    92    93    1
     9    69    70    1
    10    63    64    2
    11    63    62    1
    12    95    94    2
    13    70    73    1
    14    97    96    1
    15    55    56    1
    16    55    54    1
    17    61    56   am
    18    61    62    1
    19    65    62    1
    20    65    67    1
    21    56    57    2
    22    93    94    1
    23    93    96    1
    24   116   118   ar
    25   116   114   ar
    26    54    46   am
    27   118   119   ar
    28    94    98   am
    29   113   114    1
    30   113   110    1
    31    30    29    2
    32   114   115   ar
    33    29    28    1
    34    46    47    2
    35    46    45    1
    36   119   117   ar
    37    73    74    1
    38    73    75    1
    39    37    38    2
    40    37    36    1
    41   115   117   ar
    42    44    45    1
    43    35    36    1
    44    45    48    1
    45   109   110    1
    46   109   100   am
    47    74    76    1
    48    98    99    1
    49   110   111    1
    50    28    31    1
    51    28    27    1
    52    36    39    1
    53    99   100    1
    54    99   102    1
    55   112   111    2
    56    31    32    1
    57    33    32   ar
    58   100   101    2
    59   111   120   am
    60   103   102    1
    61   103   104    1
    62    48    49    1
    63    32    34   ar
    64   108   106    1
    65   107   106    1
    66   106   105    2
    67    39    40    1
    68   105   104    1
    69   120   121    1
    70    49    50   ar
    71    49    51   ar
    72   122   123    2
    73   122   121    1
    74    43    41   ar
    75    50    52   ar
    76    40    41    1
    77   121   124    1
    78    41    42   ar
    79    51    53   ar
    80    52    53   ar
    81    18    16   ar
    82    18    20   ar
    83   124   126    1
    84   124   125    1
    85    16    15   ar
    86    20    19   ar
    87   171   169    1
    88   133   132    1
    89   133   127    1
    90    15    14    1
    91    15    17   ar
    92    19    17   ar
    93   132   131    1
    94   172   170    1
    95    26    25    1
    96    14    11    1
    97    86    83    1
    98   127   128    1
    99   169   170    1
   100   169   166    1
   101    13    12    2
   102    25    22    1
   103   131   128    1
   104    81    78    1
   105    83    82    1
   106    83    84    1
   107     9     7   ar
   108    11    12    1
   109    11    10    1
   110     8     7   ar
   111    22    21    1
   112    22    23    1
   113   139   138    1
   114    82    79   am
   115   128   129    1
   116    10     3   am
   117   168   167    2
   118   152   150    1
   119   166   167    1
   120   166   165    1
   121     7     6    1
   122   154   153    1
   123   154   155    1
   124    91    88    1
   125    79    78    1
   126    79    80    2
   127   150   149    1
   128   150   151    1
   129    23    24    2
   130   138   140    1
   131   138   135    1
   132    78    77    1
   133   156   155    2
   134   149   146    1
   135    84    85    2
   136   153   147   am
   137   130   129    2
   138   148   147    2
   139   155   157   am
   140     3     2    1
   141     3     4    2
   142   147   146    1
   143     2     5    1
   144     2     1    1
   145     6     5    1
   146   137   136    2
   147   135   136    1
   148   135   134    1
   149   146   145    1
   150    88    89    1
   151    88    87    1
   152    89    90    2
   153   157   158    1
   154   145   143   am
   155   158   159    1
   156   158   161    1
   157   159   160    2
   158   143   144    2
   159   143   142    1
   160   164   162   ar
   161   141   142    1
   162   162   161    1
   163   162   163   ar
