@<TRIPOS>MOLECULE
tmp/5k2aA09.pdb
 182 173 0 0 0
SMALL
GASTEIGER

@<TRIPOS>ATOM
      1  N         10.9520   99.7190   55.4640 N.3    69  ILE69      -0.1245
      2  CA         9.9950  100.5230   54.7150 C.3    69  ILE69       0.1561
      3  C          9.0810  101.3250   55.6320 C.2    69  ILE69       0.2260
      4  O          8.4600  102.2970   55.1860 O.2    69  ILE69      -0.2867
      5  CB         9.1740   99.6300   53.7650 C.3    69  ILE69       0.0252
      6  CG1        8.5420  100.4740   52.6590 C.3    69  ILE69       0.0019
      7  CG2        8.1000   98.8660   54.5300 C.3    69  ILE69       0.0019
      8  CD1        7.8990   99.6580   51.5660 C.3    69  ILE69       0.0001
      9  N          7.6130   90.4600   49.9300 N.3    87  VAL87      -0.1231
     10  CA         6.7680   89.6160   50.7710 C.3    87  VAL87       0.1692
     11  C          5.6260   89.0160   49.9580 C.2    87  VAL87       0.2591
     12  O          5.1130   87.9410   50.2960 O.2    87  VAL87      -0.2718
     13  CB         6.2500   90.4180   51.9840 C.3    87  VAL87       0.0266
     14  CG1        5.2820   91.5110   51.5410 C.3    87  VAL87       0.0020
     15  CG2        5.6080   89.4920   53.0090 C.3    87  VAL87       0.0020
     16  N          5.2160   89.6850   48.8740 N.am   88  LEU88      -0.1980
     17  CA         4.1760   89.1320   48.0130 C.3    88  LEU88       0.1596
     18  C          4.6610   87.8860   47.2890 C.2    88  LEU88       0.2287
     19  O          3.8570   86.9990   46.9790 O.2    88  LEU88      -0.2864
     20  CB         3.7050   90.1810   47.0030 C.3    88  LEU88       0.0297
     21  CG         3.1940   91.5040   47.5730 C.3    88  LEU88       0.0022
     22  CD1        2.7420   92.4270   46.4530 C.3    88  LEU88       0.0001
     23  CD2        2.0700   91.2690   48.5700 C.3    88  LEU88       0.0001
     24  N          4.3510   85.1160   49.9890 N.3    91  THR91      -0.1218
     25  CA         2.9560   84.7640   50.2380 C.3    91  THR91       0.1862
     26  C          2.3740   83.9690   49.0770 C.2    91  THR91       0.2287
     27  O          1.6090   83.0200   49.2890 O.2    91  THR91      -0.2866
     28  CB         2.1300   86.0260   50.4880 C.3    91  THR91       0.1770
     29  OG1        2.7870   86.8400   51.4650 O.3    91  THR91      -0.2211
     30  CG2        0.7520   85.6600   51.0020 C.3    91  THR91       0.0375
     31  N          5.9610  114.8780   50.1580 N.3   156  LYS156     -0.1245
     32  CA         6.7380  113.9750   51.0010 C.3   156  LYS156      0.1561
     33  C          8.1850  113.8830   50.5320 C.2   156  LYS156      0.2260
     34  O          9.1020  113.7610   51.3530 O.2   156  LYS156     -0.2867
     35  CB         6.1000  112.5850   51.0140 C.3   156  LYS156      0.0271
     36  CG         4.6810  112.5320   51.5560 C.3   156  LYS156      0.0035
     37  CD         4.1640  111.1000   51.5510 C.3   156  LYS156      0.0206
     38  CE         2.7080  111.0280   51.9700 C.3   156  LYS156      0.1093
     39  NZ         2.1800  109.6390   51.8790 N.3   156  LYS156     -0.1314
     40  N          7.2730  104.6020   50.9450 N.3   170  LEU170     -0.1231
     41  CA         6.0930  104.1900   51.6920 C.3   170  LEU170      0.1693
     42  C          5.2360  103.3050   50.7980 C.2   170  LEU170      0.2592
     43  O          5.0910  103.5780   49.6030 O.2   170  LEU170     -0.2718
     44  CB         5.2990  105.4030   52.1890 C.3   170  LEU170      0.0284
     45  CG         6.0140  106.2570   53.2400 C.3   170  LEU170      0.0019
     46  CD1        5.2660  107.5580   53.4850 C.3   170  LEU170      0.0001
     47  CD2        6.1750  105.4770   54.5360 C.3   170  LEU170      0.0001
     48  N          4.6700  102.2470   51.3860 N.am  171  PHE171     -0.1962
     49  CA         4.0340  101.1960   50.5930 C.3   171  PHE171      0.1771
     50  C          2.9180  101.7520   49.7160 C.2   171  PHE171      0.2619
     51  O          2.9050  101.5350   48.4980 O.2   171  PHE171     -0.2715
     52  CB         3.5020  100.0940   51.5130 C.3   171  PHE171      0.0574
     53  CG         2.9540   98.9010   50.7790 C.ar  171  PHE171     -0.0200
     54  CD1        1.6360   98.8740   50.3500 C.ar  171  PHE171     -0.0042
     55  CD2        3.7600   97.8040   50.5180 C.ar  171  PHE171     -0.0042
     56  CE1        1.1380   97.7790   49.6710 C.ar  171  PHE171     -0.0003
     57  CE2        3.2660   96.7040   49.8430 C.ar  171  PHE171     -0.0003
     58  CZ         1.9550   96.6910   49.4190 C.ar  171  PHE171     -0.0000
     59  N          1.9740  102.4760   50.3130 N.am  172  GLU172     -0.1977
     60  CA         0.8050  102.9300   49.5680 C.3   172  GLU172      0.1602
     61  C          1.0980  104.0840   48.6180 C.2   172  GLU172      0.2287
     62  O          0.1770  104.5410   47.9340 O.2   172  GLU172     -0.2864
     63  CB        -0.3130  103.3290   50.5370 C.3   172  GLU172      0.0415
     64  CG        -0.9610  102.1490   51.2520 C.3   172  GLU172      0.1163
     65  CD        -2.1980  102.5450   52.0410 C.2   172  GLU172      0.3649
     66  OE1       -2.6540  103.6990   51.9010 O.co2 172  GLU172     -0.2457
     67  OE2       -2.7170  101.7010   52.8030 O.co2 172  GLU172     -0.2457
     68  N         -3.0420  100.5710   44.3140 N.3   177  MET177     -0.1245
     69  CA        -4.0490   99.8330   45.0670 C.3   177  MET177      0.1570
     70  C         -4.9360   98.9740   44.1750 C.2   177  MET177      0.2261
     71  O         -5.5590   98.0310   44.6710 O.2   177  MET177     -0.2867
     72  CB        -4.9070  100.7980   45.8890 C.3   177  MET177      0.0387
     73  CG        -5.5910  100.1470   47.0840 C.3   177  MET177      0.0595
     74  SD        -4.4220   99.4140   48.2460 S.3   177  MET177     -0.1393
     75  CE        -3.5850  100.8760   48.8540 C.3   177  MET177      0.0692
     76  N         -3.1580   95.6880   44.0970 N.3   180  MET180     -0.1245
     77  CA        -3.2980   94.9570   45.3510 C.3   180  MET180      0.1570
     78  C         -4.6740   94.3140   45.4780 C.2   180  MET180      0.2261
     79  O         -4.7990   93.1930   45.9820 O.2   180  MET180     -0.2867
     80  CB        -3.0390   95.8910   46.5330 C.3   180  MET180      0.0387
     81  CG        -1.5830   96.2860   46.7170 C.3   180  MET180      0.0595
     82  SD        -0.5040   94.8540   46.8970 S.3   180  MET180     -0.1393
     83  CE        -1.3100   93.9840   48.2390 C.3   180  MET180      0.0692
     84  N         -3.7790   91.0580   43.0630 N.3   184  ASN184     -0.1240
     85  CA        -3.2110   90.2500   44.1350 C.3   184  ASN184      0.1653
     86  C         -4.2990   89.5640   44.9540 C.2   184  ASN184      0.2266
     87  O         -4.2780   88.3400   45.1280 O.2   184  ASN184     -0.2867
     88  CB        -2.3220   91.1210   45.0280 C.3   184  ASN184      0.1155
     89  CG        -1.4370   90.3000   45.9490 C.2   184  ASN184      0.2627
     90  OD1       -1.7660   90.0830   47.1140 O.2   184  ASN184     -0.2716
     91  ND2       -0.3060   89.8380   45.4280 N.am  184  ASN184     -0.0877
     92  N         -4.1720   86.7760   56.9350 N.3   336  TRP336     -0.1241
     93  CA        -3.9400   87.6400   55.7830 C.3   336  TRP336      0.1605
     94  C         -5.1660   88.4070   55.3150 C.2   336  TRP336      0.2264
     95  O         -5.0120   89.4570   54.6890 O.2   336  TRP336     -0.2867
     96  CB        -3.3950   86.8200   54.6070 C.3   336  TRP336      0.0550
     97  CG        -1.9270   86.5640   54.7050 C.ar  336  TRP336      0.0003
     98  CD1       -1.3170   85.4040   55.0850 C.ar  336  TRP336      0.0946
     99  CD2       -0.8770   87.4990   54.4260 C.ar  336  TRP336      0.0152
    100  NE1        0.0490   85.5580   55.0540 N.ar  336  TRP336     -0.2442
    101  CE2        0.3450   86.8350   54.6530 C.ar  336  TRP336      0.0810
    102  CE3       -0.8520   88.8310   54.0030 C.ar  336  TRP336      0.0012
    103  CZ2        1.5780   87.4590   54.4700 C.ar  336  TRP336      0.0191
    104  CZ3        0.3760   89.4490   53.8230 C.ar  336  TRP336      0.0001
    105  CH2        1.5720   88.7630   54.0550 C.ar  336  TRP336      0.0015
    106  N         -5.5700   92.3990   56.2460 N.3   339  LEU339     -0.1231
    107  CA        -4.8090   93.3240   55.4130 C.3   339  LEU339      0.1693
    108  C         -5.4960   93.5440   54.0700 C.2   339  LEU339      0.2592
    109  O         -5.6390   94.6830   53.6090 O.2   339  LEU339     -0.2718
    110  CB        -3.3890   92.7900   55.2250 C.3   339  LEU339      0.0284
    111  CG        -2.2400   93.7780   55.0260 C.3   339  LEU339      0.0019
    112  CD1       -2.4590   95.0340   55.8490 C.3   339  LEU339      0.0001
    113  CD2       -0.9250   93.1120   55.4110 C.3   339  LEU339      0.0001
    114  N         -5.9380   92.4570   53.4290 N.am  340  HIS340     -0.1976
    115  CA        -6.6320   92.5750   52.1490 C.3   340  HIS340      0.1656
    116  C         -7.9340   93.3540   52.2880 C.2   340  HIS340      0.2291
    117  O         -8.2740   94.1700   51.4230 O.2   340  HIS340     -0.2864
    118  CB        -6.9140   91.1870   51.5740 C.3   340  HIS340      0.0771
    119  CG        -5.6920   90.4640   51.1020 C.ar  340  HIS340      0.0820
    120  ND1       -4.9710   90.8650   49.9980 N.ar  340  HIS340     -0.2267
    121  CD2       -5.0770   89.3520   51.5700 C.ar  340  HIS340      0.1154
    122  CE1       -3.9580   90.0380   49.8130 C.ar  340  HIS340      0.1986
    123  NE2       -4.0000   89.1110   50.7530 N.ar  340  HIS340     -0.2212
    124  N         -7.3070   97.0220   52.5520 N.3   343  ASN343     -0.1240
    125  CA        -7.0150   97.5630   51.2270 C.3   343  ASN343      0.1653
    126  C         -8.2880   97.7810   50.4170 C.2   343  ASN343      0.2266
    127  O         -8.3700   98.7230   49.6190 O.2   343  ASN343     -0.2867
    128  CB        -6.0610   96.6330   50.4800 C.3   343  ASN343      0.1155
    129  CG        -4.6450   96.7120   51.0050 C.2   343  ASN343      0.2627
    130  OD1       -4.2780   97.6660   51.6880 O.2   343  ASN343     -0.2716
    131  ND2       -3.8350   95.7140   50.6750 N.am  343  ASN343     -0.0877
    132  N         -9.0760  106.9470   56.0830 N.3   354  HIS354     -0.1226
    133  CA        -8.1390  105.8370   56.0280 C.3   354  HIS354      0.1752
    134  C         -8.0620  105.1430   57.3830 C.2   354  HIS354      0.2595
    135  O         -8.2090  105.7690   58.4360 O.2   354  HIS354     -0.2718
    136  CB        -6.7510  106.3250   55.6070 C.3   354  HIS354      0.0759
    137  CG        -5.8540  105.2370   55.1020 C.ar  354  HIS354      0.0818
    138  ND1       -5.2930  104.2880   55.9300 N.ar  354  HIS354     -0.2268
    139  CD2       -5.4190  104.9490   53.8520 C.ar  354  HIS354      0.1154
    140  CE1       -4.5540  103.4620   55.2120 C.ar  354  HIS354      0.1986
    141  NE2       -4.6140  103.8410   53.9480 N.ar  354  HIS354     -0.2212
    142  N         -7.8530  103.8340   57.3430 N.am  355  ALA355     -0.1980
    143  CA        -7.6550  103.0750   58.5660 C.3   355  ALA355      0.1597
    144  C         -6.4830  103.6620   59.3500 C.2   355  ALA355      0.2287
    145  O         -5.4660  104.0360   58.7520 O.2   355  ALA355     -0.2864
    146  CB        -7.3920  101.6030   58.2400 C.3   355  ALA355      0.0319
    147  N         -3.1240  104.3700   61.6490 N.3   357  LEU357     -0.1245
    148  CA        -1.7900  103.8010   61.4890 C.3   357  LEU357      0.1561
    149  C         -1.5990  102.5740   62.3730 C.2   357  LEU357      0.2260
    150  O         -1.0190  101.5710   61.9370 O.2   357  LEU357     -0.2867
    151  CB        -0.7320  104.8590   61.8070 C.3   357  LEU357      0.0270
    152  CG         0.6450  104.6670   61.1720 C.3   357  LEU357      0.0019
    153  CD1        0.5970  105.0000   59.6910 C.3   357  LEU357      0.0001
    154  CD2        1.6910  105.5110   61.8840 C.3   357  LEU357      0.0001
    155  N         -3.1460   99.5630   60.7840 N.3   360  MET360     -0.1230
    156  CA        -2.3710   99.1020   59.6370 C.3   360  MET360      0.1702
    157  C         -1.2380   98.1870   60.0800 C.2   360  MET360      0.2592
    158  O         -1.0430   97.1010   59.5230 O.2   360  MET360     -0.2718
    159  CB        -1.8120  100.2960   58.8610 C.3   360  MET360      0.0401
    160  CG        -2.8620  101.1950   58.2360 C.3   360  MET360      0.0596
    161  SD        -3.9280  100.3170   57.0830 S.3   360  MET360     -0.1393
    162  CE        -2.7210   99.5170   56.0280 C.3   360  MET360      0.0692
    163  N         -0.4890   98.6070   61.1000 N.am  361  TYR361     -0.1976
    164  CA         0.6530   97.8300   61.5570 C.3   361  TYR361      0.1639
    165  C          0.2520   96.6420   62.4180 C.2   361  TYR361      0.2290
    166  O          1.0360   95.6960   62.5410 O.2   361  TYR361     -0.2864
    167  CB         1.6330   98.7340   62.3040 C.3   361  TYR361      0.0560
    168  CG         2.4260   99.6060   61.3640 C.ar  361  TYR361     -0.0198
    169  CD1        3.4770   99.0780   60.6260 C.ar  361  TYR361     -0.0009
    170  CD2        2.1150  100.9480   61.1940 C.ar  361  TYR361     -0.0009
    171  CE1        4.2020   99.8610   59.7540 C.ar  361  TYR361      0.0417
    172  CE2        2.8360  101.7420   60.3240 C.ar  361  TYR361      0.0417
    173  CZ         3.8790  101.1920   59.6060 C.ar  361  TYR361      0.1957
    174  OH         4.6040  101.9730   58.7380 O.3   361  TYR361     -0.2866
    175  N         -0.3020   94.1790   59.6480 N.3   364  ILE364     -0.1245
    176  CA         0.9940   93.7410   59.1360 C.3   364  ILE364      0.1561
    177  C          1.6220   92.7330   60.0890 C.2   364  ILE364      0.2260
    178  O          2.1040   91.6720   59.6730 O.2   364  ILE364     -0.2867
    179  CB         1.9200   94.9490   58.9060 C.3   364  ILE364      0.0252
    180  CG1        1.3760   95.8380   57.7860 C.3   364  ILE364      0.0019
    181  CG2        3.3350   94.4800   58.5950 C.3   364  ILE364      0.0019
    182  CD1        2.1180   97.1450   57.6320 C.3   364  ILE364      0.0001
@<TRIPOS>BOND
     1    84    85    1
     2    76    77    1
     3    85    86    1
     4    85    88    1
     5    70    71    2
     6    70    69    1
     7    68    69    1
     8    86    87    2
     9    88    89    1
    10    69    72    1
    11    77    78    1
    12    77    80    1
    13    91    89   am
    14    78    79    2
    15    72    73    1
    16    89    90    2
    17    22    21    1
    18    80    81    1
    19    81    82    1
    20    82    83    1
    21    19    18    2
    22    20    21    1
    23    20    17    1
    24    73    74    1
    25    18    17    1
    26    21    23    1
    27    62    61    2
    28    17    16    1
    29    74    75    1
    30    51    50    2
    31    61    60    1
    32    16    11   am
    33    26    27    2
    34    26    25    1
    35    58    56   ar
    36    58    57   ar
    37    60    59    1
    38    60    63    1
    39    43    42    2
    40   127   126    2
    41    56    54   ar
    42    50    59   am
    43    50    49    1
    44   122   120   ar
    45   122   123   ar
    46    57    55   ar
    47     9    10    1
    48    11    12    2
    49    11    10    1
    50    24    25    1
    51   120   119   ar
    52    31    32    1
    53    25    28    1
    54    54    53   ar
    55   126   125    1
    56   128   129    1
    57   128   125    1
    58    28    30    1
    59    28    29    1
    60    55    53   ar
    61    33    32    1
    62    33    34    2
    63    63    64    1
    64    49    48    1
    65    49    52    1
    66   131   129   am
    67   123   121   ar
    68    10    13    1
    69    53    52    1
    70    42    48   am
    71    42    41    1
    72    40    41    1
    73    32    35    1
    74   129   130    2
    75    35    36    1
    76   119   121   ar
    77   119   118    1
    78   125   124    1
    79    64    65    1
    80   117   116    2
    81    14    13    1
    82    37    36    1
    83    37    38    1
    84     8     6    1
    85   118   115    1
    86    41    44    1
    87    39    38    1
    88    66    65   ar
    89    13    15    1
    90    65    67   ar
    91   115   116    1
    92   115   114    1
    93    44    45    1
    94     6     5    1
    95    45    46    1
    96    45    47    1
    97   114   108   am
    98   109   108    2
    99     5     7    1
   100     5     2    1
   101   104   102   ar
   102   104   105   ar
   103   139   141   ar
   104   139   137   ar
   105   141   140   ar
   106   102    99   ar
   107   105   103   ar
   108   108   107    1
   109    99   101   ar
   110    99    97   ar
   111   103   101   ar
   112    96    97    1
   113    96    93    1
   114   101   100   ar
   115    95    94    2
   116    97    98   ar
   117     2     1    1
   118     2     3    1
   119   111   110    1
   120   111   113    1
   121   111   112    1
   122   100    98   ar
   123   137   136    1
   124   137   138   ar
   125     4     3    2
   126   140   138   ar
   127   110   107    1
   128    94    93    1
   129   107   106    1
   130   136   133    1
   131    93    92    1
   132   162   161    1
   133   133   132    1
   134   133   134    1
   135   161   160    1
   136   142   134   am
   137   142   143    1
   138   134   135    2
   139   182   180    1
   140   180   179    1
   141   160   159    1
   142   146   143    1
   143   143   144    1
   144   181   179    1
   145   174   173    1
   146   145   144    2
   147   159   156    1
   148   179   176    1
   149   176   175    1
   150   176   177    1
   151   158   157    2
   152   173   171   ar
   153   173   172   ar
   154   156   157    1
   155   156   155    1
   156   178   177    2
   157   153   152    1
   158   171   169   ar
   159   157   163   am
   160   172   170   ar
   161   169   168   ar
   162   163   164    1
   163   152   151    1
   164   152   154    1
   165   170   168   ar
   166   168   167    1
   167   148   147    1
   168   148   151    1
   169   148   149    1
   170   164   167    1
   171   164   165    1
   172   150   149    2
   173   165   166    2
