@<TRIPOS>MOLECULE
tmp/5k2aA00.pdb
 98 95 0 0 0
SMALL
GASTEIGER

@<TRIPOS>ATOM
      1  N          7.1630  109.8210   67.3930 N.3     5  PRO5       -0.2116
      2  CA         6.9070  108.5930   66.6230 C.3     5  PRO5        0.1372
      3  C          7.8680  107.4550   66.9280 C.2     5  PRO5        0.2244
      4  O          7.5590  106.3050   66.5950 O.2     5  PRO5       -0.2868
      5  CB         7.0370  109.0610   65.1650 C.3     5  PRO5        0.0268
      6  CG         7.8430  110.3210   65.2340 C.3     5  PRO5        0.0207
      7  CD         7.4580  110.9720   66.5240 C.3     5  PRO5        0.0892
      8  N          6.1450  104.5590   69.4630 N.3     8  GLY8       -0.1210
      9  CA         5.3580  103.5200   68.8200 C.3     8  GLY8        0.1956
     10  C          6.1810  102.6740   67.8670 C.2     8  GLY8        0.2612
     11  O          5.9330  101.4750   67.7160 O.2     8  GLY8       -0.2717
     12  N          7.1730  103.2860   67.2100 N.am    9  SER9       -0.1952
     13  CA         8.0610  102.5270   66.3350 C.3     9  SER9        0.1924
     14  C          8.8400  101.4790   67.1180 C.2     9  SER9        0.2314
     15  O          9.0780  100.3720   66.6200 O.2     9  SER9       -0.2863
     16  CB         9.0200  103.4680   65.6050 C.3     9  SER9        0.2116
     17  OG         8.3140  104.3810   64.7820 O.3     9  SER9       -0.2180
     18  N          7.8520   99.8250   69.7410 N.3    11  VAL11      -0.1231
     19  CA         6.9660   98.6910   69.9970 C.3    11  VAL11       0.1692
     20  C          6.8480   97.8190   68.7530 C.2    11  VAL11       0.2592
     21  O          6.9360   96.5870   68.8240 O.2    11  VAL11      -0.2718
     22  CB         5.5870   99.1830   70.4720 C.3    11  VAL11       0.0266
     23  CG1        4.6230   98.0100   70.6260 C.3    11  VAL11       0.0020
     24  CG2        5.7170   99.9420   71.7830 C.3    11  VAL11       0.0020
     25  N          6.6520   98.4500   67.5920 N.am   12  TYR12      -0.1976
     26  CA         6.4670   97.7000   66.3550 C.3    12  TYR12       0.1639
     27  C          7.7250   96.9230   65.9820 C.2    12  TYR12       0.2290
     28  O          7.6470   95.7500   65.5980 O.2    12  TYR12      -0.2864
     29  CB         6.0550   98.6550   65.2320 C.3    12  TYR12       0.0560
     30  CG         6.1560   98.0710   63.8420 C.ar   12  TYR12      -0.0198
     31  CD1        5.2710   97.0900   63.4130 C.ar   12  TYR12      -0.0009
     32  CD2        7.1260   98.5130   62.9550 C.ar   12  TYR12      -0.0009
     33  CE1        5.3590   96.5580   62.1420 C.ar   12  TYR12       0.0417
     34  CE2        7.2220   97.9880   61.6830 C.ar   12  TYR12       0.0417
     35  CZ         6.3370   97.0100   61.2800 C.ar   12  TYR12       0.1957
     36  OH         6.4290   96.4840   60.0130 O.3    12  TYR12      -0.2866
     37  N          8.2310   93.8610   68.3530 N.3    15  VAL15      -0.1245
     38  CA         7.2940   92.7750   68.0710 C.3    15  VAL15       0.1561
     39  C          7.6780   92.0570   66.7820 C.2    15  VAL15       0.2260
     40  O          7.6440   90.8230   66.7060 O.2    15  VAL15      -0.2867
     41  CB         5.8530   93.3140   68.0130 C.3    15  VAL15       0.0252
     42  CG1        4.8990   92.2330   67.5270 C.3    15  VAL15       0.0019
     43  CG2        5.4310   93.8270   69.3780 C.3    15  VAL15       0.0019
     44  N          8.9820  100.9500   56.9090 N.3    70  SER70      -0.1217
     45  CA         8.1710  101.7200   57.8450 C.3    70  SER70       0.1889
     46  C          8.7850  103.0780   58.1570 C.2    70  SER70       0.2288
     47  O          8.0730  103.9760   58.6200 O.2    70  SER70      -0.2866
     48  CB         7.9660  100.9340   59.1410 C.3    70  SER70       0.2089
     49  OG         9.1650  100.8670   59.8950 O.3    70  SER70      -0.2183
     50  N         -3.1240  104.3700   61.6490 N.3   357  LEU357     -0.1231
     51  CA        -1.7900  103.8010   61.4890 C.3   357  LEU357      0.1693
     52  C         -1.5990  102.5740   62.3730 C.2   357  LEU357      0.2592
     53  O         -1.0190  101.5710   61.9370 O.2   357  LEU357     -0.2718
     54  CB        -0.7320  104.8590   61.8070 C.3   357  LEU357      0.0284
     55  CG         0.6450  104.6670   61.1720 C.3   357  LEU357      0.0019
     56  CD1        0.5970  105.0000   59.6910 C.3   357  LEU357      0.0001
     57  CD2        1.6910  105.5110   61.8840 C.3   357  LEU357      0.0001
     58  N         -2.0870  102.6280   63.6140 N.am  358  TRP358     -0.1976
     59  CA        -1.8940  101.5060   64.5260 C.3   358  TRP358      0.1640
     60  C         -2.6150  100.2550   64.0360 C.2   358  TRP358      0.2290
     61  O         -2.1410   99.1360   64.2640 O.2   358  TRP358     -0.2864
     62  CB        -2.3620  101.8830   65.9340 C.3   358  TRP358      0.0576
     63  CG        -3.8400  102.1450   66.0390 C.ar  358  TRP358      0.0006
     64  CD1       -4.4650  103.3570   65.9710 C.ar  358  TRP358      0.0946
     65  CD2       -4.8770  101.1710   66.2390 C.ar  358  TRP358      0.0152
     66  NE1       -5.8230  103.1990   66.1120 N.ar  358  TRP358     -0.2442
     67  CE2       -6.1020  101.8680   66.2770 C.ar  358  TRP358      0.0810
     68  CE3       -4.8890   99.7790   66.3860 C.ar  358  TRP358      0.0012
     69  CZ2       -7.3250  101.2200   66.4570 C.ar  358  TRP358      0.0191
     70  CZ3       -6.1060   99.1370   66.5640 C.ar  358  TRP358      0.0001
     71  CH2       -7.3060   99.8590   66.5980 C.ar  358  TRP358      0.0015
     72  N         -0.4890   98.6070   61.1000 N.3   361  TYR361     -0.1227
     73  CA         0.6530   97.8300   61.5570 C.3   361  TYR361      0.1736
     74  C          0.2520   96.6420   62.4180 C.2   361  TYR361      0.2595
     75  O          1.0360   95.6960   62.5410 O.2   361  TYR361     -0.2718
     76  CB         1.6330   98.7340   62.3040 C.3   361  TYR361      0.0548
     77  CG         2.4260   99.6060   61.3640 C.ar  361  TYR361     -0.0200
     78  CD1        3.4770   99.0780   60.6260 C.ar  361  TYR361     -0.0009
     79  CD2        2.1150  100.9480   61.1940 C.ar  361  TYR361     -0.0009
     80  CE1        4.2020   99.8610   59.7540 C.ar  361  TYR361      0.0417
     81  CE2        2.8360  101.7420   60.3240 C.ar  361  TYR361      0.0417
     82  CZ         3.8790  101.1920   59.6060 C.ar  361  TYR361      0.1957
     83  OH         4.6040  101.9730   58.7380 O.3   361  TYR361     -0.2866
     84  N         -0.9450   96.6600   63.0060 N.am  362  LEU362     -0.1980
     85  CA        -1.4510   95.4520   63.6490 C.3   362  LEU362      0.1596
     86  C         -1.7690   94.3800   62.6150 C.2   362  LEU362      0.2287
     87  O         -1.5070   93.1930   62.8400 O.2   362  LEU362     -0.2864
     88  CB        -2.6880   95.7810   64.4870 C.3   362  LEU362      0.0297
     89  CG        -3.2770   94.6360   65.3150 C.3   362  LEU362      0.0022
     90  CD1       -2.2930   94.1780   66.3800 C.3   362  LEU362      0.0001
     91  CD2       -4.6010   95.0450   65.9430 C.3   362  LEU362      0.0001
     92  N          1.6190   93.0510   61.3860 N.3   365  VAL365     -0.1245
     93  CA         2.1550   92.1340   62.3860 C.3   365  VAL365      0.1561
     94  C          1.3880   90.8170   62.3700 C.2   365  VAL365      0.2260
     95  O          1.9820   89.7340   62.4510 O.2   365  VAL365     -0.2867
     96  CB         2.1270   92.7940   63.7780 C.3   365  VAL365      0.0252
     97  CG1        2.2690   91.7530   64.8720 C.3   365  VAL365      0.0019
     98  CG2        3.2300   93.8350   63.8890 C.3   365  VAL365      0.0019
@<TRIPOS>BOND
     1    44    45    1
     2    45    46    1
     3    45    48    1
     4    46    47    2
     5    83    82    1
     6    48    49    1
     7    82    80   ar
     8    82    81   ar
     9    56    55    1
    10    80    78   ar
    11    36    35    1
    12    81    79   ar
    13    78    77   ar
    14    72    73    1
    15    55    54    1
    16    55    57    1
    17    79    77   ar
    18    35    34   ar
    19    35    33   ar
    20    77    76    1
    21    92    93    1
    22    51    50    1
    23    51    54    1
    24    51    52    1
    25    73    76    1
    26    73    74    1
    27    34    32   ar
    28    53    52    2
    29    33    31   ar
    30    94    93    1
    31    94    95    2
    32    52    58   am
    33    93    96    1
    34    74    75    2
    35    74    84   am
    36    86    87    2
    37    86    85    1
    38    32    30   ar
    39    84    85    1
    40    31    30   ar
    41    58    59    1
    42    85    88    1
    43    96    98    1
    44    96    97    1
    45    30    29    1
    46    60    61    2
    47    60    59    1
    48    88    89    1
    49    59    62    1
    50    17    16    1
    51     5     6    1
    52     5     2    1
    53    29    26    1
    54     6     7    1
    55    89    91    1
    56    89    90    1
    57    28    27    2
    58    16    13    1
    59    62    63    1
    60    64    63   ar
    61    64    66   ar
    62    27    26    1
    63    63    65   ar
    64    66    67   ar
    65    65    67   ar
    66    65    68   ar
    67    67    69   ar
    68    13    14    1
    69    13    12    1
    70    26    25    1
    71    68    70   ar
    72    69    71   ar
    73     7     1    1
    74    70    71   ar
    75     4     3    2
    76    15    14    2
    77     2     3    1
    78     2     1    1
    79    40    39    2
    80    39    38    1
    81    12    10   am
    82    42    41    1
    83    25    20   am
    84    11    10    2
    85    10     9    1
    86    41    38    1
    87    41    43    1
    88    38    37    1
    89    20    21    2
    90    20    19    1
    91     9     8    1
    92    18    19    1
    93    19    22    1
    94    22    23    1
    95    22    24    1
