@<TRIPOS>MOLECULE
tmp/5k2aA16.pdb
 104 98 0 0 0
SMALL
GASTEIGER

@<TRIPOS>ATOM
      1  N          7.2660   67.4720   50.9120 N.3    46  TYR46      -0.1241
      2  CA         8.1570   68.3290   50.1390 C.3    46  TYR46       0.1605
      3  C          7.5560   69.7140   49.9600 C.2    46  TYR46       0.2264
      4  O          8.2860   70.7120   49.9430 O.2    46  TYR46      -0.2867
      5  CB         8.4660   67.7040   48.7770 C.3    46  TYR46       0.0534
      6  CG         9.2450   66.4080   48.8420 C.ar   46  TYR46      -0.0201
      7  CD1        9.8310   65.9810   50.0280 C.ar   46  TYR46      -0.0009
      8  CD2        9.4000   65.6130   47.7140 C.ar   46  TYR46      -0.0009
      9  CE1       10.5420   64.7950   50.0900 C.ar   46  TYR46       0.0417
     10  CE2       10.1110   64.4260   47.7650 C.ar   46  TYR46       0.0417
     11  CZ        10.6800   64.0220   48.9560 C.ar   46  TYR46       0.1957
     12  OH        11.3880   62.8420   49.0120 O.3    46  TYR46      -0.2866
     13  N          7.9800   71.4880   53.2640 N.3    49  VAL49      -0.1231
     14  CA         9.3040   72.0900   53.3860 C.3    49  VAL49       0.1692
     15  C          9.3930   73.3700   52.5600 C.2    49  VAL49       0.2592
     16  O          9.9290   74.3850   53.0220 O.2    49  VAL49      -0.2718
     17  CB        10.3880   71.0750   52.9840 C.3    49  VAL49       0.0266
     18  CG1       11.7320   71.7600   52.8810 C.3    49  VAL49       0.0020
     19  CG2       10.4440   69.9380   53.9950 C.3    49  VAL49       0.0020
     20  N          8.8770   73.3450   51.3290 N.am   50  SER50      -0.1952
     21  CA         8.8090   74.5680   50.5340 C.3    50  SER50       0.1924
     22  C          8.0050   75.6470   51.2520 C.2    50  SER50       0.2314
     23  O          8.3400   76.8360   51.1830 O.2    50  SER50      -0.2863
     24  CB         8.2040   74.2630   49.1650 C.3    50  SER50       0.2116
     25  OG         7.9950   75.4500   48.4230 O.3    50  SER50      -0.2180
     26  N         10.2470   76.8710   54.0730 N.3    53  ALA53      -0.1245
     27  CA        11.3160   77.7270   53.5670 C.3    53  ALA53       0.1562
     28  C         10.8080   79.1360   53.2910 C.2    53  ALA53       0.2260
     29  O         11.5320   80.1170   53.4980 O.2    53  ALA53      -0.2867
     30  CB        11.9300   77.1130   52.3080 C.3    53  ALA53       0.0290
     31  N         12.1650   82.6520   55.2140 N.3    57  ALA57      -0.1245
     32  CA        12.5020   83.8710   54.4950 C.3    57  ALA57       0.1562
     33  C         11.6950   85.0710   54.9700 C.2    57  ALA57       0.2260
     34  O         12.1250   86.2100   54.7620 O.2    57  ALA57      -0.2867
     35  CB        12.2950   83.6680   52.9940 C.3    57  ALA57       0.0290
     36  N         14.1820   87.8880   55.7510 N.3    61  LEU61      -0.1245
     37  CA        14.1830   88.9420   54.7420 C.3    61  LEU61       0.1561
     38  C         12.9700   89.8610   54.8280 C.2    61  LEU61       0.2260
     39  O         13.1210   91.0870   54.8440 O.2    61  LEU61      -0.2867
     40  CB        14.2610   88.3290   53.3430 C.3    61  LEU61       0.0270
     41  CG        15.6330   87.8280   52.8920 C.3    61  LEU61       0.0019
     42  CD1       15.5460   87.2190   51.5020 C.3    61  LEU61       0.0001
     43  CD2       16.6450   88.9610   52.9200 C.3    61  LEU61       0.0001
     44  N          8.5750   92.1700   47.9410 N.3    86  PHE86      -0.1241
     45  CA         9.1880   90.8520   48.0930 C.3    86  PHE86       0.1605
     46  C          8.3380   89.9190   48.9480 C.2    86  PHE86       0.2264
     47  O          8.3330   88.7040   48.7190 O.2    86  PHE86      -0.2867
     48  CB        10.5900   90.9770   48.6900 C.3    86  PHE86       0.0534
     49  CG        11.3140   89.6630   48.7970 C.ar   86  PHE86      -0.0203
     50  CD1       11.7650   89.0150   47.6580 C.ar   86  PHE86      -0.0042
     51  CD2       11.5430   89.0740   50.0300 C.ar   86  PHE86      -0.0042
     52  CE1       12.4290   87.8060   47.7450 C.ar   86  PHE86      -0.0003
     53  CE2       12.2090   87.8630   50.1220 C.ar   86  PHE86      -0.0003
     54  CZ        12.6520   87.2300   48.9770 C.ar   86  PHE86      -0.0000
     55  N          6.7650   85.6530   48.6870 N.3    90  LEU90      -0.1245
     56  CA         6.7230   84.5910   49.6870 C.3    90  LEU90       0.1561
     57  C          5.2900   84.1660   49.9900 C.2    90  LEU90       0.2260
     58  O          5.0230   82.9810   50.2240 O.2    90  LEU90      -0.2867
     59  CB         7.4350   85.0510   50.9580 C.3    90  LEU90       0.0270
     60  CG         8.8710   85.5460   50.7710 C.3    90  LEU90       0.0019
     61  CD1        9.4500   86.0170   52.0970 C.3    90  LEU90       0.0001
     62  CD2        9.7360   84.4550   50.1540 C.3    90  LEU90       0.0001
     63  N          9.3630   67.9550   42.7080 N.3   125  LYS125     -0.1245
     64  CA        10.4370   68.9440   42.7370 C.3   125  LYS125      0.1561
     65  C         10.3350   69.9040   41.5600 C.2   125  LYS125      0.2260
     66  O         10.5830   71.1060   41.7060 O.2   125  LYS125     -0.2867
     67  CB        11.7990   68.2480   42.7390 C.3   125  LYS125      0.0271
     68  CG        12.0490   67.3640   43.9470 C.3   125  LYS125      0.0035
     69  CD        13.3830   66.6460   43.8350 C.3   125  LYS125      0.0206
     70  CE        13.4160   65.4040   44.7100 C.3   125  LYS125      0.1093
     71  NZ        13.0640   65.7070   46.1230 N.3   125  LYS125     -0.1314
     72  N          7.5610   72.3570   42.2730 N.3   128  ILE128     -0.1245
     73  CA         7.9630   73.3460   43.2680 C.3   128  ILE128      0.1561
     74  C          8.8110   74.4410   42.6300 C.2   128  ILE128      0.2260
     75  O          8.6120   75.6320   42.8990 O.2   128  ILE128     -0.2867
     76  CB         8.7000   72.6630   44.4350 C.3   128  ILE128      0.0252
     77  CG1        7.7540   71.7250   45.1860 C.3   128  ILE128      0.0019
     78  CG2        9.2800   73.7000   45.3860 C.3   128  ILE128      0.0019
     79  CD1        8.3960   71.0150   46.3520 C.3   128  ILE128      0.0001
     80  N          7.9190   78.5100   42.3230 N.3   132  TRP132     -0.1241
     81  CA         8.7410   79.5970   42.8440 C.3   132  TRP132      0.1605
     82  C          9.0310   80.6360   41.7680 C.2   132  TRP132      0.2264
     83  O          9.0990   81.8360   42.0600 O.2   132  TRP132     -0.2867
     84  CB        10.0400   79.0440   43.4300 C.3   132  TRP132      0.0550
     85  CG         9.9090   78.6080   44.8580 C.ar  132  TRP132      0.0003
     86  CD1        9.7030   77.3370   45.3150 C.ar  132  TRP132      0.0946
     87  CD2        9.9650   79.4470   46.0200 C.ar  132  TRP132      0.0152
     88  NE1        9.6330   77.3340   46.6860 N.ar  132  TRP132     -0.2442
     89  CE2        9.7910   78.6160   47.1430 C.ar  132  TRP132      0.0810
     90  CE3       10.1490   80.8190   46.2170 C.ar  132  TRP132      0.0012
     91  CZ2        9.7940   79.1130   48.4480 C.ar  132  TRP132      0.0191
     92  CZ3       10.1530   81.3110   47.5110 C.ar  132  TRP132      0.0001
     93  CH2        9.9760   80.4590   48.6100 C.ar  132  TRP132      0.0015
     94  N          7.7410   84.7150   41.8920 N.3   136  PHE136     -0.1241
     95  CA         8.5130   85.9330   41.6570 C.3   136  PHE136      0.1605
     96  C          7.8700   86.7990   40.5820 C.2   136  PHE136      0.2264
     97  O          7.8570   88.0300   40.6950 O.2   136  PHE136     -0.2867
     98  CB         9.9490   85.5830   41.2700 C.3   136  PHE136      0.0534
     99  CG        10.8590   85.3590   42.4450 C.ar  136  PHE136     -0.0203
    100  CD1       11.5640   86.4160   43.0030 C.ar  136  PHE136     -0.0042
    101  CD2       11.0140   84.0940   42.9890 C.ar  136  PHE136     -0.0042
    102  CE1       12.4070   86.2150   44.0850 C.ar  136  PHE136     -0.0003
    103  CE2       11.8540   83.8840   44.0700 C.ar  136  PHE136     -0.0003
    104  CZ        12.5530   84.9470   44.6190 C.ar  136  PHE136     -0.0000
@<TRIPOS>BOND
     1    96    97    2
     2    96    95    1
     3    98    95    1
     4    98    99    1
     5    65    66    2
     6    65    64    1
     7    95    94    1
     8    82    83    2
     9    82    81    1
    10    72    73    1
    11    80    81    1
    12    99   101   ar
    13    99   100   ar
    14    74    75    2
    15    74    73    1
    16    63    64    1
    17    64    67    1
    18    67    68    1
    19    81    84    1
    20   101   103   ar
    21   100   102   ar
    22    73    76    1
    23    84    85    1
    24    69    68    1
    25    69    70    1
    26   103   104   ar
    27   102   104   ar
    28    76    77    1
    29    76    78    1
    30    70    71    1
    31    85    86   ar
    32    85    87   ar
    33    77    79    1
    34    86    88   ar
    35    87    90   ar
    36    87    89   ar
    37    90    92   ar
    38    88    89   ar
    39    89    91   ar
    40    92    93   ar
    41    50    52   ar
    42    50    49   ar
    43     8    10   ar
    44     8     6   ar
    45    52    54   ar
    46    10    11   ar
    47    44    45    1
    48    45    48    1
    49    45    46    1
    50    25    24    1
    51    91    93   ar
    52    55    56    1
    53    48    49    1
    54    47    46    2
    55     5     6    1
    56     5     2    1
    57    49    51   ar
    58     6     7   ar
    59    11    12    1
    60    11     9   ar
    61    54    53   ar
    62    24    21    1
    63    56    57    1
    64    56    59    1
    65     4     3    2
    66     3     2    1
    67    57    58    2
    68     7     9   ar
    69    51    53   ar
    70     2     1    1
    71    62    60    1
    72    21    22    1
    73    21    20    1
    74    60    59    1
    75    60    61    1
    76    23    22    2
    77    20    15   am
    78    42    41    1
    79    30    27    1
    80    15    16    2
    81    15    14    1
    82    18    17    1
    83    41    43    1
    84    41    40    1
    85    17    14    1
    86    17    19    1
    87    35    32    1
    88    13    14    1
    89    28    29    2
    90    28    27    1
    91    40    37    1
    92    27    26    1
    93    32    33    1
    94    32    31    1
    95    37    38    1
    96    37    36    1
    97    34    33    2
    98    38    39    2
