@<TRIPOS>MOLECULE
tmp/5k2aA12.pdb
 94 91 0 0 0
SMALL
GASTEIGER

@<TRIPOS>ATOM
      1  N         -5.2640   90.3320   45.4610 N.3   185  PHE185     -0.1227
      2  CA        -6.2590   89.7610   46.3610 C.3   185  PHE185      0.1736
      3  C         -7.2490   88.8770   45.6110 C.2   185  PHE185      0.2595
      4  O         -7.3760   87.6820   45.8980 O.2   185  PHE185     -0.2718
      5  CB        -6.9900   90.8760   47.1110 C.3   185  PHE185      0.0547
      6  CG        -8.0350   90.3730   48.0630 C.ar  185  PHE185     -0.0202
      7  CD1       -7.8010   89.2370   48.8230 C.ar  185  PHE185     -0.0042
      8  CD2       -9.2460   91.0350   48.2090 C.ar  185  PHE185     -0.0042
      9  CE1       -8.7530   88.7600   49.7070 C.ar  185  PHE185     -0.0003
     10  CE2      -10.2090   90.5650   49.0950 C.ar  185  PHE185     -0.0003
     11  CZ        -9.9600   89.4250   49.8450 C.ar  185  PHE185     -0.0000
     12  N         -7.9740   89.4550   44.6520 N.am  186  PHE186     -0.1976
     13  CA        -9.0430   88.7190   43.9850 C.3   186  PHE186      0.1639
     14  C         -8.4910   87.5530   43.1730 C.2   186  PHE186      0.2290
     15  O         -8.8840   86.3980   43.3740 O.2   186  PHE186     -0.2864
     16  CB        -9.8560   89.6590   43.0910 C.3   186  PHE186      0.0560
     17  CG       -10.7500   90.6010   43.8510 C.ar  186  PHE186     -0.0200
     18  CD1      -10.9740   90.4290   45.2050 C.ar  186  PHE186     -0.0042
     19  CD2      -11.3740   91.6560   43.2050 C.ar  186  PHE186     -0.0042
     20  CE1      -11.7980   91.2940   45.9030 C.ar  186  PHE186     -0.0003
     21  CE2      -12.1990   92.5240   43.8980 C.ar  186  PHE186     -0.0003
     22  CZ       -12.4100   92.3420   45.2490 C.ar  186  PHE186     -0.0000
     23  N         -7.6940   85.2200   46.6290 N.3   190  LEU190     -0.1245
     24  CA        -9.0640   84.8010   46.9090 C.3   190  LEU190      0.1561
     25  C         -9.4590   83.5900   46.0680 C.2   190  LEU190      0.2260
     26  O        -10.0160   82.6150   46.5860 O.2   190  LEU190     -0.2867
     27  CB       -10.0160   85.9710   46.6690 C.3   190  LEU190      0.0270
     28  CG       -11.3910   85.8880   47.3330 C.3   190  LEU190      0.0019
     29  CD1      -11.2680   85.3730   48.7570 C.3   190  LEU190      0.0001
     30  CD2      -12.0680   87.2470   47.3190 C.3   190  LEU190      0.0001
     31  N        -10.5400   79.7800   47.4600 N.3   194  LEU194     -0.1245
     32  CA       -11.8240   79.1340   47.2130 C.3   194  LEU194      0.1561
     33  C        -11.6390   77.7720   46.5580 C.2   194  LEU194      0.2260
     34  O        -12.3780   76.8250   46.8550 O.2   194  LEU194     -0.2867
     35  CB       -12.7020   80.0350   46.3460 C.3   194  LEU194      0.0270
     36  CG       -13.0780   81.3680   46.9940 C.3   194  LEU194      0.0019
     37  CD1      -13.8610   82.2430   46.0280 C.3   194  LEU194      0.0001
     38  CD2      -13.8700   81.1250   48.2700 C.3   194  LEU194      0.0001
     39  N         -6.3710   87.9110   55.5910 N.3   337  LEU337     -0.1245
     40  CA        -7.5740   88.6120   55.1490 C.3   337  LEU337      0.1561
     41  C         -7.7180   90.0200   55.7210 C.2   337  LEU337      0.2260
     42  O         -8.1520   90.9090   54.9680 O.2   337  LEU337     -0.2867
     43  CB        -8.8160   87.7730   55.4750 C.3   337  LEU337      0.0270
     44  CG        -9.1980   86.7040   54.4500 C.3   337  LEU337      0.0019
     45  CD1      -10.3510   85.8590   54.9670 C.3   337  LEU337      0.0001
     46  CD2       -9.5510   87.3450   53.1190 C.3   337  LEU337      0.0001
     47  N         -8.6800   93.1100   53.3690 N.3   341  ILE341     -0.1245
     48  CA        -9.9640   93.7800   53.5590 C.3   341  ILE341      0.1561
     49  C         -9.7610   95.2690   53.8220 C.2   341  ILE341      0.2260
     50  O        -10.5490   96.1060   53.3650 O.2   341  ILE341     -0.2867
     51  CB       -10.7490   93.0970   54.6950 C.3   341  ILE341      0.0252
     52  CG1      -11.1480   91.6800   54.2750 C.3   341  ILE341      0.0019
     53  CG2      -11.9810   93.9100   55.0710 C.3   341  ILE341      0.0019
     54  CD1      -11.7820   90.8680   55.3800 C.3   341  ILE341      0.0001
     55  N         -9.2920   96.9190   50.6020 N.3   344  CYS344     -0.1221
     56  CA       -10.5560   97.1000   49.8950 C.3   344  CYS344      0.1808
     57  C        -11.2630   98.3730   50.3450 C.2   344  CYS344      0.2601
     58  O        -11.7870   99.1260   49.5160 O.2   344  CYS344     -0.2717
     59  CB       -11.4540   95.8790   50.1010 C.3   344  CYS344      0.0970
     60  SG       -10.9140   94.3980   49.2110 S.3   344  CYS344     -0.0800
     61  N        -11.2850   98.6340   51.6550 N.am  345  PHE345     -0.1976
     62  CA       -11.8770   99.8730   52.1520 C.3   345  PHE345      0.1639
     63  C        -11.1260  101.0910   51.6300 C.2   345  PHE345      0.2290
     64  O        -11.7430  102.0840   51.2220 O.2   345  PHE345     -0.2864
     65  CB       -11.8940   99.8740   53.6800 C.3   345  PHE345      0.0560
     66  CG       -13.0370   99.1040   54.2740 C.ar  345  PHE345     -0.0200
     67  CD1      -14.2710   99.7060   54.4430 C.ar  345  PHE345     -0.0042
     68  CD2      -12.8810   97.7820   54.6630 C.ar  345  PHE345     -0.0042
     69  CE1      -15.3290   99.0090   54.9850 C.ar  345  PHE345     -0.0003
     70  CE2      -13.9390   97.0770   55.2100 C.ar  345  PHE345     -0.0003
     71  CZ       -15.1620   97.6920   55.3700 C.ar  345  PHE345     -0.0000
     72  N        -12.0090  101.0580   47.6180 N.3   348  PHE348     -0.1227
     73  CA       -13.3890  101.1610   47.1650 C.3   348  PHE348      0.1736
     74  C        -14.1780  102.2910   47.8180 C.2   348  PHE348      0.2595
     75  O        -15.1760  102.7360   47.2420 O.2   348  PHE348     -0.2718
     76  CB       -14.1140   99.8340   47.4080 C.3   348  PHE348      0.0547
     77  CG       -13.7670   98.7670   46.4150 C.ar  348  PHE348     -0.0202
     78  CD1      -13.7650   99.0450   45.0590 C.ar  348  PHE348     -0.0042
     79  CD2      -13.4320   97.4890   46.8330 C.ar  348  PHE348     -0.0042
     80  CE1      -13.4480   98.0690   44.1380 C.ar  348  PHE348     -0.0003
     81  CE2      -13.1130   96.5070   45.9150 C.ar  348  PHE348     -0.0003
     82  CZ       -13.1200   96.7980   44.5660 C.ar  348  PHE348     -0.0000
     83  N        -13.7730  102.7650   48.9960 N.am  349  CYS349     -0.1970
     84  CA       -14.4900  103.8310   49.6960 C.3   349  CYS349      0.1712
     85  C        -13.5960  105.0570   49.8210 C.2   349  CYS349      0.2296
     86  O        -12.9000  105.2320   50.8350 O.2   349  CYS349     -0.2864
     87  CB       -14.9720  103.3660   51.0710 C.3   349  CYS349      0.0983
     88  SG       -15.9790  104.6020   51.9320 S.3   349  CYS349     -0.0798
     89  N        -14.5240  107.1360   52.8960 N.3   352  CYS352     -0.1235
     90  CA       -14.1160  106.6700   54.2140 C.3   352  CYS352      0.1677
     91  C        -12.7390  107.2120   54.5660 C.2   352  CYS352      0.2270
     92  O        -11.8370  107.2550   53.7240 O.2   352  CYS352     -0.2867
     93  CB       -14.0900  105.1410   54.2680 C.3   352  CYS352      0.0956
     94  SG       -15.6550  104.3130   53.9110 S.3   352  CYS352     -0.0801
@<TRIPOS>BOND
     1    16    17    1
     2    16    13    1
     3    14    15    2
     4    14    13    1
     5    19    17   ar
     6    19    21   ar
     7    17    18   ar
     8    21    22   ar
     9    13    12    1
    10    80    82   ar
    11    80    78   ar
    12    82    81   ar
    13    12     3   am
    14    78    77   ar
    15    18    20   ar
    16    22    20   ar
    17     1     2    1
    18     3     4    2
    19     3     2    1
    20    81    79   ar
    21    37    36    1
    22    25    26    2
    23    25    24    1
    24    35    36    1
    25    35    32    1
    26     2     5    1
    27    77    79   ar
    28    77    76    1
    29    33    34    2
    30    33    32    1
    31    23    24    1
    32    27    24    1
    33    27    28    1
    34    36    38    1
    35     5     6    1
    36    73    76    1
    37    73    72    1
    38    73    74    1
    39    32    31    1
    40    75    74    2
    41    30    28    1
    42    28    29    1
    43    74    83   am
    44     6     8   ar
    45     6     7   ar
    46     8    10   ar
    47     7     9   ar
    48    83    84    1
    49    10    11   ar
    50    60    59    1
    51    58    57    2
    52    84    85    1
    53    84    87    1
    54     9    11   ar
    55    85    86    2
    56    56    59    1
    57    56    57    1
    58    56    55    1
    59    57    61   am
    60    87    88    1
    61    64    63    2
    62    63    62    1
    63    61    62    1
    64    88    94    1
    65    62    65    1
    66    89    90    1
    67    46    44    1
    68    50    49    2
    69    47    48    1
    70    48    49    1
    71    48    51    1
    72    65    66    1
    73    92    91    2
    74    94    93    1
    75    90    93    1
    76    90    91    1
    77    66    67   ar
    78    66    68   ar
    79    52    51    1
    80    52    54    1
    81    67    69   ar
    82    44    45    1
    83    44    43    1
    84    68    70   ar
    85    51    53    1
    86    42    41    2
    87    69    71   ar
    88    40    43    1
    89    40    39    1
    90    40    41    1
    91    70    71   ar
