@<TRIPOS>MOLECULE
tmp/5k2aA03.pdb
 85 78 0 0 0
SMALL
GASTEIGER

@<TRIPOS>ATOM
      1  N          6.2290   69.7920   49.8260 N.3    47  PHE47      -0.1241
      2  CA         5.5590   71.0860   49.8090 C.3    47  PHE47       0.1605
      3  C          5.5030   71.7010   51.2000 C.2    47  PHE47       0.2264
      4  O          5.4760   72.9290   51.3320 O.2    47  PHE47      -0.2867
      5  CB         4.1490   70.9440   49.2340 C.3    47  PHE47       0.0534
      6  CG         4.1170   70.3950   47.8370 C.ar   47  PHE47      -0.0203
      7  CD1        4.4620   71.1910   46.7570 C.ar   47  PHE47      -0.0042
      8  CD2        3.7430   69.0820   47.6020 C.ar   47  PHE47      -0.0042
      9  CE1        4.4360   70.6850   45.4660 C.ar   47  PHE47      -0.0003
     10  CE2        3.7140   68.5720   46.3140 C.ar   47  PHE47      -0.0003
     11  CZ         4.0610   69.3750   45.2450 C.ar   47  PHE47      -0.0000
     12  N          0.7820   78.5410   46.5560 N.3    96  PHE96      -0.1241
     13  CA         1.0580   77.4280   45.6530 C.3    96  PHE96       0.1605
     14  C          1.3260   76.1400   46.4230 C.2    96  PHE96       0.2264
     15  O          0.8410   75.0670   46.0420 O.2    96  PHE96      -0.2867
     16  CB         2.2430   77.7670   44.7480 C.3    96  PHE96       0.0534
     17  CG         1.9260   78.7820   43.6880 C.ar   96  PHE96      -0.0203
     18  CD1        0.6360   78.9180   43.2040 C.ar   96  PHE96      -0.0042
     19  CD2        2.9180   79.5980   43.1710 C.ar   96  PHE96      -0.0042
     20  CE1        0.3410   79.8480   42.2250 C.ar   96  PHE96      -0.0003
     21  CE2        2.6290   80.5310   42.1910 C.ar   96  PHE96      -0.0003
     22  CZ         1.3400   80.6550   41.7190 C.ar   96  PHE96      -0.0000
     23  N         -1.9940   74.9020   47.8540 N.3    99  LEU99      -0.1231
     24  CA        -2.8290   74.3370   46.7990 C.3    99  LEU99       0.1693
     25  C         -2.3140   72.9720   46.3630 C.2    99  LEU99       0.2591
     26  O         -3.1030   72.0510   46.1140 O.2    99  LEU99      -0.2718
     27  CB        -2.8880   75.2930   45.6080 C.3    99  LEU99       0.0284
     28  CG        -3.7610   74.8700   44.4250 C.3    99  LEU99       0.0019
     29  CD1       -5.1980   74.6580   44.8710 C.3    99  LEU99       0.0001
     30  CD2       -3.6880   75.9060   43.3140 C.3    99  LEU99       0.0001
     31  N         -0.9910   72.8190   46.2710 N.am  100  ALA100     -0.1980
     32  CA        -0.4200   71.5380   45.8690 C.3   100  ALA100      0.1597
     33  C         -0.6890   70.4590   46.9100 C.2   100  ALA100      0.2287
     34  O         -0.9280   69.2970   46.5610 O.2   100  ALA100     -0.2864
     35  CB         1.0810   71.6880   45.6240 C.3   100  ALA100      0.0319
     36  N         -4.4030   69.2560   46.4870 N.3   103  ILE103     -0.1231
     37  CA        -4.5490   68.4030   45.3100 C.3   103  ILE103      0.1692
     38  C         -3.8730   67.0570   45.5410 C.2   103  ILE103      0.2592
     39  O         -4.3890   66.0090   45.1320 O.2   103  ILE103     -0.2718
     40  CB        -3.9920   69.1170   44.0640 C.3   103  ILE103      0.0266
     41  CG1       -4.8420   70.3480   43.7360 C.3   103  ILE103      0.0019
     42  CG2       -3.9370   68.1680   42.8750 C.3   103  ILE103      0.0020
     43  CD1       -4.2530   71.2280   42.6600 C.3   103  ILE103      0.0001
     44  N         -2.7180   67.0630   46.2120 N.am  104  ASP104     -0.1974
     45  CA        -2.0220   65.8150   46.5140 C.3   104  ASP104      0.1709
     46  C         -2.8850   64.8990   47.3740 C.2   104  ASP104      0.2293
     47  O         -2.9820   63.6940   47.1150 O.2   104  ASP104     -0.2864
     48  CB        -0.6930   66.1140   47.2090 C.3   104  ASP104      0.1436
     49  CG         0.0410   64.8550   47.6290 C.2   104  ASP104      0.3671
     50  OD1        0.7650   64.2760   46.7930 O.co2 104  ASP104     -0.2456
     51  OD2       -0.1120   64.4450   48.7980 O.co2 104  ASP104     -0.2456
     52  N         -5.7510   63.4740   45.1870 N.3   107  ILE107     -0.1245
     53  CA        -5.3370   62.3580   44.3410 C.3   107  ILE107      0.1561
     54  C         -5.1710   61.0940   45.1730 C.2   107  ILE107      0.2260
     55  O         -5.5130   59.9900   44.7320 O.2   107  ILE107     -0.2867
     56  CB        -4.0410   62.7130   43.5870 C.3   107  ILE107      0.0252
     57  CG1       -4.2590   63.9310   42.6880 C.3   107  ILE107      0.0019
     58  CG2       -3.5490   61.5280   42.7660 C.3   107  ILE107      0.0019
     59  CD1       -2.9940   64.4250   42.0190 C.3   107  ILE107      0.0001
     60  N          2.1530   60.6340   41.1400 N.3   119  VAL119     -0.1245
     61  CA         2.7320   61.6780   41.9770 C.3   119  VAL119      0.1561
     62  C          4.0700   61.1560   42.4910 C.2   119  VAL119      0.2260
     63  O          4.1270   60.4120   43.4750 O.2   119  VAL119     -0.2867
     64  CB         1.7970   62.0660   43.1250 C.3   119  VAL119      0.0252
     65  CG1        2.2740   63.3450   43.7850 C.3   119  VAL119      0.0019
     66  CG2        0.3670   62.2190   42.6200 C.3   119  VAL119      0.0019
     67  N          7.3050   66.2930   41.6450 N.3   124  ALA124     -0.1245
     68  CA         7.0270   67.2410   42.7200 C.3   124  ALA124      0.1562
     69  C          8.0830   68.3380   42.7690 C.2   124  ALA124      0.2260
     70  O          7.7540   69.5270   42.8620 O.2   124  ALA124     -0.2867
     71  CB         6.9470   66.5070   44.0590 C.3   124  ALA124      0.0290
     72  N          7.5260   70.7240   40.0230 N.3   127  ILE127     -0.1245
     73  CA         6.3720   71.5800   40.2900 C.3   127  ILE127      0.1561
     74  C          6.7490   72.6870   41.2650 C.2   127  ILE127      0.2260
     75  O          6.3280   73.8410   41.1120 O.2   127  ILE127     -0.2867
     76  CB         5.1920   70.7380   40.8120 C.3   127  ILE127      0.0252
     77  CG1        4.6030   69.8840   39.6880 C.3   127  ILE127      0.0019
     78  CG2        4.1150   71.6280   41.4210 C.3   127  ILE127      0.0019
     79  CD1        3.4830   68.9710   40.1350 C.3   127  ILE127      0.0001
     80  N          6.6690   76.7210   40.5800 N.3   131  CYS131     -0.1235
     81  CA         5.8380   77.5800   41.4180 C.3   131  CYS131      0.1677
     82  C          6.6360   78.7280   42.0250 C.2   131  CYS131      0.2270
     83  O          6.0900   79.8180   42.2310 O.2   131  CYS131     -0.2867
     84  CB         5.1700   76.7550   42.5170 C.3   131  CYS131      0.0956
     85  SG         3.8520   75.6580   41.9370 S.3   131  CYS131     -0.0801
@<TRIPOS>BOND
     1    77    79    1
     2    77    76    1
     3    72    73    1
     4    73    76    1
     5    73    74    1
     6    80    81    1
     7    76    78    1
     8    75    74    2
     9    60    61    1
    10    81    82    1
    11    81    84    1
    12    67    68    1
    13    22    21   ar
    14    22    20   ar
    15    85    84    1
    16    61    62    1
    17    61    64    1
    18    59    57    1
    19    82    83    2
    20    21    19   ar
    21    20    18   ar
    22    62    63    2
    23    66    64    1
    24    43    41    1
    25    57    56    1
    26    68    69    1
    27    68    71    1
    28    58    56    1
    29    69    70    2
    30    42    40    1
    31    64    65    1
    32    19    17   ar
    33    18    17   ar
    34    30    28    1
    35    56    53    1
    36    17    16    1
    37    41    40    1
    38    40    37    1
    39    53    54    1
    40    53    52    1
    41    28    29    1
    42    28    27    1
    43    55    54    2
    44    16    13    1
    45    39    38    2
    46    11     9   ar
    47    11    10   ar
    48    37    38    1
    49    37    36    1
    50     9     7   ar
    51    38    44   am
    52    27    24    1
    53    35    32    1
    54    13    14    1
    55    13    12    1
    56    32    31    1
    57    32    33    1
    58    15    14    2
    59    26    25    2
    60    44    45    1
    61    31    25   am
    62    10     8   ar
    63    25    24    1
    64    45    48    1
    65    45    46    1
    66    34    33    2
    67     7     6   ar
    68    50    49   ar
    69    24    23    1
    70    47    46    2
    71    48    49    1
    72     8     6   ar
    73    49    51   ar
    74     6     5    1
    75     5     2    1
    76     2     1    1
    77     2     3    1
    78     3     4    2
