@<TRIPOS>MOLECULE
tmp/5k2aA06.pdb
 83 80 0 0 0
SMALL
GASTEIGER

@<TRIPOS>ATOM
      1  N          9.3630   67.9550   42.7080 N.3   125  LYS125     -0.1245
      2  CA        10.4370   68.9440   42.7370 C.3   125  LYS125      0.1561
      3  C         10.3350   69.9040   41.5600 C.2   125  LYS125      0.2260
      4  O         10.5830   71.1060   41.7060 O.2   125  LYS125     -0.2867
      5  CB        11.7990   68.2480   42.7390 C.3   125  LYS125      0.0271
      6  CG        12.0490   67.3640   43.9470 C.3   125  LYS125      0.0035
      7  CD        13.3830   66.6460   43.8350 C.3   125  LYS125      0.0206
      8  CE        13.4160   65.4040   44.7100 C.3   125  LYS125      0.1093
      9  NZ        13.0640   65.7070   46.1230 N.3   125  LYS125     -0.1314
     10  N          7.5610   72.3570   42.2730 N.3   128  ILE128     -0.1231
     11  CA         7.9630   73.3460   43.2680 C.3   128  ILE128      0.1692
     12  C          8.8110   74.4410   42.6300 C.2   128  ILE128      0.2591
     13  O          8.6120   75.6320   42.8990 O.2   128  ILE128     -0.2718
     14  CB         8.7000   72.6630   44.4350 C.3   128  ILE128      0.0266
     15  CG1        7.7540   71.7250   45.1860 C.3   128  ILE128      0.0019
     16  CG2        9.2800   73.7000   45.3860 C.3   128  ILE128      0.0020
     17  CD1        8.3960   71.0150   46.3520 C.3   128  ILE128      0.0001
     18  N          9.7640   74.0610   41.7740 N.am  129  ALA129     -0.1980
     19  CA        10.6200   75.0550   41.1290 C.3   129  ALA129      0.1597
     20  C          9.8140   75.9660   40.2110 C.2   129  ALA129      0.2287
     21  O         10.0470   77.1800   40.1670 O.2   129  ALA129     -0.2864
     22  CB        11.7400   74.3640   40.3500 C.3   129  ALA129      0.0319
     23  N          7.9190   78.5100   42.3230 N.3   132  TRP132     -0.1227
     24  CA         8.7410   79.5970   42.8440 C.3   132  TRP132      0.1737
     25  C          9.0310   80.6360   41.7680 C.2   132  TRP132      0.2595
     26  O          9.0990   81.8360   42.0600 O.2   132  TRP132     -0.2718
     27  CB        10.0400   79.0440   43.4300 C.3   132  TRP132      0.0564
     28  CG         9.9090   78.6080   44.8580 C.ar  132  TRP132      0.0003
     29  CD1        9.7030   77.3370   45.3150 C.ar  132  TRP132      0.0946
     30  CD2        9.9650   79.4470   46.0200 C.ar  132  TRP132      0.0152
     31  NE1        9.6330   77.3340   46.6860 N.ar  132  TRP132     -0.2442
     32  CE2        9.7910   78.6160   47.1430 C.ar  132  TRP132      0.0810
     33  CE3       10.1490   80.8190   46.2170 C.ar  132  TRP132      0.0012
     34  CZ2        9.7940   79.1130   48.4480 C.ar  132  TRP132      0.0191
     35  CZ3       10.1530   81.3110   47.5110 C.ar  132  TRP132      0.0001
     36  CH2        9.9760   80.4590   48.6100 C.ar  132  TRP132      0.0015
     37  N          9.1990   80.1970   40.5190 N.am  133  VAL133     -0.1980
     38  CA         9.4080   81.1380   39.4220 C.3   133  VAL133      0.1595
     39  C          8.1540   81.9720   39.1940 C.2   133  VAL133      0.2287
     40  O          8.2200   83.1980   39.0440 O.2   133  VAL133     -0.2864
     41  CB         9.8250   80.3860   38.1460 C.3   133  VAL133      0.0276
     42  CG1        9.7580   81.3060   36.9370 C.3   133  VAL133      0.0022
     43  CG2       11.2240   79.8110   38.3020 C.3   133  VAL133      0.0022
     44  N          7.7410   84.7150   41.8920 N.3   136  PHE136     -0.1227
     45  CA         8.5130   85.9330   41.6570 C.3   136  PHE136      0.1736
     46  C          7.8700   86.7990   40.5820 C.2   136  PHE136      0.2595
     47  O          7.8570   88.0300   40.6950 O.2   136  PHE136     -0.2718
     48  CB         9.9490   85.5830   41.2700 C.3   136  PHE136      0.0547
     49  CG        10.8590   85.3590   42.4450 C.ar  136  PHE136     -0.0202
     50  CD1       11.5640   86.4160   43.0030 C.ar  136  PHE136     -0.0042
     51  CD2       11.0140   84.0940   42.9890 C.ar  136  PHE136     -0.0042
     52  CE1       12.4070   86.2150   44.0850 C.ar  136  PHE136     -0.0003
     53  CE2       11.8540   83.8840   44.0700 C.ar  136  PHE136     -0.0003
     54  CZ        12.5530   84.9470   44.6190 C.ar  136  PHE136     -0.0000
     55  N          7.3350   86.1780   39.5280 N.am  137  ALA137     -0.1980
     56  CA         6.7100   86.9470   38.4570 C.3   137  ALA137      0.1597
     57  C          5.4490   87.6500   38.9420 C.2   137  ALA137      0.2287
     58  O          5.2110   88.8170   38.6110 O.2   137  ALA137     -0.2864
     59  CB         6.3980   86.0350   37.2710 C.3   137  ALA137      0.0319
     60  N          6.4610   90.3790   41.9600 N.3   140  LEU140     -0.1245
     61  CA         7.2690   91.4970   41.4940 C.3   140  LEU140      0.1561
     62  C          6.7180   92.1300   40.2230 C.2   140  LEU140      0.2260
     63  O          7.4230   92.9100   39.5750 O.2   140  LEU140     -0.2867
     64  CB         8.7140   91.0450   41.2730 C.3   140  LEU140      0.0270
     65  CG         9.4110   90.4700   42.5080 C.3   140  LEU140      0.0019
     66  CD1       10.8020   89.9600   42.1640 C.3   140  LEU140      0.0001
     67  CD2        9.4770   91.5100   43.6150 C.3   140  LEU140      0.0001
     68  N          7.1280   95.8620   39.4870 N.3   143  MET143     -0.1230
     69  CA         8.4070   96.3310   38.9700 C.3   143  MET143      0.1702
     70  C          8.4430   96.3410   37.4480 C.2   143  MET143      0.2592
     71  O          9.3100   97.0000   36.8660 O.2   143  MET143     -0.2718
     72  CB         9.5470   95.4720   39.5220 C.3   143  MET143      0.0401
     73  CG         9.6690   95.5170   41.0390 C.3   143  MET143      0.0596
     74  SD        11.3240   95.1580   41.6640 S.3   143  MET143     -0.1393
     75  CE        11.5120   93.4450   41.1790 C.3   143  MET143      0.0692
     76  N          7.5220   95.6330   36.7950 N.am  144  LEU144     -0.1980
     77  CA         7.4470   95.6220   35.3390 C.3   144  LEU144      0.1596
     78  C          6.7510   96.8530   34.7700 C.2   144  LEU144      0.2287
     79  O          6.6410   96.9660   33.5440 O.2   144  LEU144     -0.2864
     80  CB         6.7320   94.3580   34.8510 C.3   144  LEU144      0.0297
     81  CG         7.3740   93.0190   35.2260 C.3   144  LEU144      0.0022
     82  CD1        6.6570   91.8600   34.5510 C.3   144  LEU144      0.0001
     83  CD2        8.8520   93.0120   34.8750 C.3   144  LEU144      0.0001
@<TRIPOS>BOND
     1    79    78    2
     2    82    81    1
     3    78    77    1
     4    80    81    1
     5    80    77    1
     6    83    81    1
     7    77    76    1
     8    76    70   am
     9    71    70    2
    10    42    41    1
    11    59    56    1
    12    70    69    1
    13    41    43    1
    14    41    38    1
    15    56    57    1
    16    56    55    1
    17    58    57    2
    18    69    68    1
    19    69    72    1
    20    40    39    2
    21    39    38    1
    22    38    37    1
    23    72    73    1
    24    55    46   am
    25    63    62    2
    26    21    20    2
    27    20    19    1
    28    62    61    1
    29    22    19    1
    30    37    25   am
    31    46    47    2
    32    46    45    1
    33    73    74    1
    34    19    18    1
    35    75    74    1
    36    48    45    1
    37    48    49    1
    38    64    61    1
    39    64    65    1
    40    61    60    1
    41     3     4    2
    42     3     2    1
    43    45    44    1
    44    25    26    2
    45    25    24    1
    46    18    12   am
    47    66    65    1
    48    10    11    1
    49    23    24    1
    50    49    51   ar
    51    49    50   ar
    52    65    67    1
    53    12    13    2
    54    12    11    1
    55     1     2    1
    56     2     5    1
    57     5     6    1
    58    24    27    1
    59    51    53   ar
    60    50    52   ar
    61    11    14    1
    62    27    28    1
    63     7     6    1
    64     7     8    1
    65    53    54   ar
    66    52    54   ar
    67    14    15    1
    68    14    16    1
    69     8     9    1
    70    28    29   ar
    71    28    30   ar
    72    15    17    1
    73    29    31   ar
    74    30    33   ar
    75    30    32   ar
    76    33    35   ar
    77    31    32   ar
    78    32    34   ar
    79    35    36   ar
    80    34    36   ar
