@<TRIPOS>MOLECULE
tmp/5k2aA10.pdb
 91 88 0 0 0
SMALL
GASTEIGER

@<TRIPOS>ATOM
      1  N         13.9050   86.1240   57.8960 N.3    60  VAL60      -0.1231
      2  CA        15.2500   86.5190   57.4930 C.3    60  VAL60       0.1692
      3  C         15.2230   87.7360   56.5700 C.2    60  VAL60       0.2591
      4  O         16.1440   88.5590   56.6010 O.2    60  VAL60      -0.2718
      5  CB        15.9680   85.3240   56.8380 C.3    60  VAL60       0.0266
      6  CG1       17.3320   85.7330   56.2970 C.3    60  VAL60       0.0020
      7  CG2       16.1220   84.1900   57.8370 C.3    60  VAL60       0.0020
      8  N         14.1820   87.8880   55.7510 N.am   61  LEU61      -0.1980
      9  CA        14.1830   88.9420   54.7420 C.3    61  LEU61       0.1596
     10  C         12.9700   89.8610   54.8280 C.2    61  LEU61       0.2287
     11  O         13.1210   91.0870   54.8440 O.2    61  LEU61      -0.2864
     12  CB        14.2610   88.3290   53.3430 C.3    61  LEU61       0.0297
     13  CG        15.6330   87.8280   52.8920 C.3    61  LEU61       0.0022
     14  CD1       15.5460   87.2190   51.5020 C.3    61  LEU61       0.0001
     15  CD2       16.6450   88.9610   52.9200 C.3    61  LEU61       0.0001
     16  N         12.7940   93.8410   55.7770 N.3    65  PHE65      -0.1241
     17  CA        12.2800   94.7480   54.7560 C.3    65  PHE65       0.1605
     18  C         11.1060   95.5600   55.2860 C.2    65  PHE65       0.2264
     19  O         10.9610   96.7450   54.9600 O.2    65  PHE65      -0.2867
     20  CB        11.8600   93.9660   53.5080 C.3    65  PHE65       0.0534
     21  CG        13.0100   93.4100   52.7110 C.ar   65  PHE65      -0.0203
     22  CD1       14.3210   93.7180   53.0380 C.ar   65  PHE65      -0.0042
     23  CD2       12.7750   92.5830   51.6240 C.ar   65  PHE65      -0.0042
     24  CE1       15.3740   93.2070   52.2990 C.ar   65  PHE65      -0.0003
     25  CE2       13.8220   92.0710   50.8810 C.ar   65  PHE65      -0.0003
     26  CZ        15.1220   92.3820   51.2190 C.ar   65  PHE65      -0.0000
     27  N         12.2030  105.8860   54.3390 N.3    73  PHE73      -0.1227
     28  CA        13.4980  106.3980   53.9120 C.3    73  PHE73       0.1736
     29  C         13.5180  106.6940   52.4150 C.2    73  PHE73       0.2596
     30  O         12.7800  106.0990   51.6250 O.2    73  PHE73      -0.2718
     31  CB        14.5980  105.3900   54.2520 C.3    73  PHE73       0.0547
     32  CG        14.6120  104.1820   53.3540 C.ar   73  PHE73      -0.0202
     33  CD1       13.5520  103.2870   53.3550 C.ar   73  PHE73      -0.0042
     34  CD2       15.6850  103.9390   52.5140 C.ar   73  PHE73      -0.0042
     35  CE1       13.5580  102.1790   52.5290 C.ar   73  PHE73      -0.0003
     36  CE2       15.6990  102.8270   51.6870 C.ar   73  PHE73      -0.0003
     37  CZ        14.6330  101.9470   51.6950 C.ar   73  PHE73      -0.0000
     38  N         14.3830  107.6280   52.0310 N.am   74  CYS74      -0.1956
     39  CA        14.5610  107.9550   50.6240 C.3    74  CYS74       0.1843
     40  C         15.2650  106.8150   49.9000 C.2    74  CYS74       0.2625
     41  O         16.2250  106.2310   50.4100 O.2    74  CYS74      -0.2714
     42  CB        15.3680  109.2430   50.4800 C.3    74  CYS74       0.0997
     43  SG        14.5570  110.7070   51.1480 S.3    74  CYS74      -0.0797
     44  N         14.7830  106.5000   48.7010 N.am   75  ALA75      -0.1963
     45  CA        15.3570  105.4110   47.9270 C.3    75  ALA75       0.1728
     46  C         14.9260  105.5480   46.4780 C.2    75  ALA75       0.2616
     47  O         13.8870  106.1430   46.1800 O.2    75  ALA75      -0.2715
     48  CB        14.9300  104.0430   48.4720 C.3    75  ALA75       0.0334
     49  N         15.7460  104.9980   45.5830 N.am   76  ALA76      -0.1977
     50  CA        15.3260  104.8430   44.1990 C.3    76  ALA76       0.1597
     51  C         14.0350  104.0410   44.1560 C.2    76  ALA76       0.2287
     52  O         13.8810  103.0490   44.8750 O.2    76  ALA76      -0.2864
     53  CB        16.4160  104.1510   43.3800 C.3    76  ALA76       0.0319
     54  N         14.1350  100.3130   43.6720 N.3    79  GLY79      -0.1210
     55  CA        14.6440   99.6590   44.8650 C.3    79  GLY79       0.1956
     56  C         13.6110   99.6320   45.9750 C.2    79  GLY79       0.2612
     57  O         13.5030   98.6500   46.7150 O.2    79  GLY79      -0.2717
     58  N         12.8370  100.7120   46.1040 N.am   80  CYS80      -0.1970
     59  CA        11.7230  100.7240   47.0450 C.3    80  CYS80       0.1712
     60  C         10.7000   99.6490   46.6990 C.2    80  CYS80       0.2296
     61  O         10.1580   98.9860   47.5910 O.2    80  CYS80      -0.2864
     62  CB        11.0630  102.1040   47.0570 C.3    80  CYS80       0.0983
     63  SG         9.6570  102.2400   48.1810 S.3    80  CYS80      -0.0798
     64  N         11.0990   96.7170   45.1930 N.3    82  PHE82      -0.1227
     65  CA        11.5470   95.3840   45.5850 C.3    82  PHE82       0.1736
     66  C         11.4150   95.1780   47.0890 C.2    82  PHE82       0.2595
     67  O         11.0000   94.1050   47.5420 O.2    82  PHE82      -0.2718
     68  CB        12.9910   95.1540   45.1360 C.3    82  PHE82       0.0547
     69  CG        13.5020   93.7730   45.4330 C.ar   82  PHE82      -0.0202
     70  CD1       13.2220   92.7260   44.5760 C.ar   82  PHE82      -0.0042
     71  CD2       14.2640   93.5220   46.5640 C.ar   82  PHE82      -0.0042
     72  CE1       13.6850   91.4550   44.8360 C.ar   82  PHE82      -0.0003
     73  CE2       14.7310   92.2470   46.8290 C.ar   82  PHE82      -0.0003
     74  CZ        14.4390   91.2130   45.9630 C.ar   82  PHE82      -0.0000
     75  N         11.7600   96.1960   47.8780 N.am   83  ILE83      -0.1980
     76  CA        11.5660   96.1140   49.3230 C.3    83  ILE83       0.1595
     77  C         10.0890   95.9370   49.6550 C.2    83  ILE83       0.2287
     78  O          9.7200   95.1440   50.5310 O.2    83  ILE83      -0.2864
     79  CB        12.1590   97.3640   50.0010 C.3    83  ILE83       0.0276
     80  CG1       13.6850   97.3310   49.9250 C.3    83  ILE83       0.0022
     81  CG2       11.6880   97.4840   51.4350 C.3    83  ILE83       0.0022
     82  CD1       14.2710   96.0650   50.4520 C.3    83  ILE83       0.0001
     83  N         14.7580  109.8050   43.6090 N.3   166  GLN166     -0.1245
     84  CA        14.3810  109.1040   44.8250 C.3   166  GLN166      0.1566
     85  C         12.9670  109.4790   45.2490 C.2   166  GLN166      0.2260
     86  O         12.4720  110.5690   44.9490 O.2   166  GLN166     -0.2867
     87  CB        15.3530  109.4170   45.9650 C.3   166  GLN166      0.0367
     88  CG        16.7340  108.8070   45.8040 C.3   166  GLN166      0.0905
     89  CD        17.6140  109.0560   47.0120 C.2   166  GLN166      0.2608
     90  OE1       17.5230  110.1020   47.6540 O.2   166  GLN166     -0.2717
     91  NE2       18.4640  108.0900   47.3370 N.am  166  GLN166     -0.0878
@<TRIPOS>BOND
     1    53    50    1
     2    83    84    1
     3    54    55    1
     4    51    50    1
     5    51    52    2
     6    50    49    1
     7    70    72   ar
     8    70    69   ar
     9    84    85    1
    10    84    87    1
    11    72    74   ar
    12    55    56    1
    13    86    85    2
    14    68    69    1
    15    68    65    1
    16    64    65    1
    17    69    71   ar
    18    49    46   am
    19    65    66    1
    20    88    87    1
    21    88    89    1
    22    74    73   ar
    23    56    58   am
    24    56    57    2
    25    58    59    1
    26    47    46    2
    27    46    45    1
    28    71    73   ar
    29    60    59    1
    30    60    61    2
    31    89    91   am
    32    89    90    2
    33    59    62    1
    34    62    63    1
    35    66    67    2
    36    66    75   am
    37    75    76    1
    38    45    48    1
    39    45    44    1
    40    44    40   am
    41    76    77    1
    42    76    79    1
    43    77    78    2
    44    40    41    2
    45    40    39    1
    46    80    79    1
    47    80    82    1
    48    79    81    1
    49    42    39    1
    50    42    43    1
    51    39    38    1
    52    25    26   ar
    53    25    23   ar
    54    26    24   ar
    55    14    13    1
    56    23    21   ar
    57    30    29    2
    58    36    37   ar
    59    36    34   ar
    60    37    35   ar
    61    38    29   am
    62    24    22   ar
    63    29    28    1
    64    34    32   ar
    65    35    33   ar
    66    21    22   ar
    67    21    20    1
    68    13    15    1
    69    13    12    1
    70    12     9    1
    71    32    33   ar
    72    32    31    1
    73    20    17    1
    74    28    31    1
    75    28    27    1
    76     9    10    1
    77     9     8    1
    78    17    18    1
    79    17    16    1
    80    10    11    2
    81    19    18    2
    82     8     3   am
    83     6     5    1
    84     3     4    2
    85     3     2    1
    86     5     2    1
    87     5     7    1
    88     2     1    1
